MODEL 1
REMARK VINA RESULT:      -7.5      0.000      0.000
REMARK  Name = 
REMARK  12 active torsions:
REMARK  status: ('A' for Active; 'I' for Inactive)
REMARK    1  A    between atoms: C_1  and  C_2
REMARK    2  A    between atoms: C_2  and  O_3
REMARK    3  A    between atoms: O_3  and  C_4
REMARK    4  A    between atoms: C_4  and  C_6
REMARK    5  A    between atoms: C_7  and  N_8
REMARK    6  A    between atoms: C_9  and  C_11
REMARK    7  A    between atoms: C_11  and  O_12
REMARK    8  A    between atoms: O_12  and  C_13
REMARK    9  A    between atoms: C_13  and  C_15
REMARK   10  A    between atoms: C_15  and  N_16
REMARK   11  A    between atoms: C_28  and  C_29
REMARK   12  A    between atoms: C_30  and  C_31
REMARK                            x       y       z     vdW  Elec       q    Type
REMARK                         _______ _______ _______ _____ _____    ______ ____
ROOT
ATOM      1  N   UNL     1       9.326  10.226  19.769  0.00  0.00    +0.000 N 
ATOM      2  C   UNL     1       8.703   9.852  18.578  0.00  0.00    +0.000 C 
ATOM      3  O   UNL     1       8.331  10.580  17.662  0.00  0.00    +0.000 OA
ATOM      4  H   UNL     1       9.517   9.486  20.440  0.00  0.00    +0.000 HD
ENDROOT
BRANCH   1   6
ATOM      5  C   UNL     1       9.306  12.275  21.220  0.00  0.00    +0.000 A 
ATOM      6  C   UNL     1       9.728  11.509  20.135  0.00  0.00    +0.000 A 
ATOM      7  S   UNL     1      10.897  12.313  19.204  0.00  0.00    +0.000 S 
ATOM      8  C   UNL     1      10.882  13.692  20.183  0.00  0.00    +0.000 A 
ATOM      9  C   UNL     1      11.765  14.844  19.834  0.00  0.00    +0.000 C 
ATOM     10  C   UNL     1      10.009  13.562  21.249  0.00  0.00    +0.000 A 
ATOM     11  C   UNL     1       9.820  14.606  22.310  0.00  0.00    +0.000 C 
BRANCH   5  12
ATOM     12  C   UNL     1       8.343  11.875  22.249  0.00  0.00    +0.000 C 
ATOM     13  O   UNL     1       8.486  10.888  22.956  0.00  0.00    +0.000 OA
BRANCH  12  14
ATOM     14  O   UNL     1       7.210  12.649  22.269  0.00  0.00    +0.000 OA
BRANCH  14  16
ATOM     15  C   UNL     1       6.729  13.675  24.358  0.00  0.00    +0.000 C 
ATOM     16  C   UNL     1       6.425  12.490  23.459  0.00  0.00    +0.000 C 
ENDBRANCH  14  16
ENDBRANCH  12  14
ENDBRANCH   5  12
ENDBRANCH   1   6
BRANCH   2  17
ATOM     17  C   UNL     1       8.417   8.354  18.509  0.00  0.00    +0.000 C 
BRANCH  17  18
ATOM     18  O   UNL     1       7.545   8.025  17.423  0.00  0.00    +0.000 OA
BRANCH  18  19
ATOM     19  C   UNL     1       7.214   6.708  17.312  0.00  0.00    +0.000 C 
ATOM     20  O   UNL     1       7.827   5.780  17.819  0.00  0.00    +0.000 OA
BRANCH  19  21
ATOM     21  C   UNL     1       6.001   6.557  16.410  0.00  0.00    +0.000 C 
BRANCH  21  22
ATOM     22  N   UNL     1       5.015   5.704  17.027  0.00  0.00    +0.000 N 
ATOM     23  C   UNL     1       3.930   6.154  17.745  0.00  0.00    +0.000 C 
ATOM     24  O   UNL     1       3.553   7.301  17.885  0.00  0.00    +0.000 OA
ATOM     25  C   UNL     1       3.318   4.923  18.352  0.00  0.00    +0.000 C 
ATOM     26  C   UNL     1       1.861   4.866  18.756  0.00  0.00    +0.000 C 
ATOM     27  C   UNL     1       1.573   3.450  19.288  0.00  0.00    +0.000 C 
ATOM     28  C   UNL     1       1.983   2.342  18.299  0.00  0.00    +0.000 C 
ATOM     29  C   UNL     1       3.422   2.502  17.784  0.00  0.00    +0.000 C 
ATOM     30  C   UNL     1       3.584   3.908  17.249  0.00  0.00    +0.000 C 
ATOM     31  C   UNL     1       4.921   4.363  16.740  0.00  0.00    +0.000 C 
ATOM     32  O   UNL     1       5.694   3.699  16.073  0.00  0.00    +0.000 OA
ENDBRANCH  21  22
ENDBRANCH  19  21
ENDBRANCH  18  19
ENDBRANCH  17  18
ENDBRANCH   2  17
TORSDOF 9
ENDMDL
MODEL 2
REMARK VINA RESULT:      -7.5      6.285     10.090
REMARK  Name = 
REMARK  12 active torsions:
REMARK  status: ('A' for Active; 'I' for Inactive)
REMARK    1  A    between atoms: C_1  and  C_2
REMARK    2  A    between atoms: C_2  and  O_3
REMARK    3  A    between atoms: O_3  and  C_4
REMARK    4  A    between atoms: C_4  and  C_6
REMARK    5  A    between atoms: C_7  and  N_8
REMARK    6  A    between atoms: C_9  and  C_11
REMARK    7  A    between atoms: C_11  and  O_12
REMARK    8  A    between atoms: O_12  and  C_13
REMARK    9  A    between atoms: C_13  and  C_15
REMARK   10  A    between atoms: C_15  and  N_16
REMARK   11  A    between atoms: C_28  and  C_29
REMARK   12  A    between atoms: C_30  and  C_31
REMARK                            x       y       z     vdW  Elec       q    Type
REMARK                         _______ _______ _______ _____ _____    ______ ____
ROOT
ATOM      1  N   UNL     1       2.718   7.504  17.821  0.00  0.00    +0.000 N 
ATOM      2  C   UNL     1       2.156   8.066  18.968  0.00  0.00    +0.000 C 
ATOM      3  O   UNL     1       2.200   7.635  20.117  0.00  0.00    +0.000 OA
ATOM      4  H   UNL     1       2.535   7.977  16.940  0.00  0.00    +0.000 HD
ENDROOT
BRANCH   1   6
ATOM      5  C   UNL     1       3.145   5.031  17.916  0.00  0.00    +0.000 A 
ATOM      6  C   UNL     1       3.517   6.364  17.754  0.00  0.00    +0.000 A 
ATOM      7  S   UNL     1       5.172   6.526  17.416  0.00  0.00    +0.000 S 
ATOM      8  C   UNL     1       5.457   4.860  17.479  0.00  0.00    +0.000 A 
ATOM      9  C   UNL     1       6.841   4.348  17.258  0.00  0.00    +0.000 C 
ATOM     10  C   UNL     1       4.299   4.146  17.735  0.00  0.00    +0.000 A 
ATOM     11  C   UNL     1       4.237   2.648  17.801  0.00  0.00    +0.000 C 
BRANCH   5  12
ATOM     12  C   UNL     1       1.793   4.528  18.173  0.00  0.00    +0.000 C 
ATOM     13  O   UNL     1       1.004   4.238  17.285  0.00  0.00    +0.000 OA
BRANCH  12  14
ATOM     14  O   UNL     1       1.456   4.518  19.503  0.00  0.00    +0.000 OA
BRANCH  14  16
ATOM     15  C   UNL     1       1.713   2.980  21.296  0.00  0.00    +0.000 C 
ATOM     16  C   UNL     1       1.011   3.239  19.975  0.00  0.00    +0.000 C 
ENDBRANCH  14  16
ENDBRANCH  12  14
ENDBRANCH   5  12
ENDBRANCH   1   6
BRANCH   2  17
ATOM     17  C   UNL     1       1.347   9.326  18.670  0.00  0.00    +0.000 C 
BRANCH  17  18
ATOM     18  O   UNL     1       0.545   9.723  19.786  0.00  0.00    +0.000 OA
BRANCH  18  19
ATOM     19  C   UNL     1       0.645  11.033  20.148  0.00  0.00    +0.000 C 
ATOM     20  O   UNL     1       0.993  11.438  21.248  0.00  0.00    +0.000 OA
BRANCH  19  21
ATOM     21  C   UNL     1       0.202  11.919  18.997  0.00  0.00    +0.000 C 
BRANCH  21  22
ATOM     22  N   UNL     1      -1.237  11.917  18.883  0.00  0.00    +0.000 N 
ATOM     23  C   UNL     1      -1.952  11.133  18.007  0.00  0.00    +0.000 C 
ATOM     24  O   UNL     1      -1.532  10.252  17.284  0.00  0.00    +0.000 OA
ATOM     25  C   UNL     1      -3.371  11.619  18.108  0.00  0.00    +0.000 C 
ATOM     26  C   UNL     1      -4.548  10.737  17.752  0.00  0.00    +0.000 C 
ATOM     27  C   UNL     1      -5.836  11.538  18.021  0.00  0.00    +0.000 C 
ATOM     28  C   UNL     1      -5.901  12.107  19.452  0.00  0.00    +0.000 C 
ATOM     29  C   UNL     1      -4.630  12.874  19.849  0.00  0.00    +0.000 C 
ATOM     30  C   UNL     1      -3.434  11.987  19.583  0.00  0.00    +0.000 C 
ATOM     31  C   UNL     1      -2.048  12.513  19.820  0.00  0.00    +0.000 C 
ATOM     32  O   UNL     1      -1.700  13.212  20.755  0.00  0.00    +0.000 OA
ENDBRANCH  21  22
ENDBRANCH  19  21
ENDBRANCH  18  19
ENDBRANCH  17  18
ENDBRANCH   2  17
TORSDOF 9
ENDMDL
MODEL 3
REMARK VINA RESULT:      -7.4      1.699      3.063
REMARK  Name = 
REMARK  12 active torsions:
REMARK  status: ('A' for Active; 'I' for Inactive)
REMARK    1  A    between atoms: C_1  and  C_2
REMARK    2  A    between atoms: C_2  and  O_3
REMARK    3  A    between atoms: O_3  and  C_4
REMARK    4  A    between atoms: C_4  and  C_6
REMARK    5  A    between atoms: C_7  and  N_8
REMARK    6  A    between atoms: C_9  and  C_11
REMARK    7  A    between atoms: C_11  and  O_12
REMARK    8  A    between atoms: O_12  and  C_13
REMARK    9  A    between atoms: C_13  and  C_15
REMARK   10  A    between atoms: C_15  and  N_16
REMARK   11  A    between atoms: C_28  and  C_29
REMARK   12  A    between atoms: C_30  and  C_31
REMARK                            x       y       z     vdW  Elec       q    Type
REMARK                         _______ _______ _______ _____ _____    ______ ____
ROOT
ATOM      1  N   UNL     1       9.319  10.182  19.729  0.00  0.00    +0.000 N 
ATOM      2  C   UNL     1       8.590   9.916  18.570  0.00  0.00    +0.000 C 
ATOM      3  O   UNL     1       7.923  10.702  17.903  0.00  0.00    +0.000 OA
ATOM      4  H   UNL     1       9.771   9.391  20.180  0.00  0.00    +0.000 HD
ENDROOT
BRANCH   1   6
ATOM      5  C   UNL     1      10.271  12.500  19.889  0.00  0.00    +0.000 A 
ATOM      6  C   UNL     1       9.505  11.424  20.333  0.00  0.00    +0.000 A 
ATOM      7  S   UNL     1       8.718  11.765  21.797  0.00  0.00    +0.000 S 
ATOM      8  C   UNL     1       9.360  13.326  21.902  0.00  0.00    +0.000 A 
ATOM      9  C   UNL     1       9.012  14.180  23.076  0.00  0.00    +0.000 C 
ATOM     10  C   UNL     1      10.165  13.629  20.819  0.00  0.00    +0.000 A 
ATOM     11  C   UNL     1      10.833  14.958  20.616  0.00  0.00    +0.000 C 
BRANCH   5  12
ATOM     12  C   UNL     1      11.044  12.567  18.646  0.00  0.00    +0.000 C 
ATOM     13  O   UNL     1      11.880  11.734  18.329  0.00  0.00    +0.000 OA
BRANCH  12  14
ATOM     14  O   UNL     1      10.820  13.712  17.923  0.00  0.00    +0.000 OA
BRANCH  14  16
ATOM     15  C   UNL     1      12.330  15.437  17.301  0.00  0.00    +0.000 C 
ATOM     16  C   UNL     1      11.871  14.023  16.997  0.00  0.00    +0.000 C 
ENDBRANCH  14  16
ENDBRANCH  12  14
ENDBRANCH   5  12
ENDBRANCH   1   6
BRANCH   2  17
ATOM     17  C   UNL     1       8.611   8.438  18.188  0.00  0.00    +0.000 C 
BRANCH  17  18
ATOM     18  O   UNL     1       7.552   8.104  17.285  0.00  0.00    +0.000 OA
BRANCH  18  19
ATOM     19  C   UNL     1       6.911   6.929  17.539  0.00  0.00    +0.000 C 
ATOM     20  O   UNL     1       7.293   6.070  18.321  0.00  0.00    +0.000 OA
BRANCH  19  21
ATOM     21  C   UNL     1       5.679   6.815  16.659  0.00  0.00    +0.000 C 
BRANCH  21  22
ATOM     22  N   UNL     1       4.772   5.822  17.184  0.00  0.00    +0.000 N 
ATOM     23  C   UNL     1       3.592   6.104  17.833  0.00  0.00    +0.000 C 
ATOM     24  O   UNL     1       3.061   7.187  17.974  0.00  0.00    +0.000 OA
ATOM     25  C   UNL     1       3.107   4.784  18.365  0.00  0.00    +0.000 C 
ATOM     26  C   UNL     1       1.646   4.527  18.663  0.00  0.00    +0.000 C 
ATOM     27  C   UNL     1       1.511   3.068  19.138  0.00  0.00    +0.000 C 
ATOM     28  C   UNL     1       2.128   2.056  18.153  0.00  0.00    +0.000 C 
ATOM     29  C   UNL     1       3.564   2.417  17.745  0.00  0.00    +0.000 C 
ATOM     30  C   UNL     1       3.577   3.850  17.259  0.00  0.00    +0.000 C 
ATOM     31  C   UNL     1       4.874   4.490  16.857  0.00  0.00    +0.000 C 
ATOM     32  O   UNL     1       5.771   3.954  16.231  0.00  0.00    +0.000 OA
ENDBRANCH  21  22
ENDBRANCH  19  21
ENDBRANCH  18  19
ENDBRANCH  17  18
ENDBRANCH   2  17
TORSDOF 9
ENDMDL
MODEL 4
REMARK VINA RESULT:      -7.4      6.573     10.528
REMARK  Name = 
REMARK  12 active torsions:
REMARK  status: ('A' for Active; 'I' for Inactive)
REMARK    1  A    between atoms: C_1  and  C_2
REMARK    2  A    between atoms: C_2  and  O_3
REMARK    3  A    between atoms: O_3  and  C_4
REMARK    4  A    between atoms: C_4  and  C_6
REMARK    5  A    between atoms: C_7  and  N_8
REMARK    6  A    between atoms: C_9  and  C_11
REMARK    7  A    between atoms: C_11  and  O_12
REMARK    8  A    between atoms: O_12  and  C_13
REMARK    9  A    between atoms: C_13  and  C_15
REMARK   10  A    between atoms: C_15  and  N_16
REMARK   11  A    between atoms: C_28  and  C_29
REMARK   12  A    between atoms: C_30  and  C_31
REMARK                            x       y       z     vdW  Elec       q    Type
REMARK                         _______ _______ _______ _____ _____    ______ ____
ROOT
ATOM      1  N   UNL     1       2.616   7.588  17.714  0.00  0.00    +0.000 N 
ATOM      2  C   UNL     1       2.075   8.158  18.867  0.00  0.00    +0.000 C 
ATOM      3  O   UNL     1       2.167   7.753  20.022  0.00  0.00    +0.000 OA
ATOM      4  H   UNL     1       2.392   8.038  16.830  0.00  0.00    +0.000 HD
ENDROOT
BRANCH   1   6
ATOM      5  C   UNL     1       3.110   5.128  17.814  0.00  0.00    +0.000 A 
ATOM      6  C   UNL     1       3.445   6.470  17.644  0.00  0.00    +0.000 A 
ATOM      7  S   UNL     1       5.092   6.675  17.290  0.00  0.00    +0.000 S 
ATOM      8  C   UNL     1       5.421   5.017  17.358  0.00  0.00    +0.000 A 
ATOM      9  C   UNL     1       6.817   4.541  17.126  0.00  0.00    +0.000 C 
ATOM     10  C   UNL     1       4.286   4.274  17.626  0.00  0.00    +0.000 A 
ATOM     11  C   UNL     1       4.263   2.774  17.699  0.00  0.00    +0.000 C 
BRANCH   5  12
ATOM     12  C   UNL     1       1.774   4.590  18.085  0.00  0.00    +0.000 C 
ATOM     13  O   UNL     1       0.990   4.262  17.206  0.00  0.00    +0.000 OA
BRANCH  12  14
ATOM     14  O   UNL     1       1.442   4.593  19.417  0.00  0.00    +0.000 OA
BRANCH  14  16
ATOM     15  C   UNL     1       1.709   3.145  21.282  0.00  0.00    +0.000 C 
ATOM     16  C   UNL     1       1.062   3.303  19.918  0.00  0.00    +0.000 C 
ENDBRANCH  14  16
ENDBRANCH  12  14
ENDBRANCH   5  12
ENDBRANCH   1   6
BRANCH   2  17
ATOM     17  C   UNL     1       1.222   9.389  18.570  0.00  0.00    +0.000 C 
BRANCH  17  18
ATOM     18  O   UNL     1       1.331  10.377  19.599  0.00  0.00    +0.000 OA
BRANCH  18  19
ATOM     19  C   UNL     1       0.220  10.552  20.368  0.00  0.00    +0.000 C 
ATOM     20  O   UNL     1      -0.457   9.653  20.847  0.00  0.00    +0.000 OA
BRANCH  19  21
ATOM     21  C   UNL     1      -0.091  12.033  20.493  0.00  0.00    +0.000 C 
BRANCH  21  22
ATOM     22  N   UNL     1      -1.329  12.232  21.206  0.00  0.00    +0.000 N 
ATOM     23  C   UNL     1      -1.423  12.494  22.554  0.00  0.00    +0.000 C 
ATOM     24  O   UNL     1      -0.519  12.715  23.334  0.00  0.00    +0.000 OA
ATOM     25  C   UNL     1      -2.891  12.420  22.870  0.00  0.00    +0.000 C 
ATOM     26  C   UNL     1      -3.494  13.140  24.057  0.00  0.00    +0.000 C 
ATOM     27  C   UNL     1      -5.012  12.885  24.042  0.00  0.00    +0.000 C 
ATOM     28  C   UNL     1      -5.670  13.252  22.698  0.00  0.00    +0.000 C 
ATOM     29  C   UNL     1      -4.952  12.630  21.491  0.00  0.00    +0.000 C 
ATOM     30  C   UNL     1      -3.481  12.974  21.582  0.00  0.00    +0.000 C 
ATOM     31  C   UNL     1      -2.525  12.434  20.558  0.00  0.00    +0.000 C 
ATOM     32  O   UNL     1      -2.737  12.340  19.362  0.00  0.00    +0.000 OA
ENDBRANCH  21  22
ENDBRANCH  19  21
ENDBRANCH  18  19
ENDBRANCH  17  18
ENDBRANCH   2  17
TORSDOF 9
ENDMDL
MODEL 5
REMARK VINA RESULT:      -7.3      6.425     10.196
REMARK  Name = 
REMARK  12 active torsions:
REMARK  status: ('A' for Active; 'I' for Inactive)
REMARK    1  A    between atoms: C_1  and  C_2
REMARK    2  A    between atoms: C_2  and  O_3
REMARK    3  A    between atoms: O_3  and  C_4
REMARK    4  A    between atoms: C_4  and  C_6
REMARK    5  A    between atoms: C_7  and  N_8
REMARK    6  A    between atoms: C_9  and  C_11
REMARK    7  A    between atoms: C_11  and  O_12
REMARK    8  A    between atoms: O_12  and  C_13
REMARK    9  A    between atoms: C_13  and  C_15
REMARK   10  A    between atoms: C_15  and  N_16
REMARK   11  A    between atoms: C_28  and  C_29
REMARK   12  A    between atoms: C_30  and  C_31
REMARK                            x       y       z     vdW  Elec       q    Type
REMARK                         _______ _______ _______ _____ _____    ______ ____
ROOT
ATOM      1  N   UNL     1       2.515   7.456  17.771  0.00  0.00    +0.000 N 
ATOM      2  C   UNL     1       1.964   8.135  18.858  0.00  0.00    +0.000 C 
ATOM      3  O   UNL     1       2.071   7.861  20.050  0.00  0.00    +0.000 OA
ATOM      4  H   UNL     1       2.275   7.800  16.845  0.00  0.00    +0.000 HD
ENDROOT
BRANCH   1   6
ATOM      5  C   UNL     1       3.056   5.018  18.030  0.00  0.00    +0.000 A 
ATOM      6  C   UNL     1       3.372   6.358  17.817  0.00  0.00    +0.000 A 
ATOM      7  S   UNL     1       5.035   6.590  17.574  0.00  0.00    +0.000 S 
ATOM      8  C   UNL     1       5.397   4.947  17.749  0.00  0.00    +0.000 A 
ATOM      9  C   UNL     1       6.817   4.498  17.643  0.00  0.00    +0.000 C 
ATOM     10  C   UNL     1       4.263   4.187  17.971  0.00  0.00    +0.000 A 
ATOM     11  C   UNL     1       4.270   2.693  18.118  0.00  0.00    +0.000 C 
BRANCH   5  12
ATOM     12  C   UNL     1       1.717   4.458  18.230  0.00  0.00    +0.000 C 
ATOM     13  O   UNL     1       0.991   4.108  17.311  0.00  0.00    +0.000 OA
BRANCH  12  14
ATOM     14  O   UNL     1       1.310   4.467  19.541  0.00  0.00    +0.000 OA
BRANCH  14  16
ATOM     15  C   UNL     1       1.706   3.010  21.375  0.00  0.00    +0.000 C 
ATOM     16  C   UNL     1       0.983   3.166  20.051  0.00  0.00    +0.000 C 
ENDBRANCH  14  16
ENDBRANCH  12  14
ENDBRANCH   5  12
ENDBRANCH   1   6
BRANCH   2  17
ATOM     17  C   UNL     1       1.077   9.303  18.434  0.00  0.00    +0.000 C 
BRANCH  17  18
ATOM     18  O   UNL     1       1.287  10.459  19.252  0.00  0.00    +0.000 OA
BRANCH  18  19
ATOM     19  C   UNL     1       0.185  10.927  19.904  0.00  0.00    +0.000 C 
ATOM     20  O   UNL     1      -0.283  10.454  20.930  0.00  0.00    +0.000 OA
BRANCH  19  21
ATOM     21  C   UNL     1      -0.413  12.089  19.132  0.00  0.00    +0.000 C 
BRANCH  21  22
ATOM     22  N   UNL     1      -1.852  11.986  19.098  0.00  0.00    +0.000 N 
ATOM     23  C   UNL     1      -2.707  12.684  19.920  0.00  0.00    +0.000 C 
ATOM     24  O   UNL     1      -2.427  13.564  20.709  0.00  0.00    +0.000 OA
ATOM     25  C   UNL     1      -4.069  12.105  19.659  0.00  0.00    +0.000 C 
ATOM     26  C   UNL     1      -5.338  12.888  19.920  0.00  0.00    +0.000 C 
ATOM     27  C   UNL     1      -6.530  12.010  19.495  0.00  0.00    +0.000 C 
ATOM     28  C   UNL     1      -6.409  11.494  18.048  0.00  0.00    +0.000 C 
ATOM     29  C   UNL     1      -5.053  10.833  17.760  0.00  0.00    +0.000 C 
ATOM     30  C   UNL     1      -3.958  11.791  18.174  0.00  0.00    +0.000 C 
ATOM     31  C   UNL     1      -2.520  11.372  18.064  0.00  0.00    +0.000 C 
ATOM     32  O   UNL     1      -2.030  10.736  17.149  0.00  0.00    +0.000 OA
ENDBRANCH  21  22
ENDBRANCH  19  21
ENDBRANCH  18  19
ENDBRANCH  17  18
ENDBRANCH   2  17
TORSDOF 9
ENDMDL
MODEL 6
REMARK VINA RESULT:      -7.3      6.180      8.267
REMARK  Name = 
REMARK  12 active torsions:
REMARK  status: ('A' for Active; 'I' for Inactive)
REMARK    1  A    between atoms: C_1  and  C_2
REMARK    2  A    between atoms: C_2  and  O_3
REMARK    3  A    between atoms: O_3  and  C_4
REMARK    4  A    between atoms: C_4  and  C_6
REMARK    5  A    between atoms: C_7  and  N_8
REMARK    6  A    between atoms: C_9  and  C_11
REMARK    7  A    between atoms: C_11  and  O_12
REMARK    8  A    between atoms: O_12  and  C_13
REMARK    9  A    between atoms: C_13  and  C_15
REMARK   10  A    between atoms: C_15  and  N_16
REMARK   11  A    between atoms: C_28  and  C_29
REMARK   12  A    between atoms: C_30  and  C_31
REMARK                            x       y       z     vdW  Elec       q    Type
REMARK                         _______ _______ _______ _____ _____    ______ ____
ROOT
ATOM      1  N   UNL     1       0.908   8.890  19.457  0.00  0.00    +0.000 N 
ATOM      2  C   UNL     1       1.815   8.856  18.397  0.00  0.00    +0.000 C 
ATOM      3  O   UNL     1       2.110   9.767  17.629  0.00  0.00    +0.000 OA
ATOM      4  H   UNL     1       0.752   8.019  19.956  0.00  0.00    +0.000 HD
ENDROOT
BRANCH   1   6
ATOM      5  C   UNL     1      -0.922  10.606  19.351  0.00  0.00    +0.000 A 
ATOM      6  C   UNL     1       0.198   9.999  19.914  0.00  0.00    +0.000 A 
ATOM      7  S   UNL     1       0.680  10.761  21.352  0.00  0.00    +0.000 S 
ATOM      8  C   UNL     1      -0.554  11.915  21.278  0.00  0.00    +0.000 A 
ATOM      9  C   UNL     1      -0.647  12.953  22.348  0.00  0.00    +0.000 C 
ATOM     10  C   UNL     1      -1.370  11.732  20.176  0.00  0.00    +0.000 A 
ATOM     11  C   UNL     1      -2.575  12.576  19.876  0.00  0.00    +0.000 C 
BRANCH   5  12
ATOM     12  C   UNL     1      -1.627  10.183  18.138  0.00  0.00    +0.000 C 
ATOM     13  O   UNL     1      -1.081  10.061  17.051  0.00  0.00    +0.000 OA
BRANCH  12  14
ATOM     14  O   UNL     1      -2.981  10.043  18.312  0.00  0.00    +0.000 OA
BRANCH  14  16
ATOM     15  C   UNL     1      -4.191  11.472  16.851  0.00  0.00    +0.000 C 
ATOM     16  C   UNL     1      -3.724  10.047  17.085  0.00  0.00    +0.000 C 
ENDBRANCH  14  16
ENDBRANCH  12  14
ENDBRANCH   5  12
ENDBRANCH   1   6
BRANCH   2  17
ATOM     17  C   UNL     1       2.419   7.470  18.184  0.00  0.00    +0.000 C 
BRANCH  17  18
ATOM     18  O   UNL     1       3.071   6.984  19.361  0.00  0.00    +0.000 OA
BRANCH  18  19
ATOM     19  C   UNL     1       2.463   5.933  19.980  0.00  0.00    +0.000 C 
ATOM     20  O   UNL     1       1.355   5.962  20.497  0.00  0.00    +0.000 OA
BRANCH  19  21
ATOM     21  C   UNL     1       3.393   4.733  19.988  0.00  0.00    +0.000 C 
BRANCH  21  22
ATOM     22  N   UNL     1       4.209   4.717  18.798  0.00  0.00    +0.000 N 
ATOM     23  C   UNL     1       5.560   4.980  18.771  0.00  0.00    +0.000 C 
ATOM     24  O   UNL     1       6.304   5.148  19.716  0.00  0.00    +0.000 OA
ATOM     25  C   UNL     1       5.922   5.046  17.314  0.00  0.00    +0.000 C 
ATOM     26  C   UNL     1       7.329   4.784  16.824  0.00  0.00    +0.000 C 
ATOM     27  C   UNL     1       7.321   4.887  15.288  0.00  0.00    +0.000 C 
ATOM     28  C   UNL     1       6.260   3.983  14.631  0.00  0.00    +0.000 C 
ATOM     29  C   UNL     1       4.863   4.157  15.245  0.00  0.00    +0.000 C 
ATOM     30  C   UNL     1       4.978   3.997  16.745  0.00  0.00    +0.000 C 
ATOM     31  C   UNL     1       3.765   4.185  17.610  0.00  0.00    +0.000 C 
ATOM     32  O   UNL     1       2.638   3.800  17.354  0.00  0.00    +0.000 OA
ENDBRANCH  21  22
ENDBRANCH  19  21
ENDBRANCH  18  19
ENDBRANCH  17  18
ENDBRANCH   2  17
TORSDOF 9
ENDMDL
MODEL 7
REMARK VINA RESULT:      -7.3      5.896      9.801
REMARK  Name = 
REMARK  12 active torsions:
REMARK  status: ('A' for Active; 'I' for Inactive)
REMARK    1  A    between atoms: C_1  and  C_2
REMARK    2  A    between atoms: C_2  and  O_3
REMARK    3  A    between atoms: O_3  and  C_4
REMARK    4  A    between atoms: C_4  and  C_6
REMARK    5  A    between atoms: C_7  and  N_8
REMARK    6  A    between atoms: C_9  and  C_11
REMARK    7  A    between atoms: C_11  and  O_12
REMARK    8  A    between atoms: O_12  and  C_13
REMARK    9  A    between atoms: C_13  and  C_15
REMARK   10  A    between atoms: C_15  and  N_16
REMARK   11  A    between atoms: C_28  and  C_29
REMARK   12  A    between atoms: C_30  and  C_31
REMARK                            x       y       z     vdW  Elec       q    Type
REMARK                         _______ _______ _______ _____ _____    ______ ____
ROOT
ATOM      1  N   UNL     1       2.686   6.979  18.489  0.00  0.00    +0.000 N 
ATOM      2  C   UNL     1       2.091   7.198  19.731  0.00  0.00    +0.000 C 
ATOM      3  O   UNL     1       1.850   6.371  20.606  0.00  0.00    +0.000 OA
ATOM      4  H   UNL     1       2.760   7.780  17.867  0.00  0.00    +0.000 HD
ENDROOT
BRANCH   1   6
ATOM      5  C   UNL     1       4.269   5.579  17.132  0.00  0.00    +0.000 A 
ATOM      6  C   UNL     1       3.205   5.778  18.009  0.00  0.00    +0.000 A 
ATOM      7  S   UNL     1       2.522   4.312  18.524  0.00  0.00    +0.000 S 
ATOM      8  C   UNL     1       3.589   3.371  17.610  0.00  0.00    +0.000 A 
ATOM      9  C   UNL     1       3.464   1.884  17.644  0.00  0.00    +0.000 C 
ATOM     10  C   UNL     1       4.499   4.148  16.915  0.00  0.00    +0.000 A 
ATOM     11  C   UNL     1       5.597   3.587  16.057  0.00  0.00    +0.000 C 
BRANCH   5  12
ATOM     12  C   UNL     1       5.110   6.618  16.531  0.00  0.00    +0.000 C 
ATOM     13  O   UNL     1       5.212   6.784  15.325  0.00  0.00    +0.000 OA
BRANCH  12  14
ATOM     14  O   UNL     1       5.858   7.315  17.447  0.00  0.00    +0.000 OA
BRANCH  14  16
ATOM     15  C   UNL     1       7.999   8.298  17.751  0.00  0.00    +0.000 C 
ATOM     16  C   UNL     1       7.261   7.023  17.385  0.00  0.00    +0.000 C 
ENDBRANCH  14  16
ENDBRANCH  12  14
ENDBRANCH   5  12
ENDBRANCH   1   6
BRANCH   2  17
ATOM     17  C   UNL     1       1.649   8.646  19.926  0.00  0.00    +0.000 C 
BRANCH  17  18
ATOM     18  O   UNL     1       1.756   9.405  18.718  0.00  0.00    +0.000 OA
BRANCH  18  19
ATOM     19  C   UNL     1       0.639  10.098  18.357  0.00  0.00    +0.000 C 
ATOM     20  O   UNL     1      -0.311   9.636  17.741  0.00  0.00    +0.000 OA
BRANCH  19  21
ATOM     21  C   UNL     1       0.775  11.549  18.782  0.00  0.00    +0.000 C 
BRANCH  21  22
ATOM     22  N   UNL     1      -0.243  11.892  19.746  0.00  0.00    +0.000 N 
ATOM     23  C   UNL     1      -1.543  12.214  19.430  0.00  0.00    +0.000 C 
ATOM     24  O   UNL     1      -2.082  12.156  18.343  0.00  0.00    +0.000 OA
ATOM     25  C   UNL     1      -2.158  12.686  20.719  0.00  0.00    +0.000 C 
ATOM     26  C   UNL     1      -3.650  12.629  20.964  0.00  0.00    +0.000 C 
ATOM     27  C   UNL     1      -3.913  13.141  22.392  0.00  0.00    +0.000 C 
ATOM     28  C   UNL     1      -3.084  12.399  23.458  0.00  0.00    +0.000 C 
ATOM     29  C   UNL     1      -1.587  12.337  23.116  0.00  0.00    +0.000 C 
ATOM     30  C   UNL     1      -1.441  11.786  21.715  0.00  0.00    +0.000 C 
ATOM     31  C   UNL     1      -0.078  11.679  21.094  0.00  0.00    +0.000 C 
ATOM     32  O   UNL     1       0.940  11.325  21.663  0.00  0.00    +0.000 OA
ENDBRANCH  21  22
ENDBRANCH  19  21
ENDBRANCH  18  19
ENDBRANCH  17  18
ENDBRANCH   2  17
TORSDOF 9
ENDMDL
MODEL 8
REMARK VINA RESULT:      -7.2      2.480     10.447
REMARK  Name = 
REMARK  12 active torsions:
REMARK  status: ('A' for Active; 'I' for Inactive)
REMARK    1  A    between atoms: C_1  and  C_2
REMARK    2  A    between atoms: C_2  and  O_3
REMARK    3  A    between atoms: O_3  and  C_4
REMARK    4  A    between atoms: C_4  and  C_6
REMARK    5  A    between atoms: C_7  and  N_8
REMARK    6  A    between atoms: C_9  and  C_11
REMARK    7  A    between atoms: C_11  and  O_12
REMARK    8  A    between atoms: O_12  and  C_13
REMARK    9  A    between atoms: C_13  and  C_15
REMARK   10  A    between atoms: C_15  and  N_16
REMARK   11  A    between atoms: C_28  and  C_29
REMARK   12  A    between atoms: C_30  and  C_31
REMARK                            x       y       z     vdW  Elec       q    Type
REMARK                         _______ _______ _______ _____ _____    ______ ____
ROOT
ATOM      1  N   UNL     1       6.535   7.683  17.130  0.00  0.00    +0.000 N 
ATOM      2  C   UNL     1       7.721   7.826  17.852  0.00  0.00    +0.000 C 
ATOM      3  O   UNL     1       8.182   7.069  18.701  0.00  0.00    +0.000 OA
ATOM      4  H   UNL     1       6.286   8.442  16.501  0.00  0.00    +0.000 HD
ENDROOT
BRANCH   1   6
ATOM      5  C   UNL     1       5.897   5.275  16.820  0.00  0.00    +0.000 A 
ATOM      6  C   UNL     1       5.658   6.602  17.170  0.00  0.00    +0.000 A 
ATOM      7  S   UNL     1       4.071   6.838  17.724  0.00  0.00    +0.000 S 
ATOM      8  C   UNL     1       3.644   5.215  17.515  0.00  0.00    +0.000 A 
ATOM      9  C   UNL     1       2.255   4.777  17.847  0.00  0.00    +0.000 C 
ATOM     10  C   UNL     1       4.701   4.457  17.043  0.00  0.00    +0.000 A 
ATOM     11  C   UNL     1       4.631   2.976  16.806  0.00  0.00    +0.000 C 
BRANCH   5  12
ATOM     12  C   UNL     1       7.165   4.713  16.346  0.00  0.00    +0.000 C 
ATOM     13  O   UNL     1       7.974   4.167  17.081  0.00  0.00    +0.000 OA
BRANCH  12  14
ATOM     14  O   UNL     1       7.408   4.955  15.017  0.00  0.00    +0.000 OA
BRANCH  14  16
ATOM     15  C   UNL     1       7.078   4.342  12.745  0.00  0.00    +0.000 C 
ATOM     16  C   UNL     1       6.469   4.324  14.135  0.00  0.00    +0.000 C 
ENDBRANCH  14  16
ENDBRANCH  12  14
ENDBRANCH   5  12
ENDBRANCH   1   6
BRANCH   2  17
ATOM     17  C   UNL     1       8.440   9.138  17.548  0.00  0.00    +0.000 C 
BRANCH  17  18
ATOM     18  O   UNL     1       8.704   9.891  18.737  0.00  0.00    +0.000 OA
BRANCH  18  19
ATOM     19  C   UNL     1       9.314  11.095  18.548  0.00  0.00    +0.000 C 
ATOM     20  O   UNL     1       9.010  11.915  17.693  0.00  0.00    +0.000 OA
BRANCH  19  21
ATOM     21  C   UNL     1      10.473  11.242  19.519  0.00  0.00    +0.000 C 
BRANCH  21  22
ATOM     22  N   UNL     1      10.275  12.389  20.372  0.00  0.00    +0.000 N 
ATOM     23  C   UNL     1      10.761  13.650  20.113  0.00  0.00    +0.000 C 
ATOM     24  O   UNL     1      11.318  14.041  19.107  0.00  0.00    +0.000 OA
ATOM     25  C   UNL     1      10.483  14.445  21.359  0.00  0.00    +0.000 C 
ATOM     26  C   UNL     1      10.355  15.952  21.337  0.00  0.00    +0.000 C 
ATOM     27  C   UNL     1      10.023  16.418  22.766  0.00  0.00    +0.000 C 
ATOM     28  C   UNL     1       8.794  15.703  23.361  0.00  0.00    +0.000 C 
ATOM     29  C   UNL     1       8.875  14.173  23.238  0.00  0.00    +0.000 C 
ATOM     30  C   UNL     1       9.164  13.825  21.795  0.00  0.00    +0.000 C 
ATOM     31  C   UNL     1       9.362  12.390  21.399  0.00  0.00    +0.000 C 
ATOM     32  O   UNL     1       8.722  11.440  21.815  0.00  0.00    +0.000 OA
ENDBRANCH  21  22
ENDBRANCH  19  21
ENDBRANCH  18  19
ENDBRANCH  17  18
ENDBRANCH   2  17
TORSDOF 9
ENDMDL
MODEL 9
REMARK VINA RESULT:      -7.2      6.144      7.819
REMARK  Name = 
REMARK  12 active torsions:
REMARK  status: ('A' for Active; 'I' for Inactive)
REMARK    1  A    between atoms: C_1  and  C_2
REMARK    2  A    between atoms: C_2  and  O_3
REMARK    3  A    between atoms: O_3  and  C_4
REMARK    4  A    between atoms: C_4  and  C_6
REMARK    5  A    between atoms: C_7  and  N_8
REMARK    6  A    between atoms: C_9  and  C_11
REMARK    7  A    between atoms: C_11  and  O_12
REMARK    8  A    between atoms: O_12  and  C_13
REMARK    9  A    between atoms: C_13  and  C_15
REMARK   10  A    between atoms: C_15  and  N_16
REMARK   11  A    between atoms: C_28  and  C_29
REMARK   12  A    between atoms: C_30  and  C_31
REMARK                            x       y       z     vdW  Elec       q    Type
REMARK                         _______ _______ _______ _____ _____    ______ ____
ROOT
ATOM      1  N   UNL     1       0.640   9.220  18.740  0.00  0.00    +0.000 N 
ATOM      2  C   UNL     1       1.853   9.431  18.084  0.00  0.00    +0.000 C 
ATOM      3  O   UNL     1       2.198  10.417  17.438  0.00  0.00    +0.000 OA
ATOM      4  H   UNL     1       0.510   8.315  19.185  0.00  0.00    +0.000 HD
ENDROOT
BRANCH   1   6
ATOM      5  C   UNL     1      -0.561  11.170  19.769  0.00  0.00    +0.000 A 
ATOM      6  C   UNL     1      -0.414  10.123  18.861  0.00  0.00    +0.000 A 
ATOM      7  S   UNL     1      -1.726  10.021  17.790  0.00  0.00    +0.000 S 
ATOM      8  C   UNL     1      -2.533  11.335  18.484  0.00  0.00    +0.000 A 
ATOM      9  C   UNL     1      -3.858  11.751  17.936  0.00  0.00    +0.000 C 
ATOM     10  C   UNL     1      -1.813  11.893  19.526  0.00  0.00    +0.000 A 
ATOM     11  C   UNL     1      -2.258  13.100  20.300  0.00  0.00    +0.000 C 
BRANCH   5  12
ATOM     12  C   UNL     1       0.399  11.571  20.801  0.00  0.00    +0.000 C 
ATOM     13  O   UNL     1       1.570  11.830  20.566  0.00  0.00    +0.000 OA
BRANCH  12  14
ATOM     14  O   UNL     1      -0.114  11.521  22.073  0.00  0.00    +0.000 OA
BRANCH  14  16
ATOM     15  C   UNL     1       0.582   9.405  22.898  0.00  0.00    +0.000 C 
ATOM     16  C   UNL     1      -0.610  10.227  22.444  0.00  0.00    +0.000 C 
ENDBRANCH  14  16
ENDBRANCH  12  14
ENDBRANCH   5  12
ENDBRANCH   1   6
BRANCH   2  17
ATOM     17  C   UNL     1       2.783   8.223  18.164  0.00  0.00    +0.000 C 
BRANCH  17  18
ATOM     18  O   UNL     1       2.062   7.005  18.370  0.00  0.00    +0.000 OA
BRANCH  18  19
ATOM     19  C   UNL     1       2.184   6.451  19.609  0.00  0.00    +0.000 C 
ATOM     20  O   UNL     1       1.974   7.030  20.665  0.00  0.00    +0.000 OA
BRANCH  19  21
ATOM     21  C   UNL     1       2.680   5.021  19.486  0.00  0.00    +0.000 C 
BRANCH  21  22
ATOM     22  N   UNL     1       3.680   4.919  18.452  0.00  0.00    +0.000 N 
ATOM     23  C   UNL     1       5.010   5.234  18.615  0.00  0.00    +0.000 C 
ATOM     24  O   UNL     1       5.585   5.527  19.644  0.00  0.00    +0.000 OA
ATOM     25  C   UNL     1       5.605   5.167  17.236  0.00  0.00    +0.000 C 
ATOM     26  C   UNL     1       7.080   4.915  17.009  0.00  0.00    +0.000 C 
ATOM     27  C   UNL     1       7.322   4.862  15.490  0.00  0.00    +0.000 C 
ATOM     28  C   UNL     1       6.405   3.853  14.771  0.00  0.00    +0.000 C 
ATOM     29  C   UNL     1       4.922   4.030  15.130  0.00  0.00    +0.000 C 
ATOM     30  C   UNL     1       4.793   4.028  16.638  0.00  0.00    +0.000 C 
ATOM     31  C   UNL     1       3.451   4.252  17.272  0.00  0.00    +0.000 C 
ATOM     32  O   UNL     1       2.391   3.796  16.880  0.00  0.00    +0.000 OA
ENDBRANCH  21  22
ENDBRANCH  19  21
ENDBRANCH  18  19
ENDBRANCH  17  18
ENDBRANCH   2  17
TORSDOF 9
ENDMDL
