MODEL 1
REMARK VINA RESULT:      -6.8      0.000      0.000
REMARK  Name = 
REMARK  16 active torsions:
REMARK  status: ('A' for Active; 'I' for Inactive)
REMARK    1  A    between atoms: C_1  and  C_2
REMARK    2  A    between atoms: C_2  and  O_3
REMARK    3  A    between atoms: O_3  and  C_4
REMARK    4  A    between atoms: C_4  and  C_6
REMARK    5  A    between atoms: N_8  and  C_9
REMARK    6  A    between atoms: C_9  and  C_10
REMARK    7  A    between atoms: C_13  and  O_14
REMARK    8  A    between atoms: O_14  and  C_15
REMARK    9  A    between atoms: C_16  and  O_17
REMARK   10  A    between atoms: O_17  and  C_18
REMARK   11  A    between atoms: C_21  and  C_22
REMARK   12  A    between atoms: C_22  and  O_24
REMARK   13  A    between atoms: O_24  and  C_25
REMARK   14  A    between atoms: C_25  and  C_26
REMARK   15  A    between atoms: C_27  and  C_28
REMARK   16  A    between atoms: C_32  and  N_33
REMARK                            x       y       z     vdW  Elec       q    Type
REMARK                         _______ _______ _______ _____ _____    ______ ____
ROOT
ATOM      1  C   UNL     1       4.522   6.254  17.678  0.00  0.00    +0.000 C 
ATOM      2  C   UNL     1       3.907   7.404  17.341  0.00  0.00    +0.000 C 
ATOM      3  N   UNL     1       2.779   7.908  17.981  0.00  0.00    +0.000 N 
ATOM      4  C   UNL     1       2.130   7.091  18.896  0.00  0.00    +0.000 C 
ATOM      5  C   UNL     1       2.628   5.922  19.341  0.00  0.00    +0.000 C 
ATOM      6  C   UNL     1       4.010   5.448  18.880  0.00  0.00    +0.000 C 
ENDROOT
BRANCH   6   7
ATOM      7  C   UNL     1       4.066   3.938  18.696  0.00  0.00    +0.000 A 
ATOM      8  C   UNL     1       3.501   3.316  17.574  0.00  0.00    +0.000 A 
ATOM      9  C   UNL     1       3.527   1.926  17.447  0.00  0.00    +0.000 A 
ATOM     10  C   UNL     1       4.116   1.139  18.438  0.00  0.00    +0.000 A 
ATOM     11  C   UNL     1       4.692   1.752  19.559  0.00  0.00    +0.000 A 
ATOM     12  C   UNL     1       4.676   3.142  19.690  0.00  0.00    +0.000 A 
BRANCH  11  13
ATOM     13  N   UNL     1       5.295   0.928  20.614  0.00  0.00    +0.000 N 
ATOM     14  O   UNL     1       5.347   1.408  21.762  0.00  0.00    +0.000 OA
ATOM     15  O   UNL     1       5.717  -0.194  20.306  0.00  0.00    +0.000 OA
ENDBRANCH  11  13
ENDBRANCH   6   7
BRANCH   1  16
ATOM     16  C   UNL     1       5.708   5.804  16.899  0.00  0.00    +0.000 C 
ATOM     17  O   UNL     1       6.785   5.496  17.383  0.00  0.00    +0.000 OA
BRANCH  16  18
ATOM     18  O   UNL     1       5.433   5.789  15.565  0.00  0.00    +0.000 OA
BRANCH  18  20
ATOM     19  C   UNL     1       5.708   3.930  14.039  0.00  0.00    +0.000 C 
ATOM     20  C   UNL     1       6.377   5.108  14.725  0.00  0.00    +0.000 C 
ENDBRANCH  18  20
ENDBRANCH  16  18
ENDBRANCH   1  16
BRANCH   5  21
ATOM     21  C   UNL     1       1.854   5.135  20.334  0.00  0.00    +0.000 C 
ATOM     22  O   UNL     1       2.042   5.175  21.539  0.00  0.00    +0.000 OA
BRANCH  21  23
ATOM     23  O   UNL     1       0.922   4.372  19.702  0.00  0.00    +0.000 OA
BRANCH  23  24
ATOM     24  C   UNL     1       0.855   2.989  20.074  0.00  0.00    +0.000 C 
ATOM     25  C   UNL     1       0.438   2.144  18.886  0.00  0.00    +0.000 C 
ENDBRANCH  23  24
ENDBRANCH  21  23
ENDBRANCH   5  21
BRANCH   3  26
ATOM     26  C   UNL     1       2.341   9.299  17.781  0.00  0.00    +0.000 C 
BRANCH  26  27
ATOM     27  C   UNL     1       1.360   9.761  18.832  0.00  0.00    +0.000 A 
ATOM     28  C   UNL     1       1.429   9.274  20.137  0.00  0.00    +0.000 A 
ATOM     29  C   UNL     1       0.563   9.770  21.111  0.00  0.00    +0.000 A 
ATOM     30  C   UNL     1      -0.391  10.753  20.806  0.00  0.00    +0.000 A 
ATOM     31  C   UNL     1      -0.493  11.229  19.486  0.00  0.00    +0.000 A 
ATOM     32  C   UNL     1       0.383  10.718  18.515  0.00  0.00    +0.000 A 
BRANCH  30  33
ATOM     33  O   UNL     1      -1.112  11.127  21.910  0.00  0.00    +0.000 OA
ATOM     34  C   UNL     1      -0.954  10.396  23.115  0.00  0.00    +0.000 C 
ENDBRANCH  30  33
BRANCH  31  35
ATOM     35  O   UNL     1      -1.435  12.181  19.204  0.00  0.00    +0.000 OA
ATOM     36  C   UNL     1      -2.781  11.769  19.013  0.00  0.00    +0.000 C 
ENDBRANCH  31  35
ENDBRANCH  26  27
ENDBRANCH   3  26
TORSDOF 12
ENDMDL
MODEL 2
REMARK VINA RESULT:      -6.8      3.203      9.344
REMARK  Name = 
REMARK  16 active torsions:
REMARK  status: ('A' for Active; 'I' for Inactive)
REMARK    1  A    between atoms: C_1  and  C_2
REMARK    2  A    between atoms: C_2  and  O_3
REMARK    3  A    between atoms: O_3  and  C_4
REMARK    4  A    between atoms: C_4  and  C_6
REMARK    5  A    between atoms: N_8  and  C_9
REMARK    6  A    between atoms: C_9  and  C_10
REMARK    7  A    between atoms: C_13  and  O_14
REMARK    8  A    between atoms: O_14  and  C_15
REMARK    9  A    between atoms: C_16  and  O_17
REMARK   10  A    between atoms: O_17  and  C_18
REMARK   11  A    between atoms: C_21  and  C_22
REMARK   12  A    between atoms: C_22  and  O_24
REMARK   13  A    between atoms: O_24  and  C_25
REMARK   14  A    between atoms: C_25  and  C_26
REMARK   15  A    between atoms: C_27  and  C_28
REMARK   16  A    between atoms: C_32  and  N_33
REMARK                            x       y       z     vdW  Elec       q    Type
REMARK                         _______ _______ _______ _____ _____    ______ ____
ROOT
ATOM      1  C   UNL     1       1.396  11.730  19.259  0.00  0.00    +0.000 C 
ATOM      2  C   UNL     1       2.085  10.606  18.986  0.00  0.00    +0.000 C 
ATOM      3  N   UNL     1       1.569   9.519  18.288  0.00  0.00    +0.000 N 
ATOM      4  C   UNL     1       0.208   9.504  18.020  0.00  0.00    +0.000 C 
ATOM      5  C   UNL     1      -0.607  10.556  18.224  0.00  0.00    +0.000 C 
ATOM      6  C   UNL     1      -0.037  11.885  18.731  0.00  0.00    +0.000 C 
ENDROOT
BRANCH   6   7
ATOM      7  C   UNL     1      -0.988  12.587  19.689  0.00  0.00    +0.000 A 
ATOM      8  C   UNL     1      -1.437  13.893  19.451  0.00  0.00    +0.000 A 
ATOM      9  C   UNL     1      -2.275  14.534  20.365  0.00  0.00    +0.000 A 
ATOM     10  C   UNL     1      -2.677  13.877  21.530  0.00  0.00    +0.000 A 
ATOM     11  C   UNL     1      -2.242  12.568  21.774  0.00  0.00    +0.000 A 
ATOM     12  C   UNL     1      -1.409  11.919  20.860  0.00  0.00    +0.000 A 
BRANCH  11  13
ATOM     13  N   UNL     1      -2.646  11.880  23.006  0.00  0.00    +0.000 N 
ATOM     14  O   UNL     1      -3.760  12.164  23.486  0.00  0.00    +0.000 OA
ATOM     15  O   UNL     1      -1.862  11.059  23.499  0.00  0.00    +0.000 OA
ENDBRANCH  11  13
ENDBRANCH   6   7
BRANCH   1  16
ATOM     16  C   UNL     1       2.050  12.817  20.040  0.00  0.00    +0.000 C 
ATOM     17  O   UNL     1       2.195  12.816  21.251  0.00  0.00    +0.000 OA
BRANCH  16  18
ATOM     18  O   UNL     1       2.458  13.822  19.218  0.00  0.00    +0.000 OA
BRANCH  18  20
ATOM     19  C   UNL     1       2.071  16.076  18.421  0.00  0.00    +0.000 C 
ATOM     20  C   UNL     1       2.128  15.158  19.629  0.00  0.00    +0.000 C 
ENDBRANCH  18  20
ENDBRANCH  16  18
ENDBRANCH   1  16
BRANCH   5  21
ATOM     21  C   UNL     1      -2.048  10.435  17.888  0.00  0.00    +0.000 C 
ATOM     22  O   UNL     1      -2.802   9.612  18.383  0.00  0.00    +0.000 OA
BRANCH  21  23
ATOM     23  O   UNL     1      -2.391  11.364  16.956  0.00  0.00    +0.000 OA
BRANCH  23  24
ATOM     24  C   UNL     1      -3.580  11.111  16.196  0.00  0.00    +0.000 C 
ATOM     25  C   UNL     1      -4.777  11.766  16.860  0.00  0.00    +0.000 C 
ENDBRANCH  23  24
ENDBRANCH  21  23
ENDBRANCH   5  21
BRANCH   3  26
ATOM     26  C   UNL     1       2.447   8.464  17.753  0.00  0.00    +0.000 C 
BRANCH  26  27
ATOM     27  C   UNL     1       2.251   7.135  18.442  0.00  0.00    +0.000 A 
ATOM     28  C   UNL     1       2.166   7.056  19.832  0.00  0.00    +0.000 A 
ATOM     29  C   UNL     1       1.908   5.830  20.444  0.00  0.00    +0.000 A 
ATOM     30  C   UNL     1       1.736   4.659  19.689  0.00  0.00    +0.000 A 
ATOM     31  C   UNL     1       1.851   4.720  18.289  0.00  0.00    +0.000 A 
ATOM     32  C   UNL     1       2.115   5.960  17.686  0.00  0.00    +0.000 A 
BRANCH  30  33
ATOM     33  O   UNL     1       1.456   3.576  20.481  0.00  0.00    +0.000 OA
ATOM     34  C   UNL     1       2.307   3.287  21.578  0.00  0.00    +0.000 C 
ENDBRANCH  30  33
BRANCH  31  35
ATOM     35  O   UNL     1       1.689   3.567  17.568  0.00  0.00    +0.000 OA
ATOM     36  C   UNL     1       2.689   2.562  17.661  0.00  0.00    +0.000 C 
ENDBRANCH  31  35
ENDBRANCH  26  27
ENDBRANCH   3  26
TORSDOF 12
ENDMDL
MODEL 3
REMARK VINA RESULT:      -6.8      3.669     10.396
REMARK  Name = 
REMARK  16 active torsions:
REMARK  status: ('A' for Active; 'I' for Inactive)
REMARK    1  A    between atoms: C_1  and  C_2
REMARK    2  A    between atoms: C_2  and  O_3
REMARK    3  A    between atoms: O_3  and  C_4
REMARK    4  A    between atoms: C_4  and  C_6
REMARK    5  A    between atoms: N_8  and  C_9
REMARK    6  A    between atoms: C_9  and  C_10
REMARK    7  A    between atoms: C_13  and  O_14
REMARK    8  A    between atoms: O_14  and  C_15
REMARK    9  A    between atoms: C_16  and  O_17
REMARK   10  A    between atoms: O_17  and  C_18
REMARK   11  A    between atoms: C_21  and  C_22
REMARK   12  A    between atoms: C_22  and  O_24
REMARK   13  A    between atoms: O_24  and  C_25
REMARK   14  A    between atoms: C_25  and  C_26
REMARK   15  A    between atoms: C_27  and  C_28
REMARK   16  A    between atoms: C_32  and  N_33
REMARK                            x       y       z     vdW  Elec       q    Type
REMARK                         _______ _______ _______ _____ _____    ______ ____
ROOT
ATOM      1  C   UNL     1       1.238  12.428  20.421  0.00  0.00    +0.000 C 
ATOM      2  C   UNL     1       1.319  11.182  20.924  0.00  0.00    +0.000 C 
ATOM      3  N   UNL     1       0.416  10.161  20.640  0.00  0.00    +0.000 N 
ATOM      4  C   UNL     1      -0.743  10.490  19.952  0.00  0.00    +0.000 C 
ATOM      5  C   UNL     1      -0.959  11.689  19.380  0.00  0.00    +0.000 C 
ATOM      6  C   UNL     1       0.127  12.768  19.418  0.00  0.00    +0.000 C 
ENDROOT
BRANCH   6   7
ATOM      7  C   UNL     1      -0.459  14.164  19.577  0.00  0.00    +0.000 A 
ATOM      8  C   UNL     1      -1.401  14.455  20.573  0.00  0.00    +0.000 A 
ATOM      9  C   UNL     1      -1.956  15.732  20.673  0.00  0.00    +0.000 A 
ATOM     10  C   UNL     1      -1.577  16.736  19.780  0.00  0.00    +0.000 A 
ATOM     11  C   UNL     1      -0.629  16.458  18.786  0.00  0.00    +0.000 A 
ATOM     12  C   UNL     1      -0.064  15.185  18.684  0.00  0.00    +0.000 A 
BRANCH  11  13
ATOM     13  N   UNL     1      -0.242  17.504  17.832  0.00  0.00    +0.000 N 
ATOM     14  O   UNL     1       0.961  17.583  17.518  0.00  0.00    +0.000 OA
ATOM     15  O   UNL     1      -1.128  18.248  17.391  0.00  0.00    +0.000 OA
ENDBRANCH  11  13
ENDBRANCH   6   7
BRANCH   1  16
ATOM     16  C   UNL     1       2.251  13.444  20.821  0.00  0.00    +0.000 C 
ATOM     17  O   UNL     1       2.284  14.009  21.902  0.00  0.00    +0.000 OA
BRANCH  16  18
ATOM     18  O   UNL     1       3.135  13.668  19.810  0.00  0.00    +0.000 OA
BRANCH  18  20
ATOM     19  C   UNL     1       3.635  15.203  18.006  0.00  0.00    +0.000 C 
ATOM     20  C   UNL     1       3.417  15.041  19.500  0.00  0.00    +0.000 C 
ENDBRANCH  18  20
ENDBRANCH  16  18
ENDBRANCH   1  16
BRANCH   5  21
ATOM     21  C   UNL     1      -2.232  11.927  18.654  0.00  0.00    +0.000 C 
ATOM     22  O   UNL     1      -3.311  12.104  19.199  0.00  0.00    +0.000 OA
BRANCH  21  23
ATOM     23  O   UNL     1      -2.015  11.915  17.312  0.00  0.00    +0.000 OA
BRANCH  23  24
ATOM     24  C   UNL     1      -2.378  10.719  16.608  0.00  0.00    +0.000 C 
ATOM     25  C   UNL     1      -3.715  10.902  15.915  0.00  0.00    +0.000 C 
ENDBRANCH  23  24
ENDBRANCH  21  23
ENDBRANCH   5  21
BRANCH   3  26
ATOM     26  C   UNL     1       0.722   8.756  20.960  0.00  0.00    +0.000 C 
BRANCH  26  27
ATOM     27  C   UNL     1       1.591   8.094  19.919  0.00  0.00    +0.000 A 
ATOM     28  C   UNL     1       1.826   8.708  18.688  0.00  0.00    +0.000 A 
ATOM     29  C   UNL     1       2.693   8.116  17.771  0.00  0.00    +0.000 A 
ATOM     30  C   UNL     1       3.337   6.902  18.054  0.00  0.00    +0.000 A 
ATOM     31  C   UNL     1       3.084   6.257  19.278  0.00  0.00    +0.000 A 
ATOM     32  C   UNL     1       2.205   6.862  20.191  0.00  0.00    +0.000 A 
BRANCH  30  33
ATOM     33  O   UNL     1       4.172   6.516  17.037  0.00  0.00    +0.000 OA
ATOM     34  C   UNL     1       5.544   6.869  17.103  0.00  0.00    +0.000 C 
ENDBRANCH  30  33
BRANCH  31  35
ATOM     35  O   UNL     1       3.714   5.068  19.534  0.00  0.00    +0.000 OA
ATOM     36  C   UNL     1       2.922   3.897  19.674  0.00  0.00    +0.000 C 
ENDBRANCH  31  35
ENDBRANCH  26  27
ENDBRANCH   3  26
TORSDOF 12
ENDMDL
MODEL 4
REMARK VINA RESULT:      -6.7      2.886      9.542
REMARK  Name = 
REMARK  16 active torsions:
REMARK  status: ('A' for Active; 'I' for Inactive)
REMARK    1  A    between atoms: C_1  and  C_2
REMARK    2  A    between atoms: C_2  and  O_3
REMARK    3  A    between atoms: O_3  and  C_4
REMARK    4  A    between atoms: C_4  and  C_6
REMARK    5  A    between atoms: N_8  and  C_9
REMARK    6  A    between atoms: C_9  and  C_10
REMARK    7  A    between atoms: C_13  and  O_14
REMARK    8  A    between atoms: O_14  and  C_15
REMARK    9  A    between atoms: C_16  and  O_17
REMARK   10  A    between atoms: O_17  and  C_18
REMARK   11  A    between atoms: C_21  and  C_22
REMARK   12  A    between atoms: C_22  and  O_24
REMARK   13  A    between atoms: O_24  and  C_25
REMARK   14  A    between atoms: C_25  and  C_26
REMARK   15  A    between atoms: C_27  and  C_28
REMARK   16  A    between atoms: C_32  and  N_33
REMARK                            x       y       z     vdW  Elec       q    Type
REMARK                         _______ _______ _______ _____ _____    ______ ____
ROOT
ATOM      1  C   UNL     1      -1.068  10.239  18.323  0.00  0.00    +0.000 C 
ATOM      2  C   UNL     1      -0.033   9.618  17.726  0.00  0.00    +0.000 C 
ATOM      3  N   UNL     1       1.232   9.483  18.289  0.00  0.00    +0.000 N 
ATOM      4  C   UNL     1       1.507  10.190  19.450  0.00  0.00    +0.000 C 
ATOM      5  C   UNL     1       0.574  10.846  20.166  0.00  0.00    +0.000 C 
ATOM      6  C   UNL     1      -0.897  10.794  19.744  0.00  0.00    +0.000 C 
ENDROOT
BRANCH   6   7
ATOM      7  C   UNL     1      -1.611  12.115  19.993  0.00  0.00    +0.000 A 
ATOM      8  C   UNL     1      -1.102  13.326  19.506  0.00  0.00    +0.000 A 
ATOM      9  C   UNL     1      -1.751  14.531  19.784  0.00  0.00    +0.000 A 
ATOM     10  C   UNL     1      -2.918  14.542  20.551  0.00  0.00    +0.000 A 
ATOM     11  C   UNL     1      -3.440  13.334  21.035  0.00  0.00    +0.000 A 
ATOM     12  C   UNL     1      -2.800  12.125  20.756  0.00  0.00    +0.000 A 
BRANCH  11  13
ATOM     13  N   UNL     1      -4.655  13.342  21.859  0.00  0.00    +0.000 N 
ATOM     14  O   UNL     1      -4.970  14.411  22.413  0.00  0.00    +0.000 OA
ATOM     15  O   UNL     1      -5.299  12.289  21.957  0.00  0.00    +0.000 OA
ENDBRANCH  11  13
ENDBRANCH   6   7
BRANCH   1  16
ATOM     16  C   UNL     1      -2.369  10.344  17.607  0.00  0.00    +0.000 C 
ATOM     17  O   UNL     1      -3.394   9.767  17.933  0.00  0.00    +0.000 OA
BRANCH  16  18
ATOM     18  O   UNL     1      -2.261  11.167  16.528  0.00  0.00    +0.000 OA
BRANCH  18  20
ATOM     19  C   UNL     1      -2.943  10.027  14.504  0.00  0.00    +0.000 C 
ATOM     20  C   UNL     1      -3.303  11.072  15.544  0.00  0.00    +0.000 C 
ENDBRANCH  18  20
ENDBRANCH  16  18
ENDBRANCH   1  16
BRANCH   5  21
ATOM     21  C   UNL     1       0.978  11.559  21.404  0.00  0.00    +0.000 C 
ATOM     22  O   UNL     1       1.718  12.530  21.426  0.00  0.00    +0.000 OA
BRANCH  21  23
ATOM     23  O   UNL     1       0.409  10.971  22.490  0.00  0.00    +0.000 OA
BRANCH  23  24
ATOM     24  C   UNL     1       0.762   9.605  22.747  0.00  0.00    +0.000 C 
ATOM     25  C   UNL     1      -0.462   8.716  22.638  0.00  0.00    +0.000 C 
ENDBRANCH  23  24
ENDBRANCH  21  23
ENDBRANCH   5  21
BRANCH   3  26
ATOM     26  C   UNL     1       2.220   8.539  17.738  0.00  0.00    +0.000 C 
BRANCH  26  27
ATOM     27  C   UNL     1       2.241   7.220  18.471  0.00  0.00    +0.000 A 
ATOM     28  C   UNL     1       1.932   7.152  19.830  0.00  0.00    +0.000 A 
ATOM     29  C   UNL     1       1.882   5.915  20.470  0.00  0.00    +0.000 A 
ATOM     30  C   UNL     1       2.144   4.723  19.777  0.00  0.00    +0.000 A 
ATOM     31  C   UNL     1       2.488   4.780  18.414  0.00  0.00    +0.000 A 
ATOM     32  C   UNL     1       2.538   6.033  17.783  0.00  0.00    +0.000 A 
BRANCH  30  33
ATOM     33  O   UNL     1       2.005   3.621  20.581  0.00  0.00    +0.000 OA
ATOM     34  C   UNL     1       3.142   2.817  20.848  0.00  0.00    +0.000 C 
ENDBRANCH  30  33
BRANCH  31  35
ATOM     35  O   UNL     1       2.749   3.609  17.755  0.00  0.00    +0.000 OA
ATOM     36  C   UNL     1       4.026   3.436  17.157  0.00  0.00    +0.000 C 
ENDBRANCH  31  35
ENDBRANCH  26  27
ENDBRANCH   3  26
TORSDOF 12
ENDMDL
MODEL 5
REMARK VINA RESULT:      -6.6      1.283      1.649
REMARK  Name = 
REMARK  16 active torsions:
REMARK  status: ('A' for Active; 'I' for Inactive)
REMARK    1  A    between atoms: C_1  and  C_2
REMARK    2  A    between atoms: C_2  and  O_3
REMARK    3  A    between atoms: O_3  and  C_4
REMARK    4  A    between atoms: C_4  and  C_6
REMARK    5  A    between atoms: N_8  and  C_9
REMARK    6  A    between atoms: C_9  and  C_10
REMARK    7  A    between atoms: C_13  and  O_14
REMARK    8  A    between atoms: O_14  and  C_15
REMARK    9  A    between atoms: C_16  and  O_17
REMARK   10  A    between atoms: O_17  and  C_18
REMARK   11  A    between atoms: C_21  and  C_22
REMARK   12  A    between atoms: C_22  and  O_24
REMARK   13  A    between atoms: O_24  and  C_25
REMARK   14  A    between atoms: C_25  and  C_26
REMARK   15  A    between atoms: C_27  and  C_28
REMARK   16  A    between atoms: C_32  and  N_33
REMARK                            x       y       z     vdW  Elec       q    Type
REMARK                         _______ _______ _______ _____ _____    ______ ____
ROOT
ATOM      1  C   UNL     1       3.996   6.691  17.510  0.00  0.00    +0.000 C 
ATOM      2  C   UNL     1       3.319   7.835  17.300  0.00  0.00    +0.000 C 
ATOM      3  N   UNL     1       2.319   8.322  18.136  0.00  0.00    +0.000 N 
ATOM      4  C   UNL     1       1.852   7.490  19.144  0.00  0.00    +0.000 C 
ATOM      5  C   UNL     1       2.433   6.324  19.482  0.00  0.00    +0.000 C 
ATOM      6  C   UNL     1       3.716   5.870  18.777  0.00  0.00    +0.000 C 
ENDROOT
BRANCH   6   7
ATOM      7  C   UNL     1       3.752   4.362  18.571  0.00  0.00    +0.000 A 
ATOM      8  C   UNL     1       3.125   3.757  17.475  0.00  0.00    +0.000 A 
ATOM      9  C   UNL     1       3.135   2.368  17.329  0.00  0.00    +0.000 A 
ATOM     10  C   UNL     1       3.773   1.566  18.277  0.00  0.00    +0.000 A 
ATOM     11  C   UNL     1       4.411   2.162  19.373  0.00  0.00    +0.000 A 
ATOM     12  C   UNL     1       4.411   3.551  19.521  0.00  0.00    +0.000 A 
BRANCH  11  13
ATOM     13  N   UNL     1       5.067   1.322  20.383  0.00  0.00    +0.000 N 
ATOM     14  O   UNL     1       5.524   0.225  20.013  0.00  0.00    +0.000 OA
ATOM     15  O   UNL     1       5.129   1.749  21.544  0.00  0.00    +0.000 OA
ENDBRANCH  11  13
ENDBRANCH   6   7
BRANCH   1  16
ATOM     16  C   UNL     1       5.028   6.260  16.528  0.00  0.00    +0.000 C 
ATOM     17  O   UNL     1       5.038   6.565  15.346  0.00  0.00    +0.000 OA
BRANCH  16  18
ATOM     18  O   UNL     1       5.961   5.467  17.124  0.00  0.00    +0.000 OA
BRANCH  18  20
ATOM     19  C   UNL     1       6.205   3.660  15.532  0.00  0.00    +0.000 C 
ATOM     20  C   UNL     1       6.891   4.807  16.252  0.00  0.00    +0.000 C 
ENDBRANCH  18  20
ENDBRANCH  16  18
ENDBRANCH   1  16
BRANCH   5  21
ATOM     21  C   UNL     1       1.858   5.521  20.589  0.00  0.00    +0.000 C 
ATOM     22  O   UNL     1       2.368   5.406  21.692  0.00  0.00    +0.000 OA
BRANCH  21  23
ATOM     23  O   UNL     1       0.694   4.940  20.190  0.00  0.00    +0.000 OA
BRANCH  23  24
ATOM     24  C   UNL     1       0.718   3.522  19.977  0.00  0.00    +0.000 C 
ATOM     25  C   UNL     1       1.205   2.811  21.225  0.00  0.00    +0.000 C 
ENDBRANCH  23  24
ENDBRANCH  21  23
ENDBRANCH   5  21
BRANCH   3  26
ATOM     26  C   UNL     1       1.838   9.710  18.030  0.00  0.00    +0.000 C 
BRANCH  26  27
ATOM     27  C   UNL     1       1.191  10.203  19.301  0.00  0.00    +0.000 A 
ATOM     28  C   UNL     1       0.301   9.396  20.011  0.00  0.00    +0.000 A 
ATOM     29  C   UNL     1      -0.226   9.840  21.222  0.00  0.00    +0.000 A 
ATOM     30  C   UNL     1       0.114  11.096  21.749  0.00  0.00    +0.000 A 
ATOM     31  C   UNL     1       0.985  11.932  21.028  0.00  0.00    +0.000 A 
ATOM     32  C   UNL     1       1.506  11.474  19.808  0.00  0.00    +0.000 A 
BRANCH  30  33
ATOM     33  O   UNL     1      -0.482  11.321  22.963  0.00  0.00    +0.000 OA
ATOM     34  C   UNL     1      -1.866  11.628  23.002  0.00  0.00    +0.000 C 
ENDBRANCH  30  33
BRANCH  31  35
ATOM     35  O   UNL     1       1.300  13.158  21.553  0.00  0.00    +0.000 OA
ATOM     36  C   UNL     1       1.582  14.226  20.660  0.00  0.00    +0.000 C 
ENDBRANCH  31  35
ENDBRANCH  26  27
ENDBRANCH   3  26
TORSDOF 12
ENDMDL
MODEL 6
REMARK VINA RESULT:      -6.6      2.144      4.536
REMARK  Name = 
REMARK  16 active torsions:
REMARK  status: ('A' for Active; 'I' for Inactive)
REMARK    1  A    between atoms: C_1  and  C_2
REMARK    2  A    between atoms: C_2  and  O_3
REMARK    3  A    between atoms: O_3  and  C_4
REMARK    4  A    between atoms: C_4  and  C_6
REMARK    5  A    between atoms: N_8  and  C_9
REMARK    6  A    between atoms: C_9  and  C_10
REMARK    7  A    between atoms: C_13  and  O_14
REMARK    8  A    between atoms: O_14  and  C_15
REMARK    9  A    between atoms: C_16  and  O_17
REMARK   10  A    between atoms: O_17  and  C_18
REMARK   11  A    between atoms: C_21  and  C_22
REMARK   12  A    between atoms: C_22  and  O_24
REMARK   13  A    between atoms: O_24  and  C_25
REMARK   14  A    between atoms: C_25  and  C_26
REMARK   15  A    between atoms: C_27  and  C_28
REMARK   16  A    between atoms: C_32  and  N_33
REMARK                            x       y       z     vdW  Elec       q    Type
REMARK                         _______ _______ _______ _____ _____    ______ ____
ROOT
ATOM      1  C   UNL     1       2.009   5.370  20.053  0.00  0.00    +0.000 C 
ATOM      2  C   UNL     1       1.359   6.096  20.981  0.00  0.00    +0.000 C 
ATOM      3  N   UNL     1       1.083   7.455  20.863  0.00  0.00    +0.000 N 
ATOM      4  C   UNL     1       1.675   8.151  19.819  0.00  0.00    +0.000 C 
ATOM      5  C   UNL     1       2.343   7.562  18.810  0.00  0.00    +0.000 C 
ATOM      6  C   UNL     1       2.438   6.035  18.737  0.00  0.00    +0.000 C 
ENDROOT
BRANCH   6   7
ATOM      7  C   UNL     1       3.787   5.570  18.207  0.00  0.00    +0.000 A 
ATOM      8  C   UNL     1       3.887   4.761  17.067  0.00  0.00    +0.000 A 
ATOM      9  C   UNL     1       5.132   4.311  16.623  0.00  0.00    +0.000 A 
ATOM     10  C   UNL     1       6.294   4.663  17.313  0.00  0.00    +0.000 A 
ATOM     11  C   UNL     1       6.205   5.480  18.449  0.00  0.00    +0.000 A 
ATOM     12  C   UNL     1       4.964   5.939  18.894  0.00  0.00    +0.000 A 
BRANCH  11  13
ATOM     13  N   UNL     1       7.422   5.837  19.189  0.00  0.00    +0.000 N 
ATOM     14  O   UNL     1       8.162   6.707  18.696  0.00  0.00    +0.000 OA
ATOM     15  O   UNL     1       7.644   5.256  20.259  0.00  0.00    +0.000 OA
ENDBRANCH  11  13
ENDBRANCH   6   7
BRANCH   1  16
ATOM     16  C   UNL     1       2.270   3.925  20.305  0.00  0.00    +0.000 C 
ATOM     17  O   UNL     1       2.922   3.486  21.238  0.00  0.00    +0.000 OA
BRANCH  16  18
ATOM     18  O   UNL     1       1.688   3.155  19.344  0.00  0.00    +0.000 OA
BRANCH  18  20
ATOM     19  C   UNL     1       3.322   1.608  18.451  0.00  0.00    +0.000 C 
ATOM     20  C   UNL     1       2.080   1.774  19.308  0.00  0.00    +0.000 C 
ENDBRANCH  18  20
ENDBRANCH  16  18
ENDBRANCH   1  16
BRANCH   5  21
ATOM     21  C   UNL     1       2.925   8.405  17.735  0.00  0.00    +0.000 C 
ATOM     22  O   UNL     1       3.257   7.985  16.637  0.00  0.00    +0.000 OA
BRANCH  21  23
ATOM     23  O   UNL     1       3.031   9.693  18.156  0.00  0.00    +0.000 OA
BRANCH  23  24
ATOM     24  C   UNL     1       1.972  10.586  17.785  0.00  0.00    +0.000 C 
ATOM     25  C   UNL     1       2.301  12.002  18.219  0.00  0.00    +0.000 C 
ENDBRANCH  23  24
ENDBRANCH  21  23
ENDBRANCH   5  21
BRANCH   3  26
ATOM     26  C   UNL     1       0.111   8.120  21.748  0.00  0.00    +0.000 C 
BRANCH  26  27
ATOM     27  C   UNL     1      -0.222   9.522  21.301  0.00  0.00    +0.000 A 
ATOM     28  C   UNL     1       0.130  10.625  22.079  0.00  0.00    +0.000 A 
ATOM     29  C   UNL     1      -0.119  11.914  21.612  0.00  0.00    +0.000 A 
ATOM     30  C   UNL     1      -0.727  12.134  20.366  0.00  0.00    +0.000 A 
ATOM     31  C   UNL     1      -1.116  11.031  19.585  0.00  0.00    +0.000 A 
ATOM     32  C   UNL     1      -0.864   9.738  20.070  0.00  0.00    +0.000 A 
BRANCH  30  33
ATOM     33  O   UNL     1      -0.845  13.470  20.082  0.00  0.00    +0.000 OA
ATOM     34  C   UNL     1      -1.962  14.184  20.586  0.00  0.00    +0.000 C 
ENDBRANCH  30  33
BRANCH  31  35
ATOM     35  O   UNL     1      -1.717  11.263  18.377  0.00  0.00    +0.000 OA
ATOM     36  C   UNL     1      -1.767  10.206  17.429  0.00  0.00    +0.000 C 
ENDBRANCH  31  35
ENDBRANCH  26  27
ENDBRANCH   3  26
TORSDOF 12
ENDMDL
MODEL 7
REMARK VINA RESULT:      -6.5      1.457      2.577
REMARK  Name = 
REMARK  16 active torsions:
REMARK  status: ('A' for Active; 'I' for Inactive)
REMARK    1  A    between atoms: C_1  and  C_2
REMARK    2  A    between atoms: C_2  and  O_3
REMARK    3  A    between atoms: O_3  and  C_4
REMARK    4  A    between atoms: C_4  and  C_6
REMARK    5  A    between atoms: N_8  and  C_9
REMARK    6  A    between atoms: C_9  and  C_10
REMARK    7  A    between atoms: C_13  and  O_14
REMARK    8  A    between atoms: O_14  and  C_15
REMARK    9  A    between atoms: C_16  and  O_17
REMARK   10  A    between atoms: O_17  and  C_18
REMARK   11  A    between atoms: C_21  and  C_22
REMARK   12  A    between atoms: C_22  and  O_24
REMARK   13  A    between atoms: O_24  and  C_25
REMARK   14  A    between atoms: C_25  and  C_26
REMARK   15  A    between atoms: C_27  and  C_28
REMARK   16  A    between atoms: C_32  and  N_33
REMARK                            x       y       z     vdW  Elec       q    Type
REMARK                         _______ _______ _______ _____ _____    ______ ____
ROOT
ATOM      1  C   UNL     1       4.142   6.833  17.471  0.00  0.00    +0.000 C 
ATOM      2  C   UNL     1       3.645   8.045  17.162  0.00  0.00    +0.000 C 
ATOM      3  N   UNL     1       2.666   8.704  17.899  0.00  0.00    +0.000 N 
ATOM      4  C   UNL     1       2.022   7.997  18.904  0.00  0.00    +0.000 C 
ATOM      5  C   UNL     1       2.412   6.782  19.333  0.00  0.00    +0.000 C 
ATOM      6  C   UNL     1       3.665   6.124  18.747  0.00  0.00    +0.000 C 
ENDROOT
BRANCH   6   7
ATOM      7  C   UNL     1       3.508   4.616  18.609  0.00  0.00    +0.000 A 
ATOM      8  C   UNL     1       2.604   4.054  17.697  0.00  0.00    +0.000 A 
ATOM      9  C   UNL     1       2.446   2.669  17.618  0.00  0.00    +0.000 A 
ATOM     10  C   UNL     1       3.190   1.827  18.447  0.00  0.00    +0.000 A 
ATOM     11  C   UNL     1       4.103   2.379  19.356  0.00  0.00    +0.000 A 
ATOM     12  C   UNL     1       4.272   3.763  19.436  0.00  0.00    +0.000 A 
BRANCH  11  13
ATOM     13  N   UNL     1       4.873   1.500  20.244  0.00  0.00    +0.000 N 
ATOM     14  O   UNL     1       5.197   0.380  19.807  0.00  0.00    +0.000 OA
ATOM     15  O   UNL     1       5.158   1.918  21.373  0.00  0.00    +0.000 OA
ENDBRANCH  11  13
ENDBRANCH   6   7
BRANCH   1  16
ATOM     16  C   UNL     1       5.171   6.217  16.588  0.00  0.00    +0.000 C 
ATOM     17  O   UNL     1       4.952   5.341  15.767  0.00  0.00    +0.000 OA
BRANCH  16  18
ATOM     18  O   UNL     1       6.397   6.757  16.827  0.00  0.00    +0.000 OA
BRANCH  18  20
ATOM     19  C   UNL     1       7.467   4.755  17.669  0.00  0.00    +0.000 C 
ATOM     20  C   UNL     1       7.132   6.212  17.933  0.00  0.00    +0.000 C 
ENDBRANCH  18  20
ENDBRANCH  16  18
ENDBRANCH   1  16
BRANCH   5  21
ATOM     21  C   UNL     1       1.656   6.122  20.427  0.00  0.00    +0.000 C 
ATOM     22  O   UNL     1       1.148   5.015  20.340  0.00  0.00    +0.000 OA
BRANCH  21  23
ATOM     23  O   UNL     1       1.617   6.928  21.522  0.00  0.00    +0.000 OA
BRANCH  23  24
ATOM     24  C   UNL     1       0.595   7.934  21.548  0.00  0.00    +0.000 C 
ATOM     25  C   UNL     1       1.048   9.122  22.377  0.00  0.00    +0.000 C 
ENDBRANCH  23  24
ENDBRANCH  21  23
ENDBRANCH   5  21
BRANCH   3  26
ATOM     26  C   UNL     1       2.389  10.137  17.699  0.00  0.00    +0.000 C 
BRANCH  26  27
ATOM     27  C   UNL     1       1.257  10.639  18.561  0.00  0.00    +0.000 A 
ATOM     28  C   UNL     1      -0.041  10.157  18.391  0.00  0.00    +0.000 A 
ATOM     29  C   UNL     1      -1.057  10.578  19.248  0.00  0.00    +0.000 A 
ATOM     30  C   UNL     1      -0.806  11.488  20.286  0.00  0.00    +0.000 A 
ATOM     31  C   UNL     1       0.492  12.006  20.449  0.00  0.00    +0.000 A 
ATOM     32  C   UNL     1       1.504  11.578  19.576  0.00  0.00    +0.000 A 
BRANCH  30  33
ATOM     33  O   UNL     1      -1.929  11.738  21.031  0.00  0.00    +0.000 OA
ATOM     34  C   UNL     1      -2.745  12.848  20.693  0.00  0.00    +0.000 C 
ENDBRANCH  30  33
BRANCH  31  35
ATOM     35  O   UNL     1       0.717  12.901  21.461  0.00  0.00    +0.000 OA
ATOM     36  C   UNL     1       1.537  14.030  21.198  0.00  0.00    +0.000 C 
ENDBRANCH  31  35
ENDBRANCH  26  27
ENDBRANCH   3  26
TORSDOF 12
ENDMDL
MODEL 8
REMARK VINA RESULT:      -6.5      3.005      9.357
REMARK  Name = 
REMARK  16 active torsions:
REMARK  status: ('A' for Active; 'I' for Inactive)
REMARK    1  A    between atoms: C_1  and  C_2
REMARK    2  A    between atoms: C_2  and  O_3
REMARK    3  A    between atoms: O_3  and  C_4
REMARK    4  A    between atoms: C_4  and  C_6
REMARK    5  A    between atoms: N_8  and  C_9
REMARK    6  A    between atoms: C_9  and  C_10
REMARK    7  A    between atoms: C_13  and  O_14
REMARK    8  A    between atoms: O_14  and  C_15
REMARK    9  A    between atoms: C_16  and  O_17
REMARK   10  A    between atoms: O_17  and  C_18
REMARK   11  A    between atoms: C_21  and  C_22
REMARK   12  A    between atoms: C_22  and  O_24
REMARK   13  A    between atoms: O_24  and  C_25
REMARK   14  A    between atoms: C_25  and  C_26
REMARK   15  A    between atoms: C_27  and  C_28
REMARK   16  A    between atoms: C_32  and  N_33
REMARK                            x       y       z     vdW  Elec       q    Type
REMARK                         _______ _______ _______ _____ _____    ______ ____
ROOT
ATOM      1  C   UNL     1       1.291  12.200  19.334  0.00  0.00    +0.000 C 
ATOM      2  C   UNL     1       1.934  11.070  18.986  0.00  0.00    +0.000 C 
ATOM      3  N   UNL     1       1.343  10.004  18.314  0.00  0.00    +0.000 N 
ATOM      4  C   UNL     1      -0.036  10.019  18.157  0.00  0.00    +0.000 C 
ATOM      5  C   UNL     1      -0.811  11.081  18.444  0.00  0.00    +0.000 C 
ATOM      6  C   UNL     1      -0.177  12.389  18.926  0.00  0.00    +0.000 C 
ENDROOT
BRANCH   6   7
ATOM      7  C   UNL     1      -1.035  13.091  19.969  0.00  0.00    +0.000 A 
ATOM      8  C   UNL     1      -1.391  14.440  19.839  0.00  0.00    +0.000 A 
ATOM      9  C   UNL     1      -2.143  15.074  20.830  0.00  0.00    +0.000 A 
ATOM     10  C   UNL     1      -2.550  14.369  21.964  0.00  0.00    +0.000 A 
ATOM     11  C   UNL     1      -2.207  13.017  22.100  0.00  0.00    +0.000 A 
ATOM     12  C   UNL     1      -1.461  12.374  21.109  0.00  0.00    +0.000 A 
BRANCH  11  13
ATOM     13  N   UNL     1      -2.614  12.276  23.300  0.00  0.00    +0.000 N 
ATOM     14  O   UNL     1      -2.083  11.169  23.502  0.00  0.00    +0.000 OA
ATOM     15  O   UNL     1      -3.461  12.791  24.042  0.00  0.00    +0.000 OA
ENDBRANCH  11  13
ENDBRANCH   6   7
BRANCH   1  16
ATOM     16  C   UNL     1       2.025  13.261  20.077  0.00  0.00    +0.000 C 
ATOM     17  O   UNL     1       2.426  13.159  21.225  0.00  0.00    +0.000 OA
BRANCH  16  18
ATOM     18  O   UNL     1       2.183  14.370  19.303  0.00  0.00    +0.000 OA
BRANCH  18  20
ATOM     19  C   UNL     1       3.483  15.660  17.719  0.00  0.00    +0.000 C 
ATOM     20  C   UNL     1       3.140  14.275  18.237  0.00  0.00    +0.000 C 
ENDBRANCH  18  20
ENDBRANCH  16  18
ENDBRANCH   1  16
BRANCH   5  21
ATOM     21  C   UNL     1      -2.276  10.990  18.223  0.00  0.00    +0.000 C 
ATOM     22  O   UNL     1      -3.061  11.899  18.442  0.00  0.00    +0.000 OA
BRANCH  21  23
ATOM     23  O   UNL     1      -2.603   9.758  17.750  0.00  0.00    +0.000 OA
BRANCH  23  24
ATOM     24  C   UNL     1      -3.479   9.711  16.615  0.00  0.00    +0.000 C 
ATOM     25  C   UNL     1      -2.766  10.223  15.379  0.00  0.00    +0.000 C 
ENDBRANCH  23  24
ENDBRANCH  21  23
ENDBRANCH   5  21
BRANCH   3  26
ATOM     26  C   UNL     1       2.155   8.944  17.692  0.00  0.00    +0.000 C 
BRANCH  26  27
ATOM     27  C   UNL     1       2.274   7.715  18.559  0.00  0.00    +0.000 A 
ATOM     28  C   UNL     1       1.872   7.739  19.895  0.00  0.00    +0.000 A 
ATOM     29  C   UNL     1       1.919   6.573  20.657  0.00  0.00    +0.000 A 
ATOM     30  C   UNL     1       2.371   5.362  20.110  0.00  0.00    +0.000 A 
ATOM     31  C   UNL     1       2.810   5.331  18.774  0.00  0.00    +0.000 A 
ATOM     32  C   UNL     1       2.761   6.514  18.019  0.00  0.00    +0.000 A 
BRANCH  30  33
ATOM     33  O   UNL     1       2.301   4.334  21.014  0.00  0.00    +0.000 OA
ATOM     34  C   UNL     1       1.262   3.377  20.888  0.00  0.00    +0.000 C 
ENDBRANCH  30  33
BRANCH  31  35
ATOM     35  O   UNL     1       3.257   4.143  18.259  0.00  0.00    +0.000 OA
ATOM     36  C   UNL     1       4.227   4.175  17.222  0.00  0.00    +0.000 C 
ENDBRANCH  31  35
ENDBRANCH  26  27
ENDBRANCH   3  26
TORSDOF 12
ENDMDL
MODEL 9
REMARK VINA RESULT:      -6.5      3.159      9.524
REMARK  Name = 
REMARK  16 active torsions:
REMARK  status: ('A' for Active; 'I' for Inactive)
REMARK    1  A    between atoms: C_1  and  C_2
REMARK    2  A    between atoms: C_2  and  O_3
REMARK    3  A    between atoms: O_3  and  C_4
REMARK    4  A    between atoms: C_4  and  C_6
REMARK    5  A    between atoms: N_8  and  C_9
REMARK    6  A    between atoms: C_9  and  C_10
REMARK    7  A    between atoms: C_13  and  O_14
REMARK    8  A    between atoms: O_14  and  C_15
REMARK    9  A    between atoms: C_16  and  O_17
REMARK   10  A    between atoms: O_17  and  C_18
REMARK   11  A    between atoms: C_21  and  C_22
REMARK   12  A    between atoms: C_22  and  O_24
REMARK   13  A    between atoms: O_24  and  C_25
REMARK   14  A    between atoms: C_25  and  C_26
REMARK   15  A    between atoms: C_27  and  C_28
REMARK   16  A    between atoms: C_32  and  N_33
REMARK                            x       y       z     vdW  Elec       q    Type
REMARK                         _______ _______ _______ _____ _____    ______ ____
ROOT
ATOM      1  C   UNL     1       1.742  12.347  18.822  0.00  0.00    +0.000 C 
ATOM      2  C   UNL     1       2.235  11.122  18.559  0.00  0.00    +0.000 C 
ATOM      3  N   UNL     1       1.472  10.049  18.109  0.00  0.00    +0.000 N 
ATOM      4  C   UNL     1       0.091  10.186  18.111  0.00  0.00    +0.000 C 
ATOM      5  C   UNL     1      -0.545  11.350  18.340  0.00  0.00    +0.000 C 
ATOM      6  C   UNL     1       0.256  12.635  18.564  0.00  0.00    +0.000 C 
ENDROOT
BRANCH   6   7
ATOM      7  C   UNL     1      -0.397  13.545  19.594  0.00  0.00    +0.000 A 
ATOM      8  C   UNL     1      -0.801  14.847  19.271  0.00  0.00    +0.000 A 
ATOM      9  C   UNL     1      -1.359  15.679  20.244  0.00  0.00    +0.000 A 
ATOM     10  C   UNL     1      -1.520  15.221  21.553  0.00  0.00    +0.000 A 
ATOM     11  C   UNL     1      -1.128  13.916  21.884  0.00  0.00    +0.000 A 
ATOM     12  C   UNL     1      -0.576  13.077  20.915  0.00  0.00    +0.000 A 
BRANCH  11  13
ATOM     13  N   UNL     1      -1.278  13.436  23.264  0.00  0.00    +0.000 N 
ATOM     14  O   UNL     1      -1.008  14.231  24.183  0.00  0.00    +0.000 OA
ATOM     15  O   UNL     1      -1.663  12.272  23.436  0.00  0.00    +0.000 OA
ENDBRANCH  11  13
ENDBRANCH   6   7
BRANCH   1  16
ATOM     16  C   UNL     1       2.656  13.410  19.325  0.00  0.00    +0.000 C 
ATOM     17  O   UNL     1       3.173  14.271  18.633  0.00  0.00    +0.000 OA
BRANCH  16  18
ATOM     18  O   UNL     1       2.845  13.287  20.668  0.00  0.00    +0.000 OA
BRANCH  18  20
ATOM     19  C   UNL     1       2.278  15.290  21.905  0.00  0.00    +0.000 C 
ATOM     20  C   UNL     1       3.395  14.429  21.343  0.00  0.00    +0.000 C 
ENDBRANCH  18  20
ENDBRANCH  16  18
ENDBRANCH   1  16
BRANCH   5  21
ATOM     21  C   UNL     1      -2.029  11.385  18.303  0.00  0.00    +0.000 C 
ATOM     22  O   UNL     1      -2.742  11.327  19.292  0.00  0.00    +0.000 OA
BRANCH  21  23
ATOM     23  O   UNL     1      -2.464  11.486  17.018  0.00  0.00    +0.000 OA
BRANCH  23  24
ATOM     24  C   UNL     1      -3.062  10.317  16.442  0.00  0.00    +0.000 C 
ATOM     25  C   UNL     1      -3.165  10.467  14.936  0.00  0.00    +0.000 C 
ENDBRANCH  23  24
ENDBRANCH  21  23
ENDBRANCH   5  21
BRANCH   3  26
ATOM     26  C   UNL     1       2.101   8.842  17.547  0.00  0.00    +0.000 C 
BRANCH  26  27
ATOM     27  C   UNL     1       2.221   7.723  18.552  0.00  0.00    +0.000 A 
ATOM     28  C   UNL     1       1.723   7.868  19.847  0.00  0.00    +0.000 A 
ATOM     29  C   UNL     1       1.775   6.796  20.737  0.00  0.00    +0.000 A 
ATOM     30  C   UNL     1       2.328   5.561  20.360  0.00  0.00    +0.000 A 
ATOM     31  C   UNL     1       2.862   5.412  19.068  0.00  0.00    +0.000 A 
ATOM     32  C   UNL     1       2.807   6.501  18.184  0.00  0.00    +0.000 A 
BRANCH  30  33
ATOM     33  O   UNL     1       2.246   4.635  21.367  0.00  0.00    +0.000 OA
ATOM     34  C   UNL     1       1.434   3.488  21.182  0.00  0.00    +0.000 C 
ENDBRANCH  30  33
BRANCH  31  35
ATOM     35  O   UNL     1       3.406   4.204  18.720  0.00  0.00    +0.000 OA
ATOM     36  C   UNL     1       3.592   3.915  17.342  0.00  0.00    +0.000 C 
ENDBRANCH  31  35
ENDBRANCH  26  27
ENDBRANCH   3  26
TORSDOF 12
ENDMDL
