MODEL 1
REMARK VINA RESULT:      -7.4      0.000      0.000
REMARK  Name = 
REMARK  6 active torsions:
REMARK  status: ('A' for Active; 'I' for Inactive)
REMARK    1  A    between atoms: C_2  and  C_13
REMARK    2  A    between atoms: N_3  and  C_4
REMARK    3  A    between atoms: C_4  and  C_5
REMARK    4  A    between atoms: C_5  and  C_6
REMARK    5  A    between atoms: C_6  and  N_7
REMARK    6  A    between atoms: C_16  and  C_17
REMARK                            x       y       z     vdW  Elec       q    Type
REMARK                         _______ _______ _______ _____ _____    ______ ____
ROOT
ATOM      1  O   UNL     1       3.967   5.785  19.631  0.00  0.00    +0.000 OA
ATOM      2  C   UNL     1       3.556   6.299  18.594  0.00  0.00    +0.000 C 
ATOM      3  N   UNL     1       3.916   5.815  17.353  0.00  0.00    +0.000 N 
ATOM      4  H   UNL     1       3.702   6.396  16.552  0.00  0.00    +0.000 HD
ENDROOT
BRANCH   2   5
ATOM      5  C   UNL     1       2.672   7.443  18.597  0.00  0.00    +0.000 A 
ATOM      6  C   UNL     1       2.324   8.257  17.537  0.00  0.00    +0.000 A 
ATOM      7  C   UNL     1       1.475   9.256  18.046  0.00  0.00    +0.000 A 
ATOM      8  C   UNL     1       1.328   9.005  19.396  0.00  0.00    +0.000 A 
ATOM      9  O   UNL     1       2.047   7.885  19.742  0.00  0.00    +0.000 OA
BRANCH   8  10
ATOM     10  C   UNL     1       0.570   9.690  20.441  0.00  0.00    +0.000 A 
ATOM     11  C   UNL     1       0.441   9.163  21.732  0.00  0.00    +0.000 A 
ATOM     12  C   UNL     1      -0.375   9.793  22.681  0.00  0.00    +0.000 A 
ATOM     13  C   UNL     1      -1.060  10.960  22.350  0.00  0.00    +0.000 A 
ATOM     14 CL   UNL     1      -2.093  11.711  23.502  0.00  0.00    +0.000 Cl
ATOM     15  C   UNL     1      -0.922  11.517  21.082  0.00  0.00    +0.000 A 
ATOM     16  C   UNL     1      -0.110  10.884  20.136  0.00  0.00    +0.000 A 
ENDBRANCH   8  10
ENDBRANCH   2   5
BRANCH   3  17
ATOM     17  C   UNL     1       4.871   4.727  17.247  0.00  0.00    +0.000 C 
BRANCH  17  18
ATOM     18  C   UNL     1       4.209   3.367  17.078  0.00  0.00    +0.000 C 
BRANCH  18  19
ATOM     19  C   UNL     1       2.681   3.419  17.237  0.00  0.00    +0.000 C 
BRANCH  19  20
ATOM     20  N   UNL     1       2.156   2.243  17.953  0.00  0.00    +0.000 NA
ATOM     21  C   UNL     1       0.907   2.504  18.700  0.00  0.00    +0.000 C 
ATOM     22  C   UNL     1       1.110   3.350  19.965  0.00  0.00    +0.000 C 
ATOM     23  O   UNL     1       2.022   2.707  20.860  0.00  0.00    +0.000 OA
ATOM     24  C   UNL     1       3.287   2.493  20.221  0.00  0.00    +0.000 C 
ATOM     25  C   UNL     1       3.148   1.696  18.909  0.00  0.00    +0.000 C 
ENDBRANCH  19  20
ENDBRANCH  18  19
ENDBRANCH  17  18
ENDBRANCH   3  17
TORSDOF 6
ENDMDL
MODEL 2
REMARK VINA RESULT:      -7.2      6.497      9.573
REMARK  Name = 
REMARK  6 active torsions:
REMARK  status: ('A' for Active; 'I' for Inactive)
REMARK    1  A    between atoms: C_2  and  C_13
REMARK    2  A    between atoms: N_3  and  C_4
REMARK    3  A    between atoms: C_4  and  C_5
REMARK    4  A    between atoms: C_5  and  C_6
REMARK    5  A    between atoms: C_6  and  N_7
REMARK    6  A    between atoms: C_16  and  C_17
REMARK                            x       y       z     vdW  Elec       q    Type
REMARK                         _______ _______ _______ _____ _____    ______ ____
ROOT
ATOM      1  O   UNL     1       8.520   6.905  18.974  0.00  0.00    +0.000 OA
ATOM      2  C   UNL     1       7.821   7.291  18.040  0.00  0.00    +0.000 C 
ATOM      3  N   UNL     1       7.850   8.600  17.605  0.00  0.00    +0.000 N 
ATOM      4  H   UNL     1       7.118   8.892  16.970  0.00  0.00    +0.000 HD
ENDROOT
BRANCH   2   5
ATOM      5  C   UNL     1       6.920   6.408  17.334  0.00  0.00    +0.000 A 
ATOM      6  C   UNL     1       6.976   6.008  16.012  0.00  0.00    +0.000 A 
ATOM      7  C   UNL     1       5.859   5.185  15.784  0.00  0.00    +0.000 A 
ATOM      8  C   UNL     1       5.171   5.105  16.979  0.00  0.00    +0.000 A 
ATOM      9  O   UNL     1       5.822   5.841  17.940  0.00  0.00    +0.000 OA
BRANCH   8  10
ATOM     10  C   UNL     1       3.948   4.400  17.357  0.00  0.00    +0.000 A 
ATOM     11  C   UNL     1       2.780   5.082  17.720  0.00  0.00    +0.000 A 
ATOM     12  C   UNL     1       1.656   4.380  18.174  0.00  0.00    +0.000 A 
ATOM     13  C   UNL     1       1.688   2.989  18.259  0.00  0.00    +0.000 A 
ATOM     14 CL   UNL     1       0.322   2.130  18.855  0.00  0.00    +0.000 Cl
ATOM     15  C   UNL     1       2.828   2.291  17.876  0.00  0.00    +0.000 A 
ATOM     16  C   UNL     1       3.949   2.994  17.426  0.00  0.00    +0.000 A 
ENDBRANCH   8  10
ENDBRANCH   2   5
BRANCH   3  17
ATOM     17  C   UNL     1       8.655   9.581  18.310  0.00  0.00    +0.000 C 
BRANCH  17  18
ATOM     18  C   UNL     1       8.397  11.008  17.847  0.00  0.00    +0.000 C 
BRANCH  18  19
ATOM     19  C   UNL     1       9.205  12.051  18.636  0.00  0.00    +0.000 C 
BRANCH  19  20
ATOM     20  N   UNL     1      10.637  11.709  18.704  0.00  0.00    +0.000 NA
ATOM     21  C   UNL     1      11.321  12.225  19.910  0.00  0.00    +0.000 C 
ATOM     22  C   UNL     1      11.547  13.743  19.889  0.00  0.00    +0.000 C 
ATOM     23  O   UNL     1      12.332  14.120  18.753  0.00  0.00    +0.000 OA
ATOM     24  C   UNL     1      11.686  13.717  17.539  0.00  0.00    +0.000 C 
ATOM     25  C   UNL     1      11.376  12.206  17.519  0.00  0.00    +0.000 C 
ENDBRANCH  19  20
ENDBRANCH  18  19
ENDBRANCH  17  18
ENDBRANCH   3  17
TORSDOF 6
ENDMDL
MODEL 3
REMARK VINA RESULT:      -7.2      4.392      8.231
REMARK  Name = 
REMARK  6 active torsions:
REMARK  status: ('A' for Active; 'I' for Inactive)
REMARK    1  A    between atoms: C_2  and  C_13
REMARK    2  A    between atoms: N_3  and  C_4
REMARK    3  A    between atoms: C_4  and  C_5
REMARK    4  A    between atoms: C_5  and  C_6
REMARK    5  A    between atoms: C_6  and  N_7
REMARK    6  A    between atoms: C_16  and  C_17
REMARK                            x       y       z     vdW  Elec       q    Type
REMARK                         _______ _______ _______ _____ _____    ______ ____
ROOT
ATOM      1  O   UNL     1       0.091   9.284  21.158  0.00  0.00    +0.000 OA
ATOM      2  C   UNL     1       0.578   9.735  20.124  0.00  0.00    +0.000 C 
ATOM      3  N   UNL     1       0.381  11.047  19.742  0.00  0.00    +0.000 N 
ATOM      4  H   UNL     1       0.643  11.296  18.797  0.00  0.00    +0.000 HD
ENDROOT
BRANCH   2   5
ATOM      5  C   UNL     1       1.385   8.930  19.235  0.00  0.00    +0.000 A 
ATOM      6  C   UNL     1       2.039   9.323  18.083  0.00  0.00    +0.000 A 
ATOM      7  C   UNL     1       2.653   8.176  17.548  0.00  0.00    +0.000 A 
ATOM      8  C   UNL     1       2.359   7.130  18.400  0.00  0.00    +0.000 A 
ATOM      9  O   UNL     1       1.593   7.586  19.447  0.00  0.00    +0.000 OA
BRANCH   8  10
ATOM     10  C   UNL     1       2.719   5.714  18.371  0.00  0.00    +0.000 A 
ATOM     11  C   UNL     1       1.897   4.752  17.772  0.00  0.00    +0.000 A 
ATOM     12  C   UNL     1       2.221   3.391  17.848  0.00  0.00    +0.000 A 
ATOM     13  C   UNL     1       3.374   2.982  18.516  0.00  0.00    +0.000 A 
ATOM     14 CL   UNL     1       3.750   1.309  18.645  0.00  0.00    +0.000 Cl
ATOM     15  C   UNL     1       4.219   3.925  19.093  0.00  0.00    +0.000 A 
ATOM     16  C   UNL     1       3.892   5.282  19.018  0.00  0.00    +0.000 A 
ENDBRANCH   8  10
ENDBRANCH   2   5
BRANCH   3  17
ATOM     17  C   UNL     1      -0.490  11.907  20.523  0.00  0.00    +0.000 C 
BRANCH  17  18
ATOM     18  C   UNL     1      -1.637  12.489  19.709  0.00  0.00    +0.000 C 
BRANCH  18  19
ATOM     19  C   UNL     1      -1.704  11.928  18.279  0.00  0.00    +0.000 C 
BRANCH  19  20
ATOM     20  N   UNL     1      -2.573  10.741  18.188  0.00  0.00    +0.000 NA
ATOM     21  C   UNL     1      -2.286   9.876  17.023  0.00  0.00    +0.000 C 
ATOM     22  C   UNL     1      -2.738  10.475  15.684  0.00  0.00    +0.000 C 
ATOM     23  O   UNL     1      -4.146  10.731  15.696  0.00  0.00    +0.000 OA
ATOM     24  C   UNL     1      -4.485  11.631  16.759  0.00  0.00    +0.000 C 
ATOM     25  C   UNL     1      -4.006  11.115  18.131  0.00  0.00    +0.000 C 
ENDBRANCH  19  20
ENDBRANCH  18  19
ENDBRANCH  17  18
ENDBRANCH   3  17
TORSDOF 6
ENDMDL
MODEL 4
REMARK VINA RESULT:      -7.1      5.412      6.547
REMARK  Name = 
REMARK  6 active torsions:
REMARK  status: ('A' for Active; 'I' for Inactive)
REMARK    1  A    between atoms: C_2  and  C_13
REMARK    2  A    between atoms: N_3  and  C_4
REMARK    3  A    between atoms: C_4  and  C_5
REMARK    4  A    between atoms: C_5  and  C_6
REMARK    5  A    between atoms: C_6  and  N_7
REMARK    6  A    between atoms: C_16  and  C_17
REMARK                            x       y       z     vdW  Elec       q    Type
REMARK                         _______ _______ _______ _____ _____    ______ ____
ROOT
ATOM      1  O   UNL     1       5.264   7.015  15.979  0.00  0.00    +0.000 OA
ATOM      2  C   UNL     1       6.143   6.425  16.602  0.00  0.00    +0.000 C 
ATOM      3  N   UNL     1       6.273   5.053  16.549  0.00  0.00    +0.000 N 
ATOM      4  H   UNL     1       6.886   4.621  17.229  0.00  0.00    +0.000 HD
ENDROOT
BRANCH   2   5
ATOM      5  C   UNL     1       7.097   7.122  17.435  0.00  0.00    +0.000 A 
ATOM      6  C   UNL     1       7.828   6.624  18.498  0.00  0.00    +0.000 A 
ATOM      7  C   UNL     1       8.583   7.692  19.013  0.00  0.00    +0.000 A 
ATOM      8  C   UNL     1       8.294   8.798  18.238  0.00  0.00    +0.000 A 
ATOM      9  O   UNL     1       7.394   8.454  17.257  0.00  0.00    +0.000 OA
BRANCH   8  10
ATOM     10  C   UNL     1       8.771  10.178  18.287  0.00  0.00    +0.000 A 
ATOM     11  C   UNL     1       9.801  10.577  19.147  0.00  0.00    +0.000 A 
ATOM     12  C   UNL     1      10.167  11.926  19.243  0.00  0.00    +0.000 A 
ATOM     13  C   UNL     1       9.511  12.885  18.474  0.00  0.00    +0.000 A 
ATOM     14 CL   UNL     1       9.933  14.546  18.622  0.00  0.00    +0.000 Cl
ATOM     15  C   UNL     1       8.505  12.506  17.592  0.00  0.00    +0.000 A 
ATOM     16  C   UNL     1       8.140  11.159  17.500  0.00  0.00    +0.000 A 
ENDBRANCH   8  10
ENDBRANCH   2   5
BRANCH   3  17
ATOM     17  C   UNL     1       5.306   4.260  15.812  0.00  0.00    +0.000 C 
BRANCH  17  18
ATOM     18  C   UNL     1       4.101   3.859  16.652  0.00  0.00    +0.000 C 
BRANCH  18  19
ATOM     19  C   UNL     1       4.442   3.671  18.139  0.00  0.00    +0.000 C 
BRANCH  19  20
ATOM     20  N   UNL     1       3.866   2.431  18.690  0.00  0.00    +0.000 NA
ATOM     21  C   UNL     1       2.544   2.082  18.125  0.00  0.00    +0.000 C 
ATOM     22  C   UNL     1       1.405   2.988  18.615  0.00  0.00    +0.000 C 
ATOM     23  O   UNL     1       1.294   2.932  20.040  0.00  0.00    +0.000 OA
ATOM     24  C   UNL     1       2.523   3.336  20.657  0.00  0.00    +0.000 C 
ATOM     25  C   UNL     1       3.723   2.501  20.164  0.00  0.00    +0.000 C 
ENDBRANCH  19  20
ENDBRANCH  18  19
ENDBRANCH  17  18
ENDBRANCH   3  17
TORSDOF 6
ENDMDL
MODEL 5
REMARK VINA RESULT:      -7.1      5.164      6.581
REMARK  Name = 
REMARK  6 active torsions:
REMARK  status: ('A' for Active; 'I' for Inactive)
REMARK    1  A    between atoms: C_2  and  C_13
REMARK    2  A    between atoms: N_3  and  C_4
REMARK    3  A    between atoms: C_4  and  C_5
REMARK    4  A    between atoms: C_5  and  C_6
REMARK    5  A    between atoms: C_6  and  N_7
REMARK    6  A    between atoms: C_16  and  C_17
REMARK                            x       y       z     vdW  Elec       q    Type
REMARK                         _______ _______ _______ _____ _____    ______ ____
ROOT
ATOM      1  O   UNL     1       6.022   6.280  15.346  0.00  0.00    +0.000 OA
ATOM      2  C   UNL     1       6.157   5.972  16.527  0.00  0.00    +0.000 C 
ATOM      3  N   UNL     1       5.463   4.918  17.086  0.00  0.00    +0.000 N 
ATOM      4  H   UNL     1       5.473   4.842  18.095  0.00  0.00    +0.000 HD
ENDROOT
BRANCH   2   5
ATOM      5  C   UNL     1       7.046   6.687  17.415  0.00  0.00    +0.000 A 
ATOM      6  C   UNL     1       7.730   6.203  18.513  0.00  0.00    +0.000 A 
ATOM      7  C   UNL     1       8.427   7.287  19.075  0.00  0.00    +0.000 A 
ATOM      8  C   UNL     1       8.153   8.389  18.289  0.00  0.00    +0.000 A 
ATOM      9  O   UNL     1       7.317   8.028  17.259  0.00  0.00    +0.000 OA
BRANCH   8  10
ATOM     10  C   UNL     1       8.590   9.781  18.371  0.00  0.00    +0.000 A 
ATOM     11  C   UNL     1       8.016  10.787  17.583  0.00  0.00    +0.000 A 
ATOM     12  C   UNL     1       8.524  12.092  17.612  0.00  0.00    +0.000 A 
ATOM     13  C   UNL     1       9.605  12.404  18.435  0.00  0.00    +0.000 A 
ATOM     14 CL   UNL     1      10.255  13.996  18.439  0.00  0.00    +0.000 Cl
ATOM     15  C   UNL     1      10.171  11.426  19.247  0.00  0.00    +0.000 A 
ATOM     16  C   UNL     1       9.663  10.123  19.214  0.00  0.00    +0.000 A 
ENDBRANCH   8  10
ENDBRANCH   2   5
BRANCH   3  17
ATOM     17  C   UNL     1       4.479   4.198  16.297  0.00  0.00    +0.000 C 
BRANCH  17  18
ATOM     18  C   UNL     1       3.495   3.410  17.149  0.00  0.00    +0.000 C 
BRANCH  18  19
ATOM     19  C   UNL     1       2.644   4.303  18.065  0.00  0.00    +0.000 C 
BRANCH  19  20
ATOM     20  N   UNL     1       1.687   3.523  18.871  0.00  0.00    +0.000 NA
ATOM     21  C   UNL     1       1.107   4.274  20.006  0.00  0.00    +0.000 C 
ATOM     22  C   UNL     1       2.092   4.508  21.159  0.00  0.00    +0.000 C 
ATOM     23  O   UNL     1       2.577   3.262  21.668  0.00  0.00    +0.000 OA
ATOM     24  C   UNL     1       3.225   2.513  20.632  0.00  0.00    +0.000 C 
ATOM     25  C   UNL     1       2.306   2.290  19.414  0.00  0.00    +0.000 C 
ENDBRANCH  19  20
ENDBRANCH  18  19
ENDBRANCH  17  18
ENDBRANCH   3  17
TORSDOF 6
ENDMDL
MODEL 6
REMARK VINA RESULT:      -7.1      4.384      8.155
REMARK  Name = 
REMARK  6 active torsions:
REMARK  status: ('A' for Active; 'I' for Inactive)
REMARK    1  A    between atoms: C_2  and  C_13
REMARK    2  A    between atoms: N_3  and  C_4
REMARK    3  A    between atoms: C_4  and  C_5
REMARK    4  A    between atoms: C_5  and  C_6
REMARK    5  A    between atoms: C_6  and  N_7
REMARK    6  A    between atoms: C_16  and  C_17
REMARK                            x       y       z     vdW  Elec       q    Type
REMARK                         _______ _______ _______ _____ _____    ______ ____
ROOT
ATOM      1  O   UNL     1      -0.244  10.035  20.979  0.00  0.00    +0.000 OA
ATOM      2  C   UNL     1       0.427  10.372  20.006  0.00  0.00    +0.000 C 
ATOM      3  N   UNL     1       0.463  11.680  19.568  0.00  0.00    +0.000 N 
ATOM      4  H   UNL     1       0.873  11.851  18.659  0.00  0.00    +0.000 HD
ENDROOT
BRANCH   2   5
ATOM      5  C   UNL     1       1.221   9.428  19.252  0.00  0.00    +0.000 A 
ATOM      6  C   UNL     1       1.635   9.518  17.936  0.00  0.00    +0.000 A 
ATOM      7  C   UNL     1       2.344   8.339  17.647  0.00  0.00    +0.000 A 
ATOM      8  C   UNL     1       2.345   7.580  18.800  0.00  0.00    +0.000 A 
ATOM      9  O   UNL     1       1.671   8.246  19.795  0.00  0.00    +0.000 OA
BRANCH   8  10
ATOM     10  C   UNL     1       2.921   6.273  19.109  0.00  0.00    +0.000 A 
ATOM     11  C   UNL     1       4.034   5.771  18.423  0.00  0.00    +0.000 A 
ATOM     12  C   UNL     1       4.501   4.474  18.673  0.00  0.00    +0.000 A 
ATOM     13  C   UNL     1       3.863   3.671  19.618  0.00  0.00    +0.000 A 
ATOM     14 CL   UNL     1       4.411   2.065  19.896  0.00  0.00    +0.000 Cl
ATOM     15  C   UNL     1       2.774   4.161  20.331  0.00  0.00    +0.000 A 
ATOM     16  C   UNL     1       2.308   5.455  20.077  0.00  0.00    +0.000 A 
ENDBRANCH   8  10
ENDBRANCH   2   5
BRANCH   3  17
ATOM     17  C   UNL     1      -0.372  12.682  20.206  0.00  0.00    +0.000 C 
BRANCH  17  18
ATOM     18  C   UNL     1      -1.735  12.830  19.544  0.00  0.00    +0.000 C 
BRANCH  18  19
ATOM     19  C   UNL     1      -1.776  12.256  18.119  0.00  0.00    +0.000 C 
BRANCH  19  20
ATOM     20  N   UNL     1      -2.441  10.941  18.068  0.00  0.00    +0.000 NA
ATOM     21  C   UNL     1      -2.091  10.138  16.876  0.00  0.00    +0.000 C 
ATOM     22  C   UNL     1      -2.720  10.657  15.575  0.00  0.00    +0.000 C 
ATOM     23  O   UNL     1      -4.147  10.676  15.679  0.00  0.00    +0.000 OA
ATOM     24  C   UNL     1      -4.561  11.505  16.772  0.00  0.00    +0.000 C 
ATOM     25  C   UNL     1      -3.918  11.073  18.105  0.00  0.00    +0.000 C 
ENDBRANCH  19  20
ENDBRANCH  18  19
ENDBRANCH  17  18
ENDBRANCH   3  17
TORSDOF 6
ENDMDL
MODEL 7
REMARK VINA RESULT:      -7.1      2.105      3.755
REMARK  Name = 
REMARK  6 active torsions:
REMARK  status: ('A' for Active; 'I' for Inactive)
REMARK    1  A    between atoms: C_2  and  C_13
REMARK    2  A    between atoms: N_3  and  C_4
REMARK    3  A    between atoms: C_4  and  C_5
REMARK    4  A    between atoms: C_5  and  C_6
REMARK    5  A    between atoms: C_6  and  N_7
REMARK    6  A    between atoms: C_16  and  C_17
REMARK                            x       y       z     vdW  Elec       q    Type
REMARK                         _______ _______ _______ _____ _____    ______ ____
ROOT
ATOM      1  O   UNL     1       1.559   5.042  18.482  0.00  0.00    +0.000 OA
ATOM      2  C   UNL     1       2.400   5.913  18.271  0.00  0.00    +0.000 C 
ATOM      3  N   UNL     1       3.689   5.598  17.891  0.00  0.00    +0.000 N 
ATOM      4  H   UNL     1       4.374   6.343  17.923  0.00  0.00    +0.000 HD
ENDROOT
BRANCH   2   5
ATOM      5  C   UNL     1       2.104   7.321  18.407  0.00  0.00    +0.000 A 
ATOM      6  C   UNL     1       2.417   8.348  17.537  0.00  0.00    +0.000 A 
ATOM      7  C   UNL     1       1.958   9.540  18.126  0.00  0.00    +0.000 A 
ATOM      8  C   UNL     1       1.373   9.193  19.328  0.00  0.00    +0.000 A 
ATOM      9  O   UNL     1       1.444   7.831  19.503  0.00  0.00    +0.000 OA
BRANCH   8  10
ATOM     10  C   UNL     1       0.725   9.991  20.366  0.00  0.00    +0.000 A 
ATOM     11  C   UNL     1       0.273   9.424  21.565  0.00  0.00    +0.000 A 
ATOM     12  C   UNL     1      -0.434  10.196  22.496  0.00  0.00    +0.000 A 
ATOM     13  C   UNL     1      -0.687  11.542  22.241  0.00  0.00    +0.000 A 
ATOM     14 CL   UNL     1      -1.590  12.479  23.366  0.00  0.00    +0.000 Cl
ATOM     15  C   UNL     1      -0.222  12.131  21.069  0.00  0.00    +0.000 A 
ATOM     16  C   UNL     1       0.481  11.358  20.140  0.00  0.00    +0.000 A 
ENDBRANCH   8  10
ENDBRANCH   2   5
BRANCH   3  17
ATOM     17  C   UNL     1       4.105   4.210  17.817  0.00  0.00    +0.000 C 
BRANCH  17  18
ATOM     18  C   UNL     1       5.244   3.878  18.770  0.00  0.00    +0.000 C 
BRANCH  18  19
ATOM     19  C   UNL     1       5.993   5.124  19.268  0.00  0.00    +0.000 C 
BRANCH  19  20
ATOM     20  N   UNL     1       7.393   5.153  18.806  0.00  0.00    +0.000 NA
ATOM     21  C   UNL     1       7.973   6.512  18.736  0.00  0.00    +0.000 C 
ATOM     22  C   UNL     1       7.432   7.355  17.573  0.00  0.00    +0.000 C 
ATOM     23  O   UNL     1       7.689   6.711  16.322  0.00  0.00    +0.000 OA
ATOM     24  C   UNL     1       7.084   5.412  16.291  0.00  0.00    +0.000 C 
ATOM     25  C   UNL     1       7.542   4.529  17.469  0.00  0.00    +0.000 C 
ENDBRANCH  19  20
ENDBRANCH  18  19
ENDBRANCH  17  18
ENDBRANCH   3  17
TORSDOF 6
ENDMDL
MODEL 8
REMARK VINA RESULT:      -7.0      2.207      3.925
REMARK  Name = 
REMARK  6 active torsions:
REMARK  status: ('A' for Active; 'I' for Inactive)
REMARK    1  A    between atoms: C_2  and  C_13
REMARK    2  A    between atoms: N_3  and  C_4
REMARK    3  A    between atoms: C_4  and  C_5
REMARK    4  A    between atoms: C_5  and  C_6
REMARK    5  A    between atoms: C_6  and  N_7
REMARK    6  A    between atoms: C_16  and  C_17
REMARK                            x       y       z     vdW  Elec       q    Type
REMARK                         _______ _______ _______ _____ _____    ______ ____
ROOT
ATOM      1  O   UNL     1       2.060   5.488  20.088  0.00  0.00    +0.000 OA
ATOM      2  C   UNL     1       2.486   6.045  19.079  0.00  0.00    +0.000 C 
ATOM      3  N   UNL     1       3.283   5.383  18.167  0.00  0.00    +0.000 N 
ATOM      4  H   UNL     1       3.752   5.947  17.470  0.00  0.00    +0.000 HD
ENDROOT
BRANCH   2   5
ATOM      5  C   UNL     1       2.188   7.426  18.775  0.00  0.00    +0.000 A 
ATOM      6  C   UNL     1       2.678   8.199  17.740  0.00  0.00    +0.000 A 
ATOM      7  C   UNL     1       2.129   9.485  17.891  0.00  0.00    +0.000 A 
ATOM      8  C   UNL     1       1.314   9.444  19.006  0.00  0.00    +0.000 A 
ATOM      9  O   UNL     1       1.332   8.180  19.547  0.00  0.00    +0.000 OA
BRANCH   8  10
ATOM     10  C   UNL     1       0.485  10.461  19.649  0.00  0.00    +0.000 A 
ATOM     11  C   UNL     1      -0.870  10.623  19.332  0.00  0.00    +0.000 A 
ATOM     12  C   UNL     1      -1.611  11.672  19.892  0.00  0.00    +0.000 A 
ATOM     13  C   UNL     1      -1.007  12.561  20.779  0.00  0.00    +0.000 A 
ATOM     14 CL   UNL     1      -1.907  13.872  21.435  0.00  0.00    +0.000 Cl
ATOM     15  C   UNL     1       0.330  12.399  21.129  0.00  0.00    +0.000 A 
ATOM     16  C   UNL     1       1.069  11.354  20.566  0.00  0.00    +0.000 A 
ENDBRANCH   8  10
ENDBRANCH   2   5
BRANCH   3  17
ATOM     17  C   UNL     1       3.711   4.021  18.432  0.00  0.00    +0.000 C 
BRANCH  17  18
ATOM     18  C   UNL     1       5.017   3.948  19.210  0.00  0.00    +0.000 C 
BRANCH  18  19
ATOM     19  C   UNL     1       5.774   5.286  19.240  0.00  0.00    +0.000 C 
BRANCH  19  20
ATOM     20  N   UNL     1       7.170   5.145  18.788  0.00  0.00    +0.000 NA
ATOM     21  C   UNL     1       7.912   6.424  18.727  0.00  0.00    +0.000 C 
ATOM     22  C   UNL     1       7.486   7.330  17.563  0.00  0.00    +0.000 C 
ATOM     23  O   UNL     1       7.671   6.662  16.311  0.00  0.00    +0.000 OA
ATOM     24  C   UNL     1       6.912   5.447  16.272  0.00  0.00    +0.000 C 
ATOM     25  C   UNL     1       7.251   4.512  17.450  0.00  0.00    +0.000 C 
ENDBRANCH  19  20
ENDBRANCH  18  19
ENDBRANCH  17  18
ENDBRANCH   3  17
TORSDOF 6
ENDMDL
MODEL 9
REMARK VINA RESULT:      -7.0      6.328      9.541
REMARK  Name = 
REMARK  6 active torsions:
REMARK  status: ('A' for Active; 'I' for Inactive)
REMARK    1  A    between atoms: C_2  and  C_13
REMARK    2  A    between atoms: N_3  and  C_4
REMARK    3  A    between atoms: C_4  and  C_5
REMARK    4  A    between atoms: C_5  and  C_6
REMARK    5  A    between atoms: C_6  and  N_7
REMARK    6  A    between atoms: C_16  and  C_17
REMARK                            x       y       z     vdW  Elec       q    Type
REMARK                         _______ _______ _______ _____ _____    ______ ____
ROOT
ATOM      1  O   UNL     1       8.524   6.899  19.070  0.00  0.00    +0.000 OA
ATOM      2  C   UNL     1       7.837   7.334  18.149  0.00  0.00    +0.000 C 
ATOM      3  N   UNL     1       7.900   8.657  17.761  0.00  0.00    +0.000 N 
ATOM      4  H   UNL     1       7.176   8.989  17.135  0.00  0.00    +0.000 HD
ENDROOT
BRANCH   2   5
ATOM      5  C   UNL     1       6.916   6.499  17.411  0.00  0.00    +0.000 A 
ATOM      6  C   UNL     1       6.936   6.188  16.064  0.00  0.00    +0.000 A 
ATOM      7  C   UNL     1       5.813   5.381  15.813  0.00  0.00    +0.000 A 
ATOM      8  C   UNL     1       5.157   5.220  17.018  0.00  0.00    +0.000 A 
ATOM      9  O   UNL     1       5.835   5.891  18.008  0.00  0.00    +0.000 OA
BRANCH   8  10
ATOM     10  C   UNL     1       3.945   4.490  17.382  0.00  0.00    +0.000 A 
ATOM     11  C   UNL     1       2.797   5.143  17.848  0.00  0.00    +0.000 A 
ATOM     12  C   UNL     1       1.686   4.408  18.284  0.00  0.00    +0.000 A 
ATOM     13  C   UNL     1       1.712   3.015  18.248  0.00  0.00    +0.000 A 
ATOM     14 CL   UNL     1       0.364   2.113  18.820  0.00  0.00    +0.000 Cl
ATOM     15  C   UNL     1       2.831   2.348  17.761  0.00  0.00    +0.000 A 
ATOM     16  C   UNL     1       3.939   3.084  17.330  0.00  0.00    +0.000 A 
ENDBRANCH   8  10
ENDBRANCH   2   5
BRANCH   3  17
ATOM     17  C   UNL     1       8.727   9.592  18.502  0.00  0.00    +0.000 C 
BRANCH  17  18
ATOM     18  C   UNL     1       8.716  10.995  17.910  0.00  0.00    +0.000 C 
BRANCH  18  19
ATOM     19  C   UNL     1      10.114  11.630  17.845  0.00  0.00    +0.000 C 
BRANCH  19  20
ATOM     20  N   UNL     1      10.310  12.652  18.889  0.00  0.00    +0.000 NA
ATOM     21  C   UNL     1       9.080  13.398  19.236  0.00  0.00    +0.000 C 
ATOM     22  C   UNL     1       8.637  14.394  18.155  0.00  0.00    +0.000 C 
ATOM     23  O   UNL     1       9.668  15.353  17.901  0.00  0.00    +0.000 OA
ATOM     24  C   UNL     1      10.873  14.700  17.482  0.00  0.00    +0.000 C 
ATOM     25  C   UNL     1      11.343  13.641  18.499  0.00  0.00    +0.000 C 
ENDBRANCH  19  20
ENDBRANCH  18  19
ENDBRANCH  17  18
ENDBRANCH   3  17
TORSDOF 6
ENDMDL
