MODEL 1
REMARK VINA RESULT:      -8.7      0.000      0.000
REMARK  Name = 
REMARK  9 active torsions:
REMARK  status: ('A' for Active; 'I' for Inactive)
REMARK    1  A    between atoms: C_1  and  C_2
REMARK    2  A    between atoms: C_2  and  C_3
REMARK    3  A    between atoms: C_3  and  C_4
REMARK    4  A    between atoms: C_7  and  C_8
REMARK    5  A    between atoms: N_13  and  C_14
REMARK    6  A    between atoms: C_14  and  C_15
REMARK    7  A    between atoms: C_18  and  C_19
REMARK    8  A    between atoms: C_24  and  C_25
REMARK    9  A    between atoms: C_25  and  O_27
REMARK                            x       y       z     vdW  Elec       q    Type
REMARK                         _______ _______ _______ _____ _____    ______ ____
ROOT
ATOM      1  C   UNL     1       2.637   6.939  19.386  0.00  0.00    +0.000 A 
ATOM      2  C   UNL     1       1.841   7.459  20.411  0.00  0.00    +0.000 A 
ATOM      3  C   UNL     1       1.110   8.636  20.217  0.00  0.00    +0.000 A 
ATOM      4  C   UNL     1       1.046   9.256  18.960  0.00  0.00    +0.000 A 
ATOM      5  C   UNL     1       1.847   8.720  17.937  0.00  0.00    +0.000 A 
ATOM      6  C   UNL     1       2.643   7.596  18.152  0.00  0.00    +0.000 A 
ENDROOT
BRANCH   4   7
ATOM      7  C   UNL     1       0.135  10.382  18.666  0.00  0.00    +0.000 A 
ATOM      8  C   UNL     1      -1.066  10.112  17.961  0.00  0.00    +0.000 A 
ATOM      9  C   UNL     1      -2.024  11.091  17.707  0.00  0.00    +0.000 A 
ATOM     10  C   UNL     1      -1.796  12.393  18.115  0.00  0.00    +0.000 A 
ATOM     11  C   UNL     1      -0.613  12.708  18.781  0.00  0.00    +0.000 A 
ATOM     12  C   UNL     1       0.352  11.722  19.081  0.00  0.00    +0.000 A 
BRANCH  12  13
ATOM     13  C   UNL     1       1.548  12.242  19.803  0.00  0.00    +0.000 C 
ATOM     14  O   UNL     1       2.444  12.830  19.204  0.00  0.00    +0.000 OA
BRANCH  13  15
ATOM     15  O   UNL     1       1.558  12.121  21.142  0.00  0.00    +0.000 OA
ATOM     16  H   UNL     1       0.774  12.455  21.619  0.00  0.00    +0.000 HD
ENDBRANCH  13  15
ENDBRANCH  12  13
ENDBRANCH   4   7
BRANCH   1  17
ATOM     17  C   UNL     1       3.541   5.762  19.649  0.00  0.00    +0.000 C 
BRANCH  17  27
ATOM     18  C   UNL     1       3.125   4.282  17.634  0.00  0.00    +0.000 A 
ATOM     19  N   UNL     1       3.754   3.955  16.520  0.00  0.00    +0.000 NA
ATOM     20  C   UNL     1       5.003   4.504  16.615  0.00  0.00    +0.000 A 
ATOM     21  C   UNL     1       6.076   4.490  15.708  0.00  0.00    +0.000 A 
ATOM     22  C   UNL     1       6.028   3.795  14.382  0.00  0.00    +0.000 C 
ATOM     23  C   UNL     1       7.225   5.184  16.114  0.00  0.00    +0.000 A 
ATOM     24  C   UNL     1       7.250   5.820  17.354  0.00  0.00    +0.000 A 
ATOM     25  N   UNL     1       6.234   5.859  18.251  0.00  0.00    +0.000 NA
ATOM     26  C   UNL     1       5.150   5.181  17.820  0.00  0.00    +0.000 A 
ATOM     27  N   UNL     1       3.941   5.038  18.455  0.00  0.00    +0.000 N 
BRANCH  18  28
ATOM     28  C   UNL     1       1.710   3.917  17.941  0.00  0.00    +0.000 C 
BRANCH  28  30
ATOM     29  C   UNL     1       0.986   3.172  20.236  0.00  0.00    +0.000 C 
ATOM     30  C   UNL     1       1.638   2.755  18.931  0.00  0.00    +0.000 C 
ENDBRANCH  28  30
ENDBRANCH  18  28
ENDBRANCH  17  27
ENDBRANCH   1  17
TORSDOF 7
ENDMDL
MODEL 2
REMARK VINA RESULT:      -8.5      3.827      8.404
REMARK  Name = 
REMARK  9 active torsions:
REMARK  status: ('A' for Active; 'I' for Inactive)
REMARK    1  A    between atoms: C_1  and  C_2
REMARK    2  A    between atoms: C_2  and  C_3
REMARK    3  A    between atoms: C_3  and  C_4
REMARK    4  A    between atoms: C_7  and  C_8
REMARK    5  A    between atoms: N_13  and  C_14
REMARK    6  A    between atoms: C_14  and  C_15
REMARK    7  A    between atoms: C_18  and  C_19
REMARK    8  A    between atoms: C_24  and  C_25
REMARK    9  A    between atoms: C_25  and  O_27
REMARK                            x       y       z     vdW  Elec       q    Type
REMARK                         _______ _______ _______ _____ _____    ______ ____
ROOT
ATOM      1  C   UNL     1       1.144   9.079  19.815  0.00  0.00    +0.000 A 
ATOM      2  C   UNL     1       1.610   7.933  20.465  0.00  0.00    +0.000 A 
ATOM      3  C   UNL     1       2.318   6.954  19.761  0.00  0.00    +0.000 A 
ATOM      4  C   UNL     1       2.696   7.147  18.423  0.00  0.00    +0.000 A 
ATOM      5  C   UNL     1       2.226   8.306  17.784  0.00  0.00    +0.000 A 
ATOM      6  C   UNL     1       1.448   9.244  18.460  0.00  0.00    +0.000 A 
ENDROOT
BRANCH   4   7
ATOM      7  C   UNL     1       3.607   6.230  17.706  0.00  0.00    +0.000 A 
ATOM      8  C   UNL     1       4.820   6.752  17.189  0.00  0.00    +0.000 A 
ATOM      9  C   UNL     1       5.778   5.951  16.569  0.00  0.00    +0.000 A 
ATOM     10  C   UNL     1       5.537   4.599  16.406  0.00  0.00    +0.000 A 
ATOM     11  C   UNL     1       4.342   4.052  16.868  0.00  0.00    +0.000 A 
ATOM     12  C   UNL     1       3.377   4.840  17.533  0.00  0.00    +0.000 A 
BRANCH  12  13
ATOM     13  C   UNL     1       2.167   4.083  17.963  0.00  0.00    +0.000 C 
ATOM     14  O   UNL     1       1.127   4.127  17.312  0.00  0.00    +0.000 OA
BRANCH  13  15
ATOM     15  O   UNL     1       2.291   3.284  19.037  0.00  0.00    +0.000 OA
ATOM     16  H   UNL     1       1.588   3.344  19.712  0.00  0.00    +0.000 HD
ENDBRANCH  13  15
ENDBRANCH  12  13
ENDBRANCH   4   7
BRANCH   1  17
ATOM     17  C   UNL     1       0.251  10.053  20.540  0.00  0.00    +0.000 C 
BRANCH  17  27
ATOM     18  C   UNL     1      -1.046  11.599  19.007  0.00  0.00    +0.000 A 
ATOM     19  N   UNL     1      -1.064  12.886  18.709  0.00  0.00    +0.000 NA
ATOM     20  C   UNL     1       0.015  13.436  19.346  0.00  0.00    +0.000 A 
ATOM     21  C   UNL     1       0.461  14.767  19.395  0.00  0.00    +0.000 A 
ATOM     22  C   UNL     1      -0.219  15.894  18.680  0.00  0.00    +0.000 C 
ATOM     23  C   UNL     1       1.605  14.997  20.174  0.00  0.00    +0.000 A 
ATOM     24  C   UNL     1       2.224  13.934  20.827  0.00  0.00    +0.000 A 
ATOM     25  N   UNL     1       1.819  12.639  20.807  0.00  0.00    +0.000 NA
ATOM     26  C   UNL     1       0.717  12.465  20.048  0.00  0.00    +0.000 A 
ATOM     27  N   UNL     1       0.024  11.300  19.829  0.00  0.00    +0.000 N 
BRANCH  18  28
ATOM     28  C   UNL     1      -2.070  10.614  18.547  0.00  0.00    +0.000 C 
BRANCH  28  30
ATOM     29  C   UNL     1      -2.627  10.685  16.091  0.00  0.00    +0.000 C 
ATOM     30  C   UNL     1      -1.736  10.073  17.157  0.00  0.00    +0.000 C 
ENDBRANCH  28  30
ENDBRANCH  18  28
ENDBRANCH  17  27
ENDBRANCH   1  17
TORSDOF 7
ENDMDL
MODEL 3
REMARK VINA RESULT:      -8.5      1.579      2.282
REMARK  Name = 
REMARK  9 active torsions:
REMARK  status: ('A' for Active; 'I' for Inactive)
REMARK    1  A    between atoms: C_1  and  C_2
REMARK    2  A    between atoms: C_2  and  C_3
REMARK    3  A    between atoms: C_3  and  C_4
REMARK    4  A    between atoms: C_7  and  C_8
REMARK    5  A    between atoms: N_13  and  C_14
REMARK    6  A    between atoms: C_14  and  C_15
REMARK    7  A    between atoms: C_18  and  C_19
REMARK    8  A    between atoms: C_24  and  C_25
REMARK    9  A    between atoms: C_25  and  O_27
REMARK                            x       y       z     vdW  Elec       q    Type
REMARK                         _______ _______ _______ _____ _____    ______ ____
ROOT
ATOM      1  C   UNL     1       2.464   7.011  19.624  0.00  0.00    +0.000 A 
ATOM      2  C   UNL     1       2.578   7.607  18.365  0.00  0.00    +0.000 A 
ATOM      3  C   UNL     1       1.905   8.798  18.078  0.00  0.00    +0.000 A 
ATOM      4  C   UNL     1       1.207   9.500  19.072  0.00  0.00    +0.000 A 
ATOM      5  C   UNL     1       1.105   8.892  20.335  0.00  0.00    +0.000 A 
ATOM      6  C   UNL     1       1.704   7.663  20.600  0.00  0.00    +0.000 A 
ENDROOT
BRANCH   4   7
ATOM      7  C   UNL     1       0.650  10.852  18.860  0.00  0.00    +0.000 A 
ATOM      8  C   UNL     1       1.433  11.972  19.241  0.00  0.00    +0.000 A 
ATOM      9  C   UNL     1       1.029  13.285  19.008  0.00  0.00    +0.000 A 
ATOM     10  C   UNL     1      -0.199  13.528  18.420  0.00  0.00    +0.000 A 
ATOM     11  C   UNL     1      -1.015  12.457  18.062  0.00  0.00    +0.000 A 
ATOM     12  C   UNL     1      -0.606  11.119  18.254  0.00  0.00    +0.000 A 
BRANCH  12  13
ATOM     13  C   UNL     1      -1.605  10.108  17.804  0.00  0.00    +0.000 C 
ATOM     14  O   UNL     1      -2.595   9.851  18.482  0.00  0.00    +0.000 OA
BRANCH  13  15
ATOM     15  O   UNL     1      -1.421   9.562  16.590  0.00  0.00    +0.000 OA
ATOM     16  H   UNL     1      -0.992  10.123  15.916  0.00  0.00    +0.000 HD
ENDBRANCH  13  15
ENDBRANCH  12  13
ENDBRANCH   4   7
BRANCH   1  17
ATOM     17  C   UNL     1       3.064   5.652  19.879  0.00  0.00    +0.000 C 
BRANCH  17  27
ATOM     18  C   UNL     1       2.847   4.359  17.709  0.00  0.00    +0.000 A 
ATOM     19  N   UNL     1       3.604   4.078  16.664  0.00  0.00    +0.000 NA
ATOM     20  C   UNL     1       4.857   4.536  16.969  0.00  0.00    +0.000 A 
ATOM     21  C   UNL     1       6.040   4.521  16.212  0.00  0.00    +0.000 A 
ATOM     22  C   UNL     1       6.136   3.933  14.838  0.00  0.00    +0.000 C 
ATOM     23  C   UNL     1       7.159   5.107  16.823  0.00  0.00    +0.000 A 
ATOM     24  C   UNL     1       7.049   5.644  18.104  0.00  0.00    +0.000 A 
ATOM     25  N   UNL     1       5.923   5.680  18.860  0.00  0.00    +0.000 NA
ATOM     26  C   UNL     1       4.873   5.108  18.235  0.00  0.00    +0.000 A 
ATOM     27  N   UNL     1       3.584   4.995  18.691  0.00  0.00    +0.000 N 
BRANCH  18  28
ATOM     28  C   UNL     1       1.387   4.064  17.796  0.00  0.00    +0.000 C 
BRANCH  28  30
ATOM     29  C   UNL     1       0.777   3.008  20.000  0.00  0.00    +0.000 C 
ATOM     30  C   UNL     1       1.126   2.757  18.545  0.00  0.00    +0.000 C 
ENDBRANCH  28  30
ENDBRANCH  18  28
ENDBRANCH  17  27
ENDBRANCH   1  17
TORSDOF 7
ENDMDL
MODEL 4
REMARK VINA RESULT:      -8.4      1.540      1.939
REMARK  Name = 
REMARK  9 active torsions:
REMARK  status: ('A' for Active; 'I' for Inactive)
REMARK    1  A    between atoms: C_1  and  C_2
REMARK    2  A    between atoms: C_2  and  C_3
REMARK    3  A    between atoms: C_3  and  C_4
REMARK    4  A    between atoms: C_7  and  C_8
REMARK    5  A    between atoms: N_13  and  C_14
REMARK    6  A    between atoms: C_14  and  C_15
REMARK    7  A    between atoms: C_18  and  C_19
REMARK    8  A    between atoms: C_24  and  C_25
REMARK    9  A    between atoms: C_25  and  O_27
REMARK                            x       y       z     vdW  Elec       q    Type
REMARK                         _______ _______ _______ _____ _____    ______ ____
ROOT
ATOM      1  C   UNL     1       2.809   5.872  19.838  0.00  0.00    +0.000 A 
ATOM      2  C   UNL     1       1.827   6.021  20.822  0.00  0.00    +0.000 A 
ATOM      3  C   UNL     1       1.135   7.228  20.961  0.00  0.00    +0.000 A 
ATOM      4  C   UNL     1       1.306   8.276  20.044  0.00  0.00    +0.000 A 
ATOM      5  C   UNL     1       2.291   8.112  19.056  0.00  0.00    +0.000 A 
ATOM      6  C   UNL     1       3.043   6.942  18.967  0.00  0.00    +0.000 A 
ENDROOT
BRANCH   4   7
ATOM      7  C   UNL     1       0.456   9.486  20.041  0.00  0.00    +0.000 A 
ATOM      8  C   UNL     1       0.144  10.087  18.795  0.00  0.00    +0.000 A 
ATOM      9  C   UNL     1      -0.713  11.181  18.683  0.00  0.00    +0.000 A 
ATOM     10  C   UNL     1      -1.258  11.742  19.823  0.00  0.00    +0.000 A 
ATOM     11  C   UNL     1      -0.950  11.203  21.070  0.00  0.00    +0.000 A 
ATOM     12  C   UNL     1      -0.115  10.071  21.201  0.00  0.00    +0.000 A 
BRANCH  12  13
ATOM     13  C   UNL     1       0.097   9.632  22.609  0.00  0.00    +0.000 C 
ATOM     14  O   UNL     1       1.188   9.760  23.156  0.00  0.00    +0.000 OA
BRANCH  13  15
ATOM     15  O   UNL     1      -0.976   9.176  23.278  0.00  0.00    +0.000 OA
ATOM     16  H   UNL     1      -1.474   9.830  23.806  0.00  0.00    +0.000 HD
ENDBRANCH  13  15
ENDBRANCH  12  13
ENDBRANCH   4   7
BRANCH   1  17
ATOM     17  C   UNL     1       3.657   4.628  19.792  0.00  0.00    +0.000 C 
BRANCH  17  27
ATOM     18  C   UNL     1       3.197   3.857  17.421  0.00  0.00    +0.000 A 
ATOM     19  N   UNL     1       3.858   3.766  16.282  0.00  0.00    +0.000 NA
ATOM     20  C   UNL     1       5.160   4.069  16.574  0.00  0.00    +0.000 A 
ATOM     21  C   UNL     1       6.286   4.149  15.738  0.00  0.00    +0.000 A 
ATOM     22  C   UNL     1       6.245   3.871  14.267  0.00  0.00    +0.000 C 
ATOM     23  C   UNL     1       7.485   4.517  16.366  0.00  0.00    +0.000 A 
ATOM     24  C   UNL     1       7.502   4.767  17.737  0.00  0.00    +0.000 A 
ATOM     25  N   UNL     1       6.436   4.705  18.573  0.00  0.00    +0.000 NA
ATOM     26  C   UNL     1       5.306   4.348  17.928  0.00  0.00    +0.000 A 
ATOM     27  N   UNL     1       4.045   4.217  18.454  0.00  0.00    +0.000 N 
BRANCH  18  28
ATOM     28  C   UNL     1       1.727   3.639  17.562  0.00  0.00    +0.000 C 
BRANCH  28  30
ATOM     29  C   UNL     1       0.679   2.714  19.658  0.00  0.00    +0.000 C 
ATOM     30  C   UNL     1       1.427   2.383  18.380  0.00  0.00    +0.000 C 
ENDBRANCH  28  30
ENDBRANCH  18  28
ENDBRANCH  17  27
ENDBRANCH   1  17
TORSDOF 7
ENDMDL
MODEL 5
REMARK VINA RESULT:      -8.4      0.518      1.195
REMARK  Name = 
REMARK  9 active torsions:
REMARK  status: ('A' for Active; 'I' for Inactive)
REMARK    1  A    between atoms: C_1  and  C_2
REMARK    2  A    between atoms: C_2  and  C_3
REMARK    3  A    between atoms: C_3  and  C_4
REMARK    4  A    between atoms: C_7  and  C_8
REMARK    5  A    between atoms: N_13  and  C_14
REMARK    6  A    between atoms: C_14  and  C_15
REMARK    7  A    between atoms: C_18  and  C_19
REMARK    8  A    between atoms: C_24  and  C_25
REMARK    9  A    between atoms: C_25  and  O_27
REMARK                            x       y       z     vdW  Elec       q    Type
REMARK                         _______ _______ _______ _____ _____    ______ ____
ROOT
ATOM      1  C   UNL     1       2.632   7.126  19.415  0.00  0.00    +0.000 A 
ATOM      2  C   UNL     1       2.550   7.699  18.142  0.00  0.00    +0.000 A 
ATOM      3  C   UNL     1       1.627   8.716  17.878  0.00  0.00    +0.000 A 
ATOM      4  C   UNL     1       0.851   9.282  18.901  0.00  0.00    +0.000 A 
ATOM      5  C   UNL     1       0.948   8.700  20.177  0.00  0.00    +0.000 A 
ATOM      6  C   UNL     1       1.805   7.630  20.424  0.00  0.00    +0.000 A 
ENDROOT
BRANCH   4   7
ATOM      7  C   UNL     1       0.012  10.482  18.702  0.00  0.00    +0.000 A 
ATOM      8  C   UNL     1      -1.393  10.316  18.615  0.00  0.00    +0.000 A 
ATOM      9  C   UNL     1      -2.272  11.392  18.508  0.00  0.00    +0.000 A 
ATOM     10  C   UNL     1      -1.771  12.680  18.442  0.00  0.00    +0.000 A 
ATOM     11  C   UNL     1      -0.394  12.885  18.489  0.00  0.00    +0.000 A 
ATOM     12  C   UNL     1       0.510  11.809  18.636  0.00  0.00    +0.000 A 
BRANCH  12  13
ATOM     13  C   UNL     1       1.943  12.221  18.676  0.00  0.00    +0.000 C 
ATOM     14  O   UNL     1       2.450  12.651  19.707  0.00  0.00    +0.000 OA
BRANCH  13  15
ATOM     15  O   UNL     1       2.671  12.017  17.565  0.00  0.00    +0.000 OA
ATOM     16  H   UNL     1       3.525  12.488  17.507  0.00  0.00    +0.000 HD
ENDBRANCH  13  15
ENDBRANCH  12  13
ENDBRANCH   4   7
BRANCH   1  17
ATOM     17  C   UNL     1       3.516   5.929  19.654  0.00  0.00    +0.000 C 
BRANCH  17  27
ATOM     18  C   UNL     1       3.015   4.470  17.643  0.00  0.00    +0.000 A 
ATOM     19  N   UNL     1       3.611   4.128  16.515  0.00  0.00    +0.000 NA
ATOM     20  C   UNL     1       4.878   4.640  16.586  0.00  0.00    +0.000 A 
ATOM     21  C   UNL     1       5.930   4.597  15.657  0.00  0.00    +0.000 A 
ATOM     22  C   UNL     1       5.835   3.909  14.330  0.00  0.00    +0.000 C 
ATOM     23  C   UNL     1       7.108   5.256  16.041  0.00  0.00    +0.000 A 
ATOM     24  C   UNL     1       7.177   5.886  17.282  0.00  0.00    +0.000 A 
ATOM     25  N   UNL     1       6.181   5.952  18.200  0.00  0.00    +0.000 NA
ATOM     26  C   UNL     1       5.069   5.307  17.790  0.00  0.00    +0.000 A 
ATOM     27  N   UNL     1       3.871   5.197  18.450  0.00  0.00    +0.000 N 
BRANCH  18  28
ATOM     28  C   UNL     1       1.597   4.145  17.978  0.00  0.00    +0.000 C 
BRANCH  28  30
ATOM     29  C   UNL     1       1.112   3.171  20.250  0.00  0.00    +0.000 C 
ATOM     30  C   UNL     1       1.501   2.870  18.814  0.00  0.00    +0.000 C 
ENDBRANCH  28  30
ENDBRANCH  18  28
ENDBRANCH  17  27
ENDBRANCH   1  17
TORSDOF 7
ENDMDL
MODEL 6
REMARK VINA RESULT:      -8.4      3.776      8.584
REMARK  Name = 
REMARK  9 active torsions:
REMARK  status: ('A' for Active; 'I' for Inactive)
REMARK    1  A    between atoms: C_1  and  C_2
REMARK    2  A    between atoms: C_2  and  C_3
REMARK    3  A    between atoms: C_3  and  C_4
REMARK    4  A    between atoms: C_7  and  C_8
REMARK    5  A    between atoms: N_13  and  C_14
REMARK    6  A    between atoms: C_14  and  C_15
REMARK    7  A    between atoms: C_18  and  C_19
REMARK    8  A    between atoms: C_24  and  C_25
REMARK    9  A    between atoms: C_25  and  O_27
REMARK                            x       y       z     vdW  Elec       q    Type
REMARK                         _______ _______ _______ _____ _____    ______ ____
ROOT
ATOM      1  C   UNL     1       1.308   9.340  19.141  0.00  0.00    +0.000 A 
ATOM      2  C   UNL     1       1.821   8.556  18.103  0.00  0.00    +0.000 A 
ATOM      3  C   UNL     1       2.309   7.271  18.357  0.00  0.00    +0.000 A 
ATOM      4  C   UNL     1       2.181   6.678  19.623  0.00  0.00    +0.000 A 
ATOM      5  C   UNL     1       1.658   7.475  20.655  0.00  0.00    +0.000 A 
ATOM      6  C   UNL     1       1.249   8.787  20.424  0.00  0.00    +0.000 A 
ENDROOT
BRANCH   4   7
ATOM      7  C   UNL     1       2.504   5.259  19.881  0.00  0.00    +0.000 A 
ATOM      8  C   UNL     1       1.507   4.436  20.465  0.00  0.00    +0.000 A 
ATOM      9  C   UNL     1       1.689   3.070  20.673  0.00  0.00    +0.000 A 
ATOM     10  C   UNL     1       2.896   2.482  20.341  0.00  0.00    +0.000 A 
ATOM     11  C   UNL     1       3.914   3.262  19.797  0.00  0.00    +0.000 A 
ATOM     12  C   UNL     1       3.735   4.640  19.543  0.00  0.00    +0.000 A 
BRANCH  12  13
ATOM     13  C   UNL     1       4.930   5.309  18.952  0.00  0.00    +0.000 C 
ATOM     14  O   UNL     1       5.903   5.594  19.644  0.00  0.00    +0.000 OA
BRANCH  13  15
ATOM     15  O   UNL     1       4.931   5.502  17.622  0.00  0.00    +0.000 OA
ATOM     16  H   UNL     1       5.711   5.952  17.245  0.00  0.00    +0.000 HD
ENDBRANCH  13  15
ENDBRANCH  12  13
ENDBRANCH   4   7
BRANCH   1  17
ATOM     17  C   UNL     1       0.928  10.777  18.891  0.00  0.00    +0.000 C 
BRANCH  17  27
ATOM     18  C   UNL     1      -1.000  11.866  20.125  0.00  0.00    +0.000 A 
ATOM     19  N   UNL     1      -2.279  12.113  19.909  0.00  0.00    +0.000 NA
ATOM     20  C   UNL     1      -2.597  11.468  18.745  0.00  0.00    +0.000 A 
ATOM     21  C   UNL     1      -3.810  11.412  18.038  0.00  0.00    +0.000 A 
ATOM     22  C   UNL     1      -5.065  12.090  18.494  0.00  0.00    +0.000 C 
ATOM     23  C   UNL     1      -3.785  10.672  16.846  0.00  0.00    +0.000 A 
ATOM     24  C   UNL     1      -2.608  10.045  16.443  0.00  0.00    +0.000 A 
ATOM     25  N   UNL     1      -1.420  10.082  17.097  0.00  0.00    +0.000 NA
ATOM     26  C   UNL     1      -1.489  10.804  18.235  0.00  0.00    +0.000 A 
ATOM     27  N   UNL     1      -0.476  11.073  19.121  0.00  0.00    +0.000 N 
BRANCH  18  28
ATOM     28  C   UNL     1      -0.221  12.406  21.279  0.00  0.00    +0.000 C 
BRANCH  28  30
ATOM     29  C   UNL     1      -0.802  10.577  22.910  0.00  0.00    +0.000 C 
ATOM     30  C   UNL     1      -0.887  12.062  22.610  0.00  0.00    +0.000 C 
ENDBRANCH  28  30
ENDBRANCH  18  28
ENDBRANCH  17  27
ENDBRANCH   1  17
TORSDOF 7
ENDMDL
MODEL 7
REMARK VINA RESULT:      -8.3      0.721      1.025
REMARK  Name = 
REMARK  9 active torsions:
REMARK  status: ('A' for Active; 'I' for Inactive)
REMARK    1  A    between atoms: C_1  and  C_2
REMARK    2  A    between atoms: C_2  and  C_3
REMARK    3  A    between atoms: C_3  and  C_4
REMARK    4  A    between atoms: C_7  and  C_8
REMARK    5  A    between atoms: N_13  and  C_14
REMARK    6  A    between atoms: C_14  and  C_15
REMARK    7  A    between atoms: C_18  and  C_19
REMARK    8  A    between atoms: C_24  and  C_25
REMARK    9  A    between atoms: C_25  and  O_27
REMARK                            x       y       z     vdW  Elec       q    Type
REMARK                         _______ _______ _______ _____ _____    ______ ____
ROOT
ATOM      1  C   UNL     1       2.490   6.807  19.698  0.00  0.00    +0.000 A 
ATOM      2  C   UNL     1       1.575   7.186  20.684  0.00  0.00    +0.000 A 
ATOM      3  C   UNL     1       0.821   8.355  20.544  0.00  0.00    +0.000 A 
ATOM      4  C   UNL     1       0.859   9.111  19.362  0.00  0.00    +0.000 A 
ATOM      5  C   UNL     1       1.779   8.715  18.376  0.00  0.00    +0.000 A 
ATOM      6  C   UNL     1       2.594   7.598  18.549  0.00  0.00    +0.000 A 
ENDROOT
BRANCH   4   7
ATOM      7  C   UNL     1      -0.062  10.236  19.098  0.00  0.00    +0.000 A 
ATOM      8  C   UNL     1      -0.907  10.164  17.961  0.00  0.00    +0.000 A 
ATOM      9  C   UNL     1      -1.863  11.136  17.673  0.00  0.00    +0.000 A 
ATOM     10  C   UNL     1      -1.982  12.242  18.495  0.00  0.00    +0.000 A 
ATOM     11  C   UNL     1      -1.148  12.369  19.603  0.00  0.00    +0.000 A 
ATOM     12  C   UNL     1      -0.199  11.375  19.933  0.00  0.00    +0.000 A 
BRANCH  12  13
ATOM     13  C   UNL     1       0.597  11.678  21.156  0.00  0.00    +0.000 C 
ATOM     14  O   UNL     1       0.255  11.254  22.256  0.00  0.00    +0.000 OA
BRANCH  13  15
ATOM     15  O   UNL     1       1.746  12.354  20.990  0.00  0.00    +0.000 OA
ATOM     16  H   UNL     1       2.153  12.734  21.793  0.00  0.00    +0.000 HD
ENDBRANCH  13  15
ENDBRANCH  12  13
ENDBRANCH   4   7
BRANCH   1  17
ATOM     17  C   UNL     1       3.409   5.634  19.925  0.00  0.00    +0.000 C 
BRANCH  17  27
ATOM     18  C   UNL     1       3.002   4.377  17.761  0.00  0.00    +0.000 A 
ATOM     19  N   UNL     1       3.685   4.058  16.677  0.00  0.00    +0.000 NA
ATOM     20  C   UNL     1       4.978   4.434  16.920  0.00  0.00    +0.000 A 
ATOM     21  C   UNL     1       6.118   4.352  16.104  0.00  0.00    +0.000 A 
ATOM     22  C   UNL     1       6.107   3.772  14.724  0.00  0.00    +0.000 C 
ATOM     23  C   UNL     1       7.302   4.861  16.660  0.00  0.00    +0.000 A 
ATOM     24  C   UNL     1       7.291   5.392  17.948  0.00  0.00    +0.000 A 
ATOM     25  N   UNL     1       6.209   5.492  18.761  0.00  0.00    +0.000 NA
ATOM     26  C   UNL     1       5.095   4.993  18.187  0.00  0.00    +0.000 A 
ATOM     27  N   UNL     1       3.826   4.957  18.709  0.00  0.00    +0.000 N 
BRANCH  18  28
ATOM     28  C   UNL     1       1.531   4.173  17.921  0.00  0.00    +0.000 C 
BRANCH  28  30
ATOM     29  C   UNL     1       1.927   1.924  18.985  0.00  0.00    +0.000 C 
ATOM     30  C   UNL     1       1.222   3.262  19.109  0.00  0.00    +0.000 C 
ENDBRANCH  28  30
ENDBRANCH  18  28
ENDBRANCH  17  27
ENDBRANCH   1  17
TORSDOF 7
ENDMDL
MODEL 8
REMARK VINA RESULT:      -8.1      3.817      8.607
REMARK  Name = 
REMARK  9 active torsions:
REMARK  status: ('A' for Active; 'I' for Inactive)
REMARK    1  A    between atoms: C_1  and  C_2
REMARK    2  A    between atoms: C_2  and  C_3
REMARK    3  A    between atoms: C_3  and  C_4
REMARK    4  A    between atoms: C_7  and  C_8
REMARK    5  A    between atoms: N_13  and  C_14
REMARK    6  A    between atoms: C_14  and  C_15
REMARK    7  A    between atoms: C_18  and  C_19
REMARK    8  A    between atoms: C_24  and  C_25
REMARK    9  A    between atoms: C_25  and  O_27
REMARK                            x       y       z     vdW  Elec       q    Type
REMARK                         _______ _______ _______ _____ _____    ______ ____
ROOT
ATOM      1  C   UNL     1       1.516   9.355  18.906  0.00  0.00    +0.000 A 
ATOM      2  C   UNL     1       1.982   8.470  17.929  0.00  0.00    +0.000 A 
ATOM      3  C   UNL     1       2.355   7.166  18.271  0.00  0.00    +0.000 A 
ATOM      4  C   UNL     1       2.154   6.665  19.566  0.00  0.00    +0.000 A 
ATOM      5  C   UNL     1       1.680   7.564  20.536  0.00  0.00    +0.000 A 
ATOM      6  C   UNL     1       1.386   8.888  20.218  0.00  0.00    +0.000 A 
ENDROOT
BRANCH   4   7
ATOM      7  C   UNL     1       2.352   5.243  19.916  0.00  0.00    +0.000 A 
ATOM      8  C   UNL     1       1.307   4.563  20.594  0.00  0.00    +0.000 A 
ATOM      9  C   UNL     1       1.367   3.204  20.895  0.00  0.00    +0.000 A 
ATOM     10  C   UNL     1       2.498   2.480  20.564  0.00  0.00    +0.000 A 
ATOM     11  C   UNL     1       3.561   3.117  19.928  0.00  0.00    +0.000 A 
ATOM     12  C   UNL     1       3.503   4.485  19.580  0.00  0.00    +0.000 A 
BRANCH  12  13
ATOM     13  C   UNL     1       4.729   4.991  18.898  0.00  0.00    +0.000 C 
ATOM     14  O   UNL     1       4.807   5.018  17.674  0.00  0.00    +0.000 OA
BRANCH  13  15
ATOM     15  O   UNL     1       5.700   5.496  19.677  0.00  0.00    +0.000 OA
ATOM     16  H   UNL     1       6.619   5.276  19.431  0.00  0.00    +0.000 HD
ENDBRANCH  13  15
ENDBRANCH  12  13
ENDBRANCH   4   7
BRANCH   1  17
ATOM     17  C   UNL     1       1.263  10.801  18.562  0.00  0.00    +0.000 C 
BRANCH  17  27
ATOM     18  C   UNL     1      -1.268  10.850  18.428  0.00  0.00    +0.000 A 
ATOM     19  N   UNL     1      -2.272  11.323  19.144  0.00  0.00    +0.000 NA
ATOM     20  C   UNL     1      -1.707  12.079  20.134  0.00  0.00    +0.000 A 
ATOM     21  C   UNL     1      -2.304  12.792  21.187  0.00  0.00    +0.000 A 
ATOM     22  C   UNL     1      -3.784  12.862  21.404  0.00  0.00    +0.000 C 
ATOM     23  C   UNL     1      -1.419  13.449  22.055  0.00  0.00    +0.000 A 
ATOM     24  C   UNL     1      -0.045  13.375  21.832  0.00  0.00    +0.000 A 
ATOM     25  N   UNL     1       0.565  12.693  20.831  0.00  0.00    +0.000 NA
ATOM     26  C   UNL     1      -0.322  12.076  20.023  0.00  0.00    +0.000 A 
ATOM     27  N   UNL     1      -0.056  11.282  18.935  0.00  0.00    +0.000 N 
BRANCH  18  28
ATOM     28  C   UNL     1      -1.425   9.939  17.255  0.00  0.00    +0.000 C 
BRANCH  28  30
ATOM     29  C   UNL     1      -2.884  10.319  15.237  0.00  0.00    +0.000 C 
ATOM     30  C   UNL     1      -2.854   9.970  16.714  0.00  0.00    +0.000 C 
ENDBRANCH  28  30
ENDBRANCH  18  28
ENDBRANCH  17  27
ENDBRANCH   1  17
TORSDOF 7
ENDMDL
MODEL 9
REMARK VINA RESULT:      -8.0      0.638      1.156
REMARK  Name = 
REMARK  9 active torsions:
REMARK  status: ('A' for Active; 'I' for Inactive)
REMARK    1  A    between atoms: C_1  and  C_2
REMARK    2  A    between atoms: C_2  and  C_3
REMARK    3  A    between atoms: C_3  and  C_4
REMARK    4  A    between atoms: C_7  and  C_8
REMARK    5  A    between atoms: N_13  and  C_14
REMARK    6  A    between atoms: C_14  and  C_15
REMARK    7  A    between atoms: C_18  and  C_19
REMARK    8  A    between atoms: C_24  and  C_25
REMARK    9  A    between atoms: C_25  and  O_27
REMARK                            x       y       z     vdW  Elec       q    Type
REMARK                         _______ _______ _______ _____ _____    ______ ____
ROOT
ATOM      1  C   UNL     1       2.659   6.881  19.573  0.00  0.00    +0.000 A 
ATOM      2  C   UNL     1       2.690   7.614  18.384  0.00  0.00    +0.000 A 
ATOM      3  C   UNL     1       1.748   8.620  18.143  0.00  0.00    +0.000 A 
ATOM      4  C   UNL     1       0.834   9.015  19.132  0.00  0.00    +0.000 A 
ATOM      5  C   UNL     1       0.818   8.273  20.325  0.00  0.00    +0.000 A 
ATOM      6  C   UNL     1       1.699   7.214  20.534  0.00  0.00    +0.000 A 
ENDROOT
BRANCH   4   7
ATOM      7  C   UNL     1      -0.042  10.197  18.989  0.00  0.00    +0.000 A 
ATOM      8  C   UNL     1      -0.937  10.246  17.890  0.00  0.00    +0.000 A 
ATOM      9  C   UNL     1      -1.856  11.279  17.715  0.00  0.00    +0.000 A 
ATOM     10  C   UNL     1      -1.884  12.328  18.615  0.00  0.00    +0.000 A 
ATOM     11  C   UNL     1      -0.999  12.336  19.690  0.00  0.00    +0.000 A 
ATOM     12  C   UNL     1      -0.087  11.279  19.906  0.00  0.00    +0.000 A 
BRANCH  12  13
ATOM     13  C   UNL     1       0.775  11.457  21.109  0.00  0.00    +0.000 C 
ATOM     14  O   UNL     1       1.773  12.172  21.074  0.00  0.00    +0.000 OA
BRANCH  13  15
ATOM     15  O   UNL     1       0.365  10.877  22.250  0.00  0.00    +0.000 OA
ATOM     16  H   UNL     1       0.022   9.965  22.180  0.00  0.00    +0.000 HD
ENDBRANCH  13  15
ENDBRANCH  12  13
ENDBRANCH   4   7
BRANCH   1  17
ATOM     17  C   UNL     1       3.575   5.699  19.761  0.00  0.00    +0.000 C 
BRANCH  17  27
ATOM     18  C   UNL     1       3.039   4.347  17.684  0.00  0.00    +0.000 A 
ATOM     19  N   UNL     1       3.634   4.028  16.550  0.00  0.00    +0.000 NA
ATOM     20  C   UNL     1       4.921   4.483  16.656  0.00  0.00    +0.000 A 
ATOM     21  C   UNL     1       5.982   4.436  15.737  0.00  0.00    +0.000 A 
ATOM     22  C   UNL     1       5.874   3.807  14.382  0.00  0.00    +0.000 C 
ATOM     23  C   UNL     1       7.181   5.028  16.161  0.00  0.00    +0.000 A 
ATOM     24  C   UNL     1       7.260   5.603  17.428  0.00  0.00    +0.000 A 
ATOM     25  N   UNL     1       6.256   5.671  18.338  0.00  0.00    +0.000 NA
ATOM     26  C   UNL     1       5.124   5.091  17.889  0.00  0.00    +0.000 A 
ATOM     27  N   UNL     1       3.914   5.004  18.531  0.00  0.00    +0.000 N 
BRANCH  18  28
ATOM     28  C   UNL     1       1.605   4.067  17.991  0.00  0.00    +0.000 C 
BRANCH  28  30
ATOM     29  C   UNL     1       1.482   2.606  20.039  0.00  0.00    +0.000 C 
ATOM     30  C   UNL     1       1.416   2.648  18.523  0.00  0.00    +0.000 C 
ENDBRANCH  28  30
ENDBRANCH  18  28
ENDBRANCH  17  27
ENDBRANCH   1  17
TORSDOF 7
ENDMDL
