MODEL 1
REMARK VINA RESULT:      -8.1      0.000      0.000
REMARK  Name = 
REMARK  8 active torsions:
REMARK  status: ('A' for Active; 'I' for Inactive)
REMARK    1  A    between atoms: C_1  and  O_2
REMARK    2  A    between atoms: O_2  and  C_3
REMARK    3  A    between atoms: C_6  and  C_7
REMARK    4  A    between atoms: N_9  and  C_10
REMARK    5  A    between atoms: C_17  and  C_18
REMARK    6  A    between atoms: N_26  and  C_27
REMARK    7  A    between atoms: C_27  and  C_28
REMARK    8  A    between atoms: C_31  and  C_32
REMARK                            x       y       z     vdW  Elec       q    Type
REMARK                         _______ _______ _______ _____ _____    ______ ____
ROOT
ATOM      1  C   UNL     1      -1.002  11.454  18.529  0.00  0.00    +0.000 A 
ATOM      2  N   UNL     1      -0.531  10.203  18.362  0.00  0.00    +0.000 NA
ATOM      3  N   UNL     1       0.752  10.228  18.767  0.00  0.00    +0.000 N 
ATOM      4  C   UNL     1       1.145  11.497  19.093  0.00  0.00    +0.000 A 
ATOM      5  C   UNL     1       0.043  12.312  18.984  0.00  0.00    +0.000 A 
ENDROOT
BRANCH   5   6
ATOM      6  C   UNL     1       0.080  13.784  19.232  0.00  0.00    +0.000 A 
ATOM      7  N   UNL     1      -0.304  14.657  18.324  0.00  0.00    +0.000 NA
ATOM      8  C   UNL     1       0.029  15.891  18.816  0.00  0.00    +0.000 A 
ATOM      9  C   UNL     1      -0.147  17.154  18.234  0.00  0.00    +0.000 A 
ATOM     10  C   UNL     1       0.276  18.286  18.939  0.00  0.00    +0.000 A 
ATOM     11  C   UNL     1       0.879  18.160  20.192  0.00  0.00    +0.000 A 
ATOM     12  C   UNL     1       1.052  16.906  20.794  0.00  0.00    +0.000 A 
ATOM     13  C   UNL     1       0.602  15.787  20.079  0.00  0.00    +0.000 A 
ATOM     14  N   UNL     1       0.517  14.438  20.377  0.00  0.00    +0.000 N 
BRANCH  14  15
ATOM     15  C   UNL     1       0.414  13.920  21.745  0.00  0.00    +0.000 C 
BRANCH  15  16
ATOM     16  C   UNL     1      -0.969  13.561  22.245  0.00  0.00    +0.000 A 
ATOM     17  C   UNL     1      -2.071  14.423  22.175  0.00  0.00    +0.000 A 
ATOM     18  C   UNL     1      -3.299  14.057  22.746  0.00  0.00    +0.000 A 
ATOM     19  C   UNL     1      -3.456  12.809  23.357  0.00  0.00    +0.000 A 
ATOM     20  C   UNL     1      -2.385  11.915  23.373  0.00  0.00    +0.000 A 
ATOM     21  C   UNL     1      -1.155  12.287  22.817  0.00  0.00    +0.000 A 
BRANCH  19  22
ATOM     22  C   UNL     1      -4.699  12.457  23.981  0.00  0.00    +0.000 C 
ATOM     23  N   UNL     1      -5.711  12.190  24.482  0.00  0.00    +0.000 NA
ENDBRANCH  19  22
ENDBRANCH  15  16
ENDBRANCH  14  15
ENDBRANCH   5   6
BRANCH   1  27
ATOM     24  C   UNL     1      -5.258  11.648  18.059  0.00  0.00    +0.000 A 
ATOM     25  C   UNL     1      -4.659  12.109  19.233  0.00  0.00    +0.000 A 
ATOM     26  C   UNL     1      -3.265  12.131  19.371  0.00  0.00    +0.000 A 
ATOM     27  C   UNL     1      -2.444  11.672  18.336  0.00  0.00    +0.000 A 
ATOM     28  C   UNL     1      -3.057  11.244  17.146  0.00  0.00    +0.000 A 
ATOM     29  C   UNL     1      -4.452  11.229  17.005  0.00  0.00    +0.000 A 
BRANCH  24  31
ATOM     30  C   UNL     1      -7.311  12.839  18.079  0.00  0.00    +0.000 C 
ATOM     31  O   UNL     1      -6.624  11.594  18.090  0.00  0.00    +0.000 OA
ENDBRANCH  24  31
ENDBRANCH   1  27
BRANCH   3  32
ATOM     32  C   UNL     1       1.520   9.036  18.858  0.00  0.00    +0.000 A 
ATOM     33  C   UNL     1       2.318   8.645  17.773  0.00  0.00    +0.000 A 
ATOM     34  C   UNL     1       3.034   7.449  17.826  0.00  0.00    +0.000 A 
ATOM     35  C   UNL     1       2.954   6.639  18.956  0.00  0.00    +0.000 A 
ATOM     36  C   UNL     1       2.180   7.023  20.045  0.00  0.00    +0.000 A 
ATOM     37  C   UNL     1       1.462   8.221  19.999  0.00  0.00    +0.000 A 
ENDBRANCH   3  32
TORSDOF 7
ENDMDL
MODEL 2
REMARK VINA RESULT:      -8.1      0.456      1.177
REMARK  Name = 
REMARK  8 active torsions:
REMARK  status: ('A' for Active; 'I' for Inactive)
REMARK    1  A    between atoms: C_1  and  O_2
REMARK    2  A    between atoms: O_2  and  C_3
REMARK    3  A    between atoms: C_6  and  C_7
REMARK    4  A    between atoms: N_9  and  C_10
REMARK    5  A    between atoms: C_17  and  C_18
REMARK    6  A    between atoms: N_26  and  C_27
REMARK    7  A    between atoms: C_27  and  C_28
REMARK    8  A    between atoms: C_31  and  C_32
REMARK                            x       y       z     vdW  Elec       q    Type
REMARK                         _______ _______ _______ _____ _____    ______ ____
ROOT
ATOM      1  C   UNL     1      -0.989  11.375  18.451  0.00  0.00    +0.000 A 
ATOM      2  N   UNL     1      -0.529  10.119  18.282  0.00  0.00    +0.000 NA
ATOM      3  N   UNL     1       0.743  10.123  18.721  0.00  0.00    +0.000 N 
ATOM      4  C   UNL     1       1.143  11.383  19.072  0.00  0.00    +0.000 A 
ATOM      5  C   UNL     1       0.055  12.214  18.943  0.00  0.00    +0.000 A 
ENDROOT
BRANCH   5   6
ATOM      6  C   UNL     1       0.103  13.682  19.210  0.00  0.00    +0.000 A 
ATOM      7  N   UNL     1      -0.451  14.559  18.399  0.00  0.00    +0.000 NA
ATOM      8  C   UNL     1      -0.064  15.793  18.849  0.00  0.00    +0.000 A 
ATOM      9  C   UNL     1      -0.365  17.060  18.331  0.00  0.00    +0.000 A 
ATOM     10  C   UNL     1       0.151  18.192  18.972  0.00  0.00    +0.000 A 
ATOM     11  C   UNL     1       0.966  18.061  20.098  0.00  0.00    +0.000 A 
ATOM     12  C   UNL     1       1.269  16.803  20.637  0.00  0.00    +0.000 A 
ATOM     13  C   UNL     1       0.724  15.684  19.990  0.00  0.00    +0.000 A 
ATOM     14  N   UNL     1       0.720  14.329  20.273  0.00  0.00    +0.000 N 
BRANCH  14  15
ATOM     15  C   UNL     1       0.870  13.789  21.627  0.00  0.00    +0.000 C 
BRANCH  15  16
ATOM     16  C   UNL     1      -0.395  13.365  22.344  0.00  0.00    +0.000 A 
ATOM     17  C   UNL     1      -0.815  12.034  22.460  0.00  0.00    +0.000 A 
ATOM     18  C   UNL     1      -2.048  11.726  23.055  0.00  0.00    +0.000 A 
ATOM     19  C   UNL     1      -2.857  12.737  23.581  0.00  0.00    +0.000 A 
ATOM     20  C   UNL     1      -2.418  14.060  23.532  0.00  0.00    +0.000 A 
ATOM     21  C   UNL     1      -1.195  14.369  22.924  0.00  0.00    +0.000 A 
BRANCH  19  22
ATOM     22  C   UNL     1      -4.137  12.423  24.148  0.00  0.00    +0.000 C 
ATOM     23  N   UNL     1      -5.181  12.181  24.594  0.00  0.00    +0.000 NA
ENDBRANCH  19  22
ENDBRANCH  15  16
ENDBRANCH  14  15
ENDBRANCH   5   6
BRANCH   1  27
ATOM     24  C   UNL     1      -5.227  11.628  17.865  0.00  0.00    +0.000 A 
ATOM     25  C   UNL     1      -4.657  12.057  19.065  0.00  0.00    +0.000 A 
ATOM     26  C   UNL     1      -3.266  12.060  19.243  0.00  0.00    +0.000 A 
ATOM     27  C   UNL     1      -2.422  11.613  18.222  0.00  0.00    +0.000 A 
ATOM     28  C   UNL     1      -3.005  11.217  17.006  0.00  0.00    +0.000 A 
ATOM     29  C   UNL     1      -4.396  11.222  16.825  0.00  0.00    +0.000 A 
BRANCH  24  31
ATOM     30  C   UNL     1      -7.246  11.858  19.091  0.00  0.00    +0.000 C 
ATOM     31  O   UNL     1      -6.594  11.589  17.856  0.00  0.00    +0.000 OA
ENDBRANCH  24  31
ENDBRANCH   1  27
BRANCH   3  32
ATOM     32  C   UNL     1       1.493   8.920  18.820  0.00  0.00    +0.000 A 
ATOM     33  C   UNL     1       1.466   8.186  20.015  0.00  0.00    +0.000 A 
ATOM     34  C   UNL     1       2.241   7.035  20.147  0.00  0.00    +0.000 A 
ATOM     35  C   UNL     1       3.048   6.614  19.093  0.00  0.00    +0.000 A 
ATOM     36  C   UNL     1       3.072   7.322  17.897  0.00  0.00    +0.000 A 
ATOM     37  C   UNL     1       2.295   8.476  17.757  0.00  0.00    +0.000 A 
ENDBRANCH   3  32
TORSDOF 7
ENDMDL
MODEL 3
REMARK VINA RESULT:      -8.0      0.479      1.202
REMARK  Name = 
REMARK  8 active torsions:
REMARK  status: ('A' for Active; 'I' for Inactive)
REMARK    1  A    between atoms: C_1  and  O_2
REMARK    2  A    between atoms: O_2  and  C_3
REMARK    3  A    between atoms: C_6  and  C_7
REMARK    4  A    between atoms: N_9  and  C_10
REMARK    5  A    between atoms: C_17  and  C_18
REMARK    6  A    between atoms: N_26  and  C_27
REMARK    7  A    between atoms: C_27  and  C_28
REMARK    8  A    between atoms: C_31  and  C_32
REMARK                            x       y       z     vdW  Elec       q    Type
REMARK                         _______ _______ _______ _____ _____    ______ ____
ROOT
ATOM      1  C   UNL     1      -1.046  11.392  18.777  0.00  0.00    +0.000 A 
ATOM      2  N   UNL     1      -0.572  10.145  18.586  0.00  0.00    +0.000 NA
ATOM      3  N   UNL     1       0.751  10.207  18.825  0.00  0.00    +0.000 N 
ATOM      4  C   UNL     1       1.153  11.493  19.064  0.00  0.00    +0.000 A 
ATOM      5  C   UNL     1       0.028  12.283  19.072  0.00  0.00    +0.000 A 
ENDROOT
BRANCH   5   6
ATOM      6  C   UNL     1       0.062  13.762  19.273  0.00  0.00    +0.000 A 
ATOM      7  N   UNL     1      -0.463  14.599  18.403  0.00  0.00    +0.000 NA
ATOM      8  C   UNL     1      -0.096  15.854  18.811  0.00  0.00    +0.000 A 
ATOM      9  C   UNL     1      -0.380  17.095  18.225  0.00  0.00    +0.000 A 
ATOM     10  C   UNL     1       0.107  18.257  18.834  0.00  0.00    +0.000 A 
ATOM     11  C   UNL     1       0.878  18.180  19.996  0.00  0.00    +0.000 A 
ATOM     12  C   UNL     1       1.162  16.949  20.602  0.00  0.00    +0.000 A 
ATOM     13  C   UNL     1       0.646  15.800  19.986  0.00  0.00    +0.000 A 
ATOM     14  N   UNL     1       0.635  14.459  20.329  0.00  0.00    +0.000 N 
BRANCH  14  15
ATOM     15  C   UNL     1       0.733  13.981  21.712  0.00  0.00    +0.000 C 
BRANCH  15  16
ATOM     16  C   UNL     1      -0.554  13.550  22.385  0.00  0.00    +0.000 A 
ATOM     17  C   UNL     1      -0.859  12.220  22.702  0.00  0.00    +0.000 A 
ATOM     18  C   UNL     1      -2.111  11.885  23.237  0.00  0.00    +0.000 A 
ATOM     19  C   UNL     1      -3.060  12.877  23.504  0.00  0.00    +0.000 A 
ATOM     20  C   UNL     1      -2.743  14.212  23.255  0.00  0.00    +0.000 A 
ATOM     21  C   UNL     1      -1.498  14.544  22.706  0.00  0.00    +0.000 A 
BRANCH  19  22
ATOM     22  C   UNL     1      -4.357  12.525  24.008  0.00  0.00    +0.000 C 
ATOM     23  N   UNL     1      -5.401  12.223  24.415  0.00  0.00    +0.000 NA
ENDBRANCH  19  22
ENDBRANCH  15  16
ENDBRANCH  14  15
ENDBRANCH   5   6
BRANCH   1  27
ATOM     24  C   UNL     1      -5.219  12.355  18.594  0.00  0.00    +0.000 A 
ATOM     25  C   UNL     1      -4.625  11.607  17.576  0.00  0.00    +0.000 A 
ATOM     26  C   UNL     1      -3.283  11.212  17.659  0.00  0.00    +0.000 A 
ATOM     27  C   UNL     1      -2.505  11.576  18.762  0.00  0.00    +0.000 A 
ATOM     28  C   UNL     1      -3.124  12.298  19.798  0.00  0.00    +0.000 A 
ATOM     29  C   UNL     1      -4.468  12.687  19.718  0.00  0.00    +0.000 A 
BRANCH  24  31
ATOM     30  C   UNL     1      -7.446  12.547  19.392  0.00  0.00    +0.000 C 
ATOM     31  O   UNL     1      -6.504  12.751  18.347  0.00  0.00    +0.000 OA
ENDBRANCH  24  31
ENDBRANCH   1  27
BRANCH   3  32
ATOM     32  C   UNL     1       1.552   9.033  18.852  0.00  0.00    +0.000 A 
ATOM     33  C   UNL     1       2.326   8.700  17.730  0.00  0.00    +0.000 A 
ATOM     34  C   UNL     1       3.073   7.523  17.719  0.00  0.00    +0.000 A 
ATOM     35  C   UNL     1       3.048   6.672  18.822  0.00  0.00    +0.000 A 
ATOM     36  C   UNL     1       2.298   6.998  19.947  0.00  0.00    +0.000 A 
ATOM     37  C   UNL     1       1.548   8.178  19.964  0.00  0.00    +0.000 A 
ENDBRANCH   3  32
TORSDOF 7
ENDMDL
MODEL 4
REMARK VINA RESULT:      -7.5      3.053      7.924
REMARK  Name = 
REMARK  8 active torsions:
REMARK  status: ('A' for Active; 'I' for Inactive)
REMARK    1  A    between atoms: C_1  and  O_2
REMARK    2  A    between atoms: O_2  and  C_3
REMARK    3  A    between atoms: C_6  and  C_7
REMARK    4  A    between atoms: N_9  and  C_10
REMARK    5  A    between atoms: C_17  and  C_18
REMARK    6  A    between atoms: N_26  and  C_27
REMARK    7  A    between atoms: C_27  and  C_28
REMARK    8  A    between atoms: C_31  and  C_32
REMARK                            x       y       z     vdW  Elec       q    Type
REMARK                         _______ _______ _______ _____ _____    ______ ____
ROOT
ATOM      1  C   UNL     1       0.859  13.016  20.966  0.00  0.00    +0.000 A 
ATOM      2  N   UNL     1       0.123  13.877  21.697  0.00  0.00    +0.000 NA
ATOM      3  N   UNL     1      -0.750  13.126  22.393  0.00  0.00    +0.000 N 
ATOM      4  C   UNL     1      -0.658  11.806  22.044  0.00  0.00    +0.000 A 
ATOM      5  C   UNL     1       0.381  11.684  21.153  0.00  0.00    +0.000 A 
ENDROOT
BRANCH   5   6
ATOM      6  C   UNL     1       0.775  10.392  20.518  0.00  0.00    +0.000 A 
ATOM      7  N   UNL     1       1.004   9.305  21.226  0.00  0.00    +0.000 NA
ATOM      8  C   UNL     1       1.508   8.380  20.352  0.00  0.00    +0.000 A 
ATOM      9  C   UNL     1       1.930   7.066  20.598  0.00  0.00    +0.000 A 
ATOM     10  C   UNL     1       2.413   6.301  19.530  0.00  0.00    +0.000 A 
ATOM     11  C   UNL     1       2.489   6.842  18.246  0.00  0.00    +0.000 A 
ATOM     12  C   UNL     1       2.061   8.149  17.979  0.00  0.00    +0.000 A 
ATOM     13  C   UNL     1       1.563   8.890  19.059  0.00  0.00    +0.000 A 
ATOM     14  N   UNL     1       0.977  10.141  19.167  0.00  0.00    +0.000 N 
BRANCH  14  15
ATOM     15  C   UNL     1       0.268  10.795  18.064  0.00  0.00    +0.000 C 
BRANCH  15  16
ATOM     16  C   UNL     1      -1.245  10.763  18.100  0.00  0.00    +0.000 A 
ATOM     17  C   UNL     1      -2.015   9.724  17.562  0.00  0.00    +0.000 A 
ATOM     18  C   UNL     1      -3.416   9.810  17.547  0.00  0.00    +0.000 A 
ATOM     19  C   UNL     1      -4.068  10.913  18.108  0.00  0.00    +0.000 A 
ATOM     20  C   UNL     1      -3.313  11.922  18.707  0.00  0.00    +0.000 A 
ATOM     21  C   UNL     1      -1.916  11.844  18.707  0.00  0.00    +0.000 A 
BRANCH  19  22
ATOM     22  C   UNL     1      -5.497  11.018  18.050  0.00  0.00    +0.000 C 
ATOM     23  N   UNL     1      -6.655  11.100  18.021  0.00  0.00    +0.000 NA
ENDBRANCH  19  22
ENDBRANCH  15  16
ENDBRANCH  14  15
ENDBRANCH   5   6
BRANCH   1  27
ATOM     24  C   UNL     1       4.043  14.990  18.883  0.00  0.00    +0.000 A 
ATOM     25  C   UNL     1       4.180  14.669  20.235  0.00  0.00    +0.000 A 
ATOM     26  C   UNL     1       3.185  13.950  20.911  0.00  0.00    +0.000 A 
ATOM     27  C   UNL     1       2.022  13.555  20.244  0.00  0.00    +0.000 A 
ATOM     28  C   UNL     1       1.910  13.852  18.874  0.00  0.00    +0.000 A 
ATOM     29  C   UNL     1       2.909  14.565  18.196  0.00  0.00    +0.000 A 
BRANCH  24  31
ATOM     30  C   UNL     1       6.185  15.964  19.193  0.00  0.00    +0.000 C 
ATOM     31  O   UNL     1       5.041  15.772  18.370  0.00  0.00    +0.000 OA
ENDBRANCH  24  31
ENDBRANCH   1  27
BRANCH   3  32
ATOM     32  C   UNL     1      -1.595  13.701  23.380  0.00  0.00    +0.000 A 
ATOM     33  C   UNL     1      -1.110  14.749  24.178  0.00  0.00    +0.000 A 
ATOM     34  C   UNL     1      -1.906  15.286  25.188  0.00  0.00    +0.000 A 
ATOM     35  C   UNL     1      -3.185  14.779  25.411  0.00  0.00    +0.000 A 
ATOM     36  C   UNL     1      -3.684  13.752  24.617  0.00  0.00    +0.000 A 
ATOM     37  C   UNL     1      -2.891  13.211  23.601  0.00  0.00    +0.000 A 
ENDBRANCH   3  32
TORSDOF 7
ENDMDL
MODEL 5
REMARK VINA RESULT:      -7.5      2.413      6.728
REMARK  Name = 
REMARK  8 active torsions:
REMARK  status: ('A' for Active; 'I' for Inactive)
REMARK    1  A    between atoms: C_1  and  O_2
REMARK    2  A    between atoms: O_2  and  C_3
REMARK    3  A    between atoms: C_6  and  C_7
REMARK    4  A    between atoms: N_9  and  C_10
REMARK    5  A    between atoms: C_17  and  C_18
REMARK    6  A    between atoms: N_26  and  C_27
REMARK    7  A    between atoms: C_27  and  C_28
REMARK    8  A    between atoms: C_31  and  C_32
REMARK                            x       y       z     vdW  Elec       q    Type
REMARK                         _______ _______ _______ _____ _____    ______ ____
ROOT
ATOM      1  C   UNL     1      -3.505  12.165  19.525  0.00  0.00    +0.000 A 
ATOM      2  N   UNL     1      -4.663  12.122  20.214  0.00  0.00    +0.000 NA
ATOM      3  N   UNL     1      -4.543  13.027  21.204  0.00  0.00    +0.000 N 
ATOM      4  C   UNL     1      -3.290  13.575  21.226  0.00  0.00    +0.000 A 
ATOM      5  C   UNL     1      -2.599  13.074  20.149  0.00  0.00    +0.000 A 
ENDROOT
BRANCH   5   6
ATOM      6  C   UNL     1      -1.178  13.417  19.850  0.00  0.00    +0.000 A 
ATOM      7  N   UNL     1      -0.797  14.647  19.573  0.00  0.00    +0.000 NA
ATOM      8  C   UNL     1       0.512  14.563  19.180  0.00  0.00    +0.000 A 
ATOM      9  C   UNL     1       1.379  15.583  18.763  0.00  0.00    +0.000 A 
ATOM     10  C   UNL     1       2.691  15.249  18.409  0.00  0.00    +0.000 A 
ATOM     11  C   UNL     1       3.124  13.923  18.454  0.00  0.00    +0.000 A 
ATOM     12  C   UNL     1       2.275  12.892  18.879  0.00  0.00    +0.000 A 
ATOM     13  C   UNL     1       0.971  13.252  19.248  0.00  0.00    +0.000 A 
ATOM     14  N   UNL     1      -0.093  12.552  19.793  0.00  0.00    +0.000 N 
BRANCH  14  15
ATOM     15  C   UNL     1       0.071  11.338  20.597  0.00  0.00    +0.000 C 
BRANCH  15  16
ATOM     16  C   UNL     1       0.788  10.172  19.948  0.00  0.00    +0.000 A 
ATOM     17  C   UNL     1       1.040  10.081  18.573  0.00  0.00    +0.000 A 
ATOM     18  C   UNL     1       1.623   8.926  18.031  0.00  0.00    +0.000 A 
ATOM     19  C   UNL     1       2.001   7.864  18.858  0.00  0.00    +0.000 A 
ATOM     20  C   UNL     1       1.816   7.971  20.236  0.00  0.00    +0.000 A 
ATOM     21  C   UNL     1       1.220   9.117  20.776  0.00  0.00    +0.000 A 
BRANCH  19  22
ATOM     22  C   UNL     1       2.554   6.666  18.295  0.00  0.00    +0.000 C 
ATOM     23  N   UNL     1       2.992   5.687  17.851  0.00  0.00    +0.000 NA
ENDBRANCH  19  22
ENDBRANCH  15  16
ENDBRANCH  14  15
ENDBRANCH   5   6
BRANCH   1  27
ATOM     24  C   UNL     1      -3.091  10.314  15.681  0.00  0.00    +0.000 A 
ATOM     25  C   UNL     1      -2.206   9.996  16.713  0.00  0.00    +0.000 A 
ATOM     26  C   UNL     1      -2.376  10.527  17.999  0.00  0.00    +0.000 A 
ATOM     27  C   UNL     1      -3.431  11.404  18.268  0.00  0.00    +0.000 A 
ATOM     28  C   UNL     1      -4.336  11.689  17.230  0.00  0.00    +0.000 A 
ATOM     29  C   UNL     1      -4.170  11.152  15.946  0.00  0.00    +0.000 A 
BRANCH  24  31
ATOM     30  C   UNL     1      -3.715   9.968  13.418  0.00  0.00    +0.000 C 
ATOM     31  O   UNL     1      -2.759   9.803  14.457  0.00  0.00    +0.000 OA
ENDBRANCH  24  31
ENDBRANCH   1  27
BRANCH   3  32
ATOM     32  C   UNL     1      -5.641  13.347  22.047  0.00  0.00    +0.000 A 
ATOM     33  C   UNL     1      -6.573  14.309  21.631  0.00  0.00    +0.000 A 
ATOM     34  C   UNL     1      -7.624  14.676  22.471  0.00  0.00    +0.000 A 
ATOM     35  C   UNL     1      -7.747  14.090  23.728  0.00  0.00    +0.000 A 
ATOM     36  C   UNL     1      -6.840  13.122  24.147  0.00  0.00    +0.000 A 
ATOM     37  C   UNL     1      -5.785  12.749  23.308  0.00  0.00    +0.000 A 
ENDBRANCH   3  32
TORSDOF 7
ENDMDL
MODEL 6
REMARK VINA RESULT:      -7.3      2.588      6.067
REMARK  Name = 
REMARK  8 active torsions:
REMARK  status: ('A' for Active; 'I' for Inactive)
REMARK    1  A    between atoms: C_1  and  O_2
REMARK    2  A    between atoms: O_2  and  C_3
REMARK    3  A    between atoms: C_6  and  C_7
REMARK    4  A    between atoms: N_9  and  C_10
REMARK    5  A    between atoms: C_17  and  C_18
REMARK    6  A    between atoms: N_26  and  C_27
REMARK    7  A    between atoms: C_27  and  C_28
REMARK    8  A    between atoms: C_31  and  C_32
REMARK                            x       y       z     vdW  Elec       q    Type
REMARK                         _______ _______ _______ _____ _____    ______ ____
ROOT
ATOM      1  C   UNL     1       0.888  11.216  20.461  0.00  0.00    +0.000 A 
ATOM      2  N   UNL     1       1.705  10.188  20.156  0.00  0.00    +0.000 NA
ATOM      3  N   UNL     1       1.047   9.068  20.508  0.00  0.00    +0.000 N 
ATOM      4  C   UNL     1      -0.136   9.363  21.130  0.00  0.00    +0.000 A 
ATOM      5  C   UNL     1      -0.293  10.728  21.096  0.00  0.00    +0.000 A 
ENDROOT
BRANCH   5   6
ATOM      6  C   UNL     1      -1.456  11.439  21.705  0.00  0.00    +0.000 A 
ATOM      7  N   UNL     1      -1.646  11.484  23.007  0.00  0.00    +0.000 NA
ATOM      8  C   UNL     1      -2.878  12.049  23.194  0.00  0.00    +0.000 A 
ATOM      9  C   UNL     1      -3.563  12.309  24.390  0.00  0.00    +0.000 A 
ATOM     10  C   UNL     1      -4.827  12.905  24.328  0.00  0.00    +0.000 A 
ATOM     11  C   UNL     1      -5.405  13.219  23.097  0.00  0.00    +0.000 A 
ATOM     12  C   UNL     1      -4.732  12.977  21.892  0.00  0.00    +0.000 A 
ATOM     13  C   UNL     1      -3.458  12.399  21.979  0.00  0.00    +0.000 A 
ATOM     14  N   UNL     1      -2.478  12.107  21.044  0.00  0.00    +0.000 N 
BRANCH  14  15
ATOM     15  C   UNL     1      -2.347  12.817  19.769  0.00  0.00    +0.000 C 
BRANCH  15  16
ATOM     16  C   UNL     1      -2.681  12.043  18.511  0.00  0.00    +0.000 A 
ATOM     17  C   UNL     1      -1.730  11.365  17.738  0.00  0.00    +0.000 A 
ATOM     18  C   UNL     1      -2.099  10.750  16.533  0.00  0.00    +0.000 A 
ATOM     19  C   UNL     1      -3.430  10.766  16.103  0.00  0.00    +0.000 A 
ATOM     20  C   UNL     1      -4.398  11.381  16.897  0.00  0.00    +0.000 A 
ATOM     21  C   UNL     1      -4.026  12.008  18.093  0.00  0.00    +0.000 A 
BRANCH  19  22
ATOM     22  C   UNL     1      -3.795  10.176  14.847  0.00  0.00    +0.000 C 
ATOM     23  N   UNL     1      -4.102   9.714  13.828  0.00  0.00    +0.000 NA
ENDBRANCH  19  22
ENDBRANCH  15  16
ENDBRANCH  14  15
ENDBRANCH   5   6
BRANCH   1  27
ATOM     24  C   UNL     1       1.638  15.149  18.933  0.00  0.00    +0.000 A 
ATOM     25  C   UNL     1       1.249  14.974  20.263  0.00  0.00    +0.000 A 
ATOM     26  C   UNL     1       1.080  13.692  20.803  0.00  0.00    +0.000 A 
ATOM     27  C   UNL     1       1.283  12.558  20.010  0.00  0.00    +0.000 A 
ATOM     28  C   UNL     1       1.710  12.746  18.683  0.00  0.00    +0.000 A 
ATOM     29  C   UNL     1       1.885  14.029  18.146  0.00  0.00    +0.000 A 
BRANCH  24  31
ATOM     30  C   UNL     1       2.828  16.844  17.775  0.00  0.00    +0.000 C 
ATOM     31  O   UNL     1       1.677  16.449  18.509  0.00  0.00    +0.000 OA
ENDBRANCH  24  31
ENDBRANCH   1  27
BRANCH   3  32
ATOM     32  C   UNL     1       1.561   7.781  20.196  0.00  0.00    +0.000 A 
ATOM     33  C   UNL     1       2.339   7.610  19.041  0.00  0.00    +0.000 A 
ATOM     34  C   UNL     1       2.804   6.343  18.692  0.00  0.00    +0.000 A 
ATOM     35  C   UNL     1       2.491   5.242  19.487  0.00  0.00    +0.000 A 
ATOM     36  C   UNL     1       1.735   5.401  20.643  0.00  0.00    +0.000 A 
ATOM     37  C   UNL     1       1.268   6.668  21.000  0.00  0.00    +0.000 A 
ENDBRANCH   3  32
TORSDOF 7
ENDMDL
MODEL 7
REMARK VINA RESULT:      -7.3      2.404      6.172
REMARK  Name = 
REMARK  8 active torsions:
REMARK  status: ('A' for Active; 'I' for Inactive)
REMARK    1  A    between atoms: C_1  and  O_2
REMARK    2  A    between atoms: O_2  and  C_3
REMARK    3  A    between atoms: C_6  and  C_7
REMARK    4  A    between atoms: N_9  and  C_10
REMARK    5  A    between atoms: C_17  and  C_18
REMARK    6  A    between atoms: N_26  and  C_27
REMARK    7  A    between atoms: C_27  and  C_28
REMARK    8  A    between atoms: C_31  and  C_32
REMARK                            x       y       z     vdW  Elec       q    Type
REMARK                         _______ _______ _______ _____ _____    ______ ____
ROOT
ATOM      1  C   UNL     1       0.538  11.945  20.720  0.00  0.00    +0.000 A 
ATOM      2  N   UNL     1       1.422  11.023  20.290  0.00  0.00    +0.000 NA
ATOM      3  N   UNL     1       0.816   9.829  20.426  0.00  0.00    +0.000 N 
ATOM      4  C   UNL     1      -0.404   9.959  21.034  0.00  0.00    +0.000 A 
ATOM      5  C   UNL     1      -0.636  11.301  21.214  0.00  0.00    +0.000 A 
ENDROOT
BRANCH   5   6
ATOM      6  C   UNL     1      -1.859  11.844  21.876  0.00  0.00    +0.000 A 
ATOM      7  N   UNL     1      -2.010  11.835  23.184  0.00  0.00    +0.000 NA
ATOM      8  C   UNL     1      -3.297  12.234  23.423  0.00  0.00    +0.000 A 
ATOM      9  C   UNL     1      -3.968  12.377  24.646  0.00  0.00    +0.000 A 
ATOM     10  C   UNL     1      -5.299  12.808  24.639  0.00  0.00    +0.000 A 
ATOM     11  C   UNL     1      -5.953  13.075  23.434  0.00  0.00    +0.000 A 
ATOM     12  C   UNL     1      -5.295  12.948  22.204  0.00  0.00    +0.000 A 
ATOM     13  C   UNL     1      -3.956  12.535  22.236  0.00  0.00    +0.000 A 
ATOM     14  N   UNL     1      -2.979  12.392  21.265  0.00  0.00    +0.000 N 
BRANCH  14  15
ATOM     15  C   UNL     1      -2.981  13.142  20.005  0.00  0.00    +0.000 C 
BRANCH  15  16
ATOM     16  C   UNL     1      -3.088  12.340  18.725  0.00  0.00    +0.000 A 
ATOM     17  C   UNL     1      -1.982  11.864  18.010  0.00  0.00    +0.000 A 
ATOM     18  C   UNL     1      -2.156  11.211  16.781  0.00  0.00    +0.000 A 
ATOM     19  C   UNL     1      -3.438  10.986  16.269  0.00  0.00    +0.000 A 
ATOM     20  C   UNL     1      -4.550  11.396  17.005  0.00  0.00    +0.000 A 
ATOM     21  C   UNL     1      -4.375  12.062  18.224  0.00  0.00    +0.000 A 
BRANCH  19  22
ATOM     22  C   UNL     1      -3.610  10.359  14.990  0.00  0.00    +0.000 C 
ATOM     23  N   UNL     1      -3.758   9.839  13.964  0.00  0.00    +0.000 NA
ENDBRANCH  19  22
ENDBRANCH  15  16
ENDBRANCH  14  15
ENDBRANCH   5   6
BRANCH   1  27
ATOM     24  C   UNL     1       1.074  16.137  20.007  0.00  0.00    +0.000 A 
ATOM     25  C   UNL     1       1.005  15.649  21.314  0.00  0.00    +0.000 A 
ATOM     26  C   UNL     1       0.914  14.274  21.567  0.00  0.00    +0.000 A 
ATOM     27  C   UNL     1       0.872  13.361  20.509  0.00  0.00    +0.000 A 
ATOM     28  C   UNL     1       0.978  13.861  19.199  0.00  0.00    +0.000 A 
ATOM     29  C   UNL     1       1.077  15.237  18.946  0.00  0.00    +0.000 A 
BRANCH  24  31
ATOM     30  C   UNL     1       1.505  18.232  21.036  0.00  0.00    +0.000 C 
ATOM     31  O   UNL     1       1.067  17.501  19.898  0.00  0.00    +0.000 OA
ENDBRANCH  24  31
ENDBRANCH   1  27
BRANCH   3  32
ATOM     32  C   UNL     1       1.413   8.637  19.935  0.00  0.00    +0.000 A 
ATOM     33  C   UNL     1       1.493   7.512  20.768  0.00  0.00    +0.000 A 
ATOM     34  C   UNL     1       2.127   6.353  20.321  0.00  0.00    +0.000 A 
ATOM     35  C   UNL     1       2.686   6.313  19.045  0.00  0.00    +0.000 A 
ATOM     36  C   UNL     1       2.598   7.416  18.203  0.00  0.00    +0.000 A 
ATOM     37  C   UNL     1       1.963   8.580  18.645  0.00  0.00    +0.000 A 
ENDBRANCH   3  32
TORSDOF 7
ENDMDL
MODEL 8
REMARK VINA RESULT:      -7.3      2.942      7.805
REMARK  Name = 
REMARK  8 active torsions:
REMARK  status: ('A' for Active; 'I' for Inactive)
REMARK    1  A    between atoms: C_1  and  O_2
REMARK    2  A    between atoms: O_2  and  C_3
REMARK    3  A    between atoms: C_6  and  C_7
REMARK    4  A    between atoms: N_9  and  C_10
REMARK    5  A    between atoms: C_17  and  C_18
REMARK    6  A    between atoms: N_26  and  C_27
REMARK    7  A    between atoms: C_27  and  C_28
REMARK    8  A    between atoms: C_31  and  C_32
REMARK                            x       y       z     vdW  Elec       q    Type
REMARK                         _______ _______ _______ _____ _____    ______ ____
ROOT
ATOM      1  C   UNL     1       0.464  12.861  20.965  0.00  0.00    +0.000 A 
ATOM      2  N   UNL     1      -0.378  13.609  21.704  0.00  0.00    +0.000 NA
ATOM      3  N   UNL     1      -1.197  12.745  22.331  0.00  0.00    +0.000 N 
ATOM      4  C   UNL     1      -0.964  11.458  21.926  0.00  0.00    +0.000 A 
ATOM      5  C   UNL     1       0.113  11.481  21.073  0.00  0.00    +0.000 A 
ENDROOT
BRANCH   5   6
ATOM      6  C   UNL     1       0.654  10.266  20.396  0.00  0.00    +0.000 A 
ATOM      7  N   UNL     1       0.900   9.150  21.052  0.00  0.00    +0.000 NA
ATOM      8  C   UNL     1       1.544   8.324  20.171  0.00  0.00    +0.000 A 
ATOM      9  C   UNL     1       2.039   7.028  20.371  0.00  0.00    +0.000 A 
ATOM     10  C   UNL     1       2.667   6.373  19.306  0.00  0.00    +0.000 A 
ATOM     11  C   UNL     1       2.814   7.005  18.070  0.00  0.00    +0.000 A 
ATOM     12  C   UNL     1       2.316   8.296  17.848  0.00  0.00    +0.000 A 
ATOM     13  C   UNL     1       1.673   8.925  18.923  0.00  0.00    +0.000 A 
ATOM     14  N   UNL     1       0.989  10.123  19.056  0.00  0.00    +0.000 N 
BRANCH  14  15
ATOM     15  C   UNL     1       0.332  10.803  17.936  0.00  0.00    +0.000 C 
BRANCH  15  16
ATOM     16  C   UNL     1      -1.180  10.879  17.967  0.00  0.00    +0.000 A 
ATOM     17  C   UNL     1      -1.894  12.002  18.403  0.00  0.00    +0.000 A 
ATOM     18  C   UNL     1      -3.293  11.965  18.494  0.00  0.00    +0.000 A 
ATOM     19  C   UNL     1      -4.002  10.822  18.112  0.00  0.00    +0.000 A 
ATOM     20  C   UNL     1      -3.306   9.721  17.613  0.00  0.00    +0.000 A 
ATOM     21  C   UNL     1      -1.908   9.752  17.536  0.00  0.00    +0.000 A 
BRANCH  19  22
ATOM     22  C   UNL     1      -5.429  10.771  18.250  0.00  0.00    +0.000 C 
ATOM     23  N   UNL     1      -6.583  10.712  18.356  0.00  0.00    +0.000 NA
ENDBRANCH  19  22
ENDBRANCH  15  16
ENDBRANCH  14  15
ENDBRANCH   5   6
BRANCH   1  27
ATOM     24  C   UNL     1       3.959  14.447  19.058  0.00  0.00    +0.000 A 
ATOM     25  C   UNL     1       2.805  14.195  18.313  0.00  0.00    +0.000 A 
ATOM     26  C   UNL     1       1.627  13.756  18.933  0.00  0.00    +0.000 A 
ATOM     27  C   UNL     1       1.592  13.544  20.314  0.00  0.00    +0.000 A 
ATOM     28  C   UNL     1       2.749  13.835  21.059  0.00  0.00    +0.000 A 
ATOM     29  C   UNL     1       3.925  14.281  20.440  0.00  0.00    +0.000 A 
BRANCH  24  31
ATOM     30  C   UNL     1       5.580  16.092  18.512  0.00  0.00    +0.000 C 
ATOM     31  O   UNL     1       5.061  14.782  18.321  0.00  0.00    +0.000 OA
ENDBRANCH  24  31
ENDBRANCH   1  27
BRANCH   3  32
ATOM     32  C   UNL     1      -2.129  13.187  23.309  0.00  0.00    +0.000 A 
ATOM     33  C   UNL     1      -1.877  14.374  24.014  0.00  0.00    +0.000 A 
ATOM     34  C   UNL     1      -2.752  14.791  25.016  0.00  0.00    +0.000 A 
ATOM     35  C   UNL     1      -3.876  14.026  25.322  0.00  0.00    +0.000 A 
ATOM     36  C   UNL     1      -4.145  12.857  24.620  0.00  0.00    +0.000 A 
ATOM     37  C   UNL     1      -3.273  12.434  23.613  0.00  0.00    +0.000 A 
ENDBRANCH   3  32
TORSDOF 7
ENDMDL
MODEL 9
REMARK VINA RESULT:      -7.3      0.754      1.563
REMARK  Name = 
REMARK  8 active torsions:
REMARK  status: ('A' for Active; 'I' for Inactive)
REMARK    1  A    between atoms: C_1  and  O_2
REMARK    2  A    between atoms: O_2  and  C_3
REMARK    3  A    between atoms: C_6  and  C_7
REMARK    4  A    between atoms: N_9  and  C_10
REMARK    5  A    between atoms: C_17  and  C_18
REMARK    6  A    between atoms: N_26  and  C_27
REMARK    7  A    between atoms: C_27  and  C_28
REMARK    8  A    between atoms: C_31  and  C_32
REMARK                            x       y       z     vdW  Elec       q    Type
REMARK                         _______ _______ _______ _____ _____    ______ ____
ROOT
ATOM      1  C   UNL     1      -0.569  10.845  18.308  0.00  0.00    +0.000 A 
ATOM      2  N   UNL     1      -0.046   9.629  18.059  0.00  0.00    +0.000 NA
ATOM      3  N   UNL     1       1.247   9.694  18.426  0.00  0.00    +0.000 N 
ATOM      4  C   UNL     1       1.590  10.963  18.809  0.00  0.00    +0.000 A 
ATOM      5  C   UNL     1       0.449  11.728  18.777  0.00  0.00    +0.000 A 
ENDROOT
BRANCH   5   6
ATOM      6  C   UNL     1       0.425  13.184  19.104  0.00  0.00    +0.000 A 
ATOM      7  N   UNL     1       0.088  14.096  18.215  0.00  0.00    +0.000 NA
ATOM      8  C   UNL     1       0.347  15.309  18.795  0.00  0.00    +0.000 A 
ATOM      9  C   UNL     1       0.181  16.597  18.268  0.00  0.00    +0.000 A 
ATOM     10  C   UNL     1       0.516  17.700  19.061  0.00  0.00    +0.000 A 
ATOM     11  C   UNL     1       1.023  17.520  20.350  0.00  0.00    +0.000 A 
ATOM     12  C   UNL     1       1.185  16.240  20.897  0.00  0.00    +0.000 A 
ATOM     13  C   UNL     1       0.824  15.151  20.092  0.00  0.00    +0.000 A 
ATOM     14  N   UNL     1       0.753  13.786  20.312  0.00  0.00    +0.000 N 
BRANCH  14  15
ATOM     15  C   UNL     1       0.561  13.193  21.638  0.00  0.00    +0.000 C 
BRANCH  15  16
ATOM     16  C   UNL     1      -0.861  13.092  22.149  0.00  0.00    +0.000 A 
ATOM     17  C   UNL     1      -1.345  12.013  22.899  0.00  0.00    +0.000 A 
ATOM     18  C   UNL     1      -2.700  11.943  23.255  0.00  0.00    +0.000 A 
ATOM     19  C   UNL     1      -3.582  12.970  22.904  0.00  0.00    +0.000 A 
ATOM     20  C   UNL     1      -3.099  14.081  22.214  0.00  0.00    +0.000 A 
ATOM     21  C   UNL     1      -1.749  14.143  21.845  0.00  0.00    +0.000 A 
BRANCH  19  22
ATOM     22  C   UNL     1      -4.976  12.872  23.229  0.00  0.00    +0.000 C 
ATOM     23  N   UNL     1      -6.108  12.799  23.475  0.00  0.00    +0.000 NA
ENDBRANCH  19  22
ENDBRANCH  15  16
ENDBRANCH  14  15
ENDBRANCH   5   6
BRANCH   1  27
ATOM     24  C   UNL     1      -4.727  11.720  17.743  0.00  0.00    +0.000 A 
ATOM     25  C   UNL     1      -4.049  10.909  16.830  0.00  0.00    +0.000 A 
ATOM     26  C   UNL     1      -2.713  10.544  17.043  0.00  0.00    +0.000 A 
ATOM     27  C   UNL     1      -2.025  11.003  18.170  0.00  0.00    +0.000 A 
ATOM     28  C   UNL     1      -2.728  11.789  19.100  0.00  0.00    +0.000 A 
ATOM     29  C   UNL     1      -4.067  12.148  18.891  0.00  0.00    +0.000 A 
BRANCH  24  31
ATOM     30  C   UNL     1      -7.051  11.642  18.218  0.00  0.00    +0.000 C 
ATOM     31  O   UNL     1      -5.994  12.075  17.371  0.00  0.00    +0.000 OA
ENDBRANCH  24  31
ENDBRANCH   1  27
BRANCH   3  32
ATOM     32  C   UNL     1       2.073   8.538  18.431  0.00  0.00    +0.000 A 
ATOM     33  C   UNL     1       2.007   7.647  19.513  0.00  0.00    +0.000 A 
ATOM     34  C   UNL     1       2.851   6.538  19.559  0.00  0.00    +0.000 A 
ATOM     35  C   UNL     1       3.766   6.316  18.532  0.00  0.00    +0.000 A 
ATOM     36  C   UNL     1       3.830   7.182  17.446  0.00  0.00    +0.000 A 
ATOM     37  C   UNL     1       2.985   8.294  17.393  0.00  0.00    +0.000 A 
ENDBRANCH   3  32
TORSDOF 7
ENDMDL
