MODEL 1
REMARK VINA RESULT:      -8.2      0.000      0.000
REMARK  Name = 
REMARK  9 active torsions:
REMARK  status: ('A' for Active; 'I' for Inactive)
REMARK    1  A    between atoms: C_1  and  C_2
REMARK    2  A    between atoms: C_2  and  C_3
REMARK    3  A    between atoms: C_3  and  O_4
REMARK    4  A    between atoms: C_3  and  C_5
REMARK    5  A    between atoms: C_5  and  N_6
REMARK    6  A    between atoms: C_8  and  C_9
REMARK    7  A    between atoms: C_12  and  C_13
REMARK    8  A    between atoms: C_13  and  O_15
REMARK    9  A    between atoms: C_19  and  C_20
REMARK                            x       y       z     vdW  Elec       q    Type
REMARK                         _______ _______ _______ _____ _____    ______ ____
ROOT
ATOM      1  N   UNL     1       2.320   5.913  20.210  0.00  0.00    +0.000 N 
ATOM      2  N   UNL     1       1.419   6.621  20.923  0.00  0.00    +0.000 NA
ATOM      3  C   UNL     1       1.456   7.853  20.407  0.00  0.00    +0.000 A 
ATOM      4  C   UNL     1       2.223   7.850  19.216  0.00  0.00    +0.000 A 
ATOM      5  C   UNL     1       2.734   6.568  19.067  0.00  0.00    +0.000 A 
ENDROOT
BRANCH   5   6
ATOM      6  C   UNL     1       3.567   6.014  17.989  0.00  0.00    +0.000 A 
ATOM      7  C   UNL     1       4.408   6.861  17.246  0.00  0.00    +0.000 A 
ATOM      8  C   UNL     1       5.177   6.359  16.192  0.00  0.00    +0.000 A 
ATOM      9  C   UNL     1       5.124   5.006  15.883  0.00  0.00    +0.000 A 
ATOM     10  F   UNL     1       5.863   4.526  14.877  0.00  0.00    +0.000 F 
ATOM     11  C   UNL     1       4.300   4.150  16.598  0.00  0.00    +0.000 A 
ATOM     12  C   UNL     1       3.510   4.660  17.632  0.00  0.00    +0.000 A 
ENDBRANCH   5   6
BRANCH   3  13
ATOM     13  C   UNL     1       0.756   8.960  21.062  0.00  0.00    +0.000 A 
ATOM     14  C   UNL     1       0.345   8.869  22.397  0.00  0.00    +0.000 A 
ATOM     15  C   UNL     1      -0.337   9.931  23.004  0.00  0.00    +0.000 A 
ATOM     16  C   UNL     1      -0.625  11.098  22.282  0.00  0.00    +0.000 A 
ATOM     17  C   UNL     1      -0.219  11.197  20.947  0.00  0.00    +0.000 A 
ATOM     18  C   UNL     1       0.455  10.130  20.344  0.00  0.00    +0.000 A 
BRANCH  16  19
ATOM     19  C   UNL     1      -1.312  12.209  22.994  0.00  0.00    +0.000 C 
ATOM     20  O   UNL     1      -2.505  12.196  23.235  0.00  0.00    +0.000 OA
BRANCH  19  21
ATOM     21  O   UNL     1      -0.510  13.247  23.315  0.00  0.00    +0.000 OA
ATOM     22  H   UNL     1      -0.459  13.960  22.657  0.00  0.00    +0.000 HD
ENDBRANCH  19  21
ENDBRANCH  16  19
ENDBRANCH   3  13
BRANCH   1  23
ATOM     23  C   UNL     1       2.743   4.613  20.716  0.00  0.00    +0.000 C 
BRANCH  23  24
ATOM     24  C   UNL     1       1.611   3.635  21.085  0.00  0.00    +0.000 C 
BRANCH  24  26
ATOM     25  C   UNL     1       1.715   1.970  19.172  0.00  0.00    +0.000 C 
ATOM     26  C   UNL     1       0.884   3.034  19.873  0.00  0.00    +0.000 C 
ENDBRANCH  24  26
BRANCH  24  27
ATOM     27  O   UNL     1       2.121   2.598  21.932  0.00  0.00    +0.000 OA
ATOM     28  H   UNL     1       2.705   3.060  22.574  0.00  0.00    +0.000 HD
ENDBRANCH  24  27
ENDBRANCH  23  24
ENDBRANCH   1  23
TORSDOF 8
ENDMDL
MODEL 2
REMARK VINA RESULT:      -8.1      0.572      1.283
REMARK  Name = 
REMARK  9 active torsions:
REMARK  status: ('A' for Active; 'I' for Inactive)
REMARK    1  A    between atoms: C_1  and  C_2
REMARK    2  A    between atoms: C_2  and  C_3
REMARK    3  A    between atoms: C_3  and  O_4
REMARK    4  A    between atoms: C_3  and  C_5
REMARK    5  A    between atoms: C_5  and  N_6
REMARK    6  A    between atoms: C_8  and  C_9
REMARK    7  A    between atoms: C_12  and  C_13
REMARK    8  A    between atoms: C_13  and  O_15
REMARK    9  A    between atoms: C_19  and  C_20
REMARK                            x       y       z     vdW  Elec       q    Type
REMARK                         _______ _______ _______ _____ _____    ______ ____
ROOT
ATOM      1  N   UNL     1       2.691   5.701  19.862  0.00  0.00    +0.000 N 
ATOM      2  N   UNL     1       1.796   6.375  20.614  0.00  0.00    +0.000 NA
ATOM      3  C   UNL     1       1.777   7.612  20.107  0.00  0.00    +0.000 A 
ATOM      4  C   UNL     1       2.500   7.640  18.889  0.00  0.00    +0.000 A 
ATOM      5  C   UNL     1       3.043   6.376  18.711  0.00  0.00    +0.000 A 
ENDROOT
BRANCH   5   6
ATOM      6  C   UNL     1       3.852   5.855  17.598  0.00  0.00    +0.000 A 
ATOM      7  C   UNL     1       3.858   4.478  17.320  0.00  0.00    +0.000 A 
ATOM      8  C   UNL     1       4.652   3.959  16.292  0.00  0.00    +0.000 A 
ATOM      9  C   UNL     1       5.432   4.815  15.525  0.00  0.00    +0.000 A 
ATOM     10  F   UNL     1       6.188   4.319  14.539  0.00  0.00    +0.000 F 
ATOM     11  C   UNL     1       5.447   6.177  15.782  0.00  0.00    +0.000 A 
ATOM     12  C   UNL     1       4.676   6.689  16.829  0.00  0.00    +0.000 A 
ENDBRANCH   5   6
BRANCH   3  13
ATOM     13  C   UNL     1       1.070   8.692  20.797  0.00  0.00    +0.000 A 
ATOM     14  C   UNL     1       0.903   8.679  22.187  0.00  0.00    +0.000 A 
ATOM     15  C   UNL     1       0.210   9.713  22.829  0.00  0.00    +0.000 A 
ATOM     16  C   UNL     1      -0.334  10.772  22.090  0.00  0.00    +0.000 A 
ATOM     17  C   UNL     1      -0.173  10.793  20.700  0.00  0.00    +0.000 A 
ATOM     18  C   UNL     1       0.513   9.754  20.063  0.00  0.00    +0.000 A 
BRANCH  16  19
ATOM     19  C   UNL     1      -1.019  11.863  22.833  0.00  0.00    +0.000 C 
ATOM     20  O   UNL     1      -0.460  12.901  23.137  0.00  0.00    +0.000 OA
BRANCH  19  21
ATOM     21  O   UNL     1      -2.297  11.591  23.175  0.00  0.00    +0.000 OA
ATOM     22  H   UNL     1      -2.824  11.129  22.501  0.00  0.00    +0.000 HD
ENDBRANCH  19  21
ENDBRANCH  16  19
ENDBRANCH   3  13
BRANCH   1  23
ATOM     23  C   UNL     1       3.171   4.410  20.341  0.00  0.00    +0.000 C 
BRANCH  23  24
ATOM     24  C   UNL     1       2.090   3.437  20.848  0.00  0.00    +0.000 C 
BRANCH  24  26
ATOM     25  C   UNL     1       0.805   2.773  18.761  0.00  0.00    +0.000 C 
ATOM     26  C   UNL     1       1.750   2.311  19.861  0.00  0.00    +0.000 C 
ENDBRANCH  24  26
BRANCH  24  27
ATOM     27  O   UNL     1       2.477   2.895  22.116  0.00  0.00    +0.000 OA
ATOM     28  H   UNL     1       2.995   2.088  21.899  0.00  0.00    +0.000 HD
ENDBRANCH  24  27
ENDBRANCH  23  24
ENDBRANCH   1  23
TORSDOF 8
ENDMDL
MODEL 3
REMARK VINA RESULT:      -8.0      0.690      1.524
REMARK  Name = 
REMARK  9 active torsions:
REMARK  status: ('A' for Active; 'I' for Inactive)
REMARK    1  A    between atoms: C_1  and  C_2
REMARK    2  A    between atoms: C_2  and  C_3
REMARK    3  A    between atoms: C_3  and  O_4
REMARK    4  A    between atoms: C_3  and  C_5
REMARK    5  A    between atoms: C_5  and  N_6
REMARK    6  A    between atoms: C_8  and  C_9
REMARK    7  A    between atoms: C_12  and  C_13
REMARK    8  A    between atoms: C_13  and  O_15
REMARK    9  A    between atoms: C_19  and  C_20
REMARK                            x       y       z     vdW  Elec       q    Type
REMARK                         _______ _______ _______ _____ _____    ______ ____
ROOT
ATOM      1  N   UNL     1       2.779   5.595  19.801  0.00  0.00    +0.000 N 
ATOM      2  N   UNL     1       1.888   6.272  20.555  0.00  0.00    +0.000 NA
ATOM      3  C   UNL     1       1.831   7.493  20.014  0.00  0.00    +0.000 A 
ATOM      4  C   UNL     1       2.523   7.501  18.778  0.00  0.00    +0.000 A 
ATOM      5  C   UNL     1       3.089   6.243  18.622  0.00  0.00    +0.000 A 
ENDROOT
BRANCH   5   6
ATOM      6  C   UNL     1       3.881   5.707  17.506  0.00  0.00    +0.000 A 
ATOM      7  C   UNL     1       3.900   4.323  17.260  0.00  0.00    +0.000 A 
ATOM      8  C   UNL     1       4.679   3.791  16.227  0.00  0.00    +0.000 A 
ATOM      9  C   UNL     1       5.431   4.638  15.424  0.00  0.00    +0.000 A 
ATOM     10  F   UNL     1       6.173   4.129  14.434  0.00  0.00    +0.000 F 
ATOM     11  C   UNL     1       5.433   6.006  15.649  0.00  0.00    +0.000 A 
ATOM     12  C   UNL     1       4.677   6.532  16.700  0.00  0.00    +0.000 A 
ENDBRANCH   5   6
BRANCH   3  13
ATOM     13  C   UNL     1       1.118   8.578  20.690  0.00  0.00    +0.000 A 
ATOM     14  C   UNL     1       0.773   9.754  20.011  0.00  0.00    +0.000 A 
ATOM     15  C   UNL     1       0.106  10.788  20.677  0.00  0.00    +0.000 A 
ATOM     16  C   UNL     1      -0.221  10.668  22.035  0.00  0.00    +0.000 A 
ATOM     17  C   UNL     1       0.119   9.498  22.722  0.00  0.00    +0.000 A 
ATOM     18  C   UNL     1       0.794   8.470  22.054  0.00  0.00    +0.000 A 
BRANCH  16  19
ATOM     19  C   UNL     1      -0.972  11.782  22.675  0.00  0.00    +0.000 C 
ATOM     20  O   UNL     1      -2.072  11.630  23.173  0.00  0.00    +0.000 OA
BRANCH  19  21
ATOM     21  O   UNL     1      -0.349  12.978  22.623  0.00  0.00    +0.000 OA
ATOM     22  H   UNL     1      -0.725  13.623  22.001  0.00  0.00    +0.000 HD
ENDBRANCH  19  21
ENDBRANCH  16  19
ENDBRANCH   3  13
BRANCH   1  23
ATOM     23  C   UNL     1       3.297   4.329  20.305  0.00  0.00    +0.000 C 
BRANCH  23  24
ATOM     24  C   UNL     1       2.241   3.302  20.757  0.00  0.00    +0.000 C 
BRANCH  24  26
ATOM     25  C   UNL     1       0.730   2.531  18.869  0.00  0.00    +0.000 C 
ATOM     26  C   UNL     1       1.949   2.207  19.720  0.00  0.00    +0.000 C 
ENDBRANCH  24  26
BRANCH  24  27
ATOM     27  O   UNL     1       2.630   2.721  22.007  0.00  0.00    +0.000 OA
ATOM     28  H   UNL     1       1.787   2.568  22.489  0.00  0.00    +0.000 HD
ENDBRANCH  24  27
ENDBRANCH  23  24
ENDBRANCH   1  23
TORSDOF 8
ENDMDL
MODEL 4
REMARK VINA RESULT:      -7.9      3.963      8.091
REMARK  Name = 
REMARK  9 active torsions:
REMARK  status: ('A' for Active; 'I' for Inactive)
REMARK    1  A    between atoms: C_1  and  C_2
REMARK    2  A    between atoms: C_2  and  C_3
REMARK    3  A    between atoms: C_3  and  O_4
REMARK    4  A    between atoms: C_3  and  C_5
REMARK    5  A    between atoms: C_5  and  N_6
REMARK    6  A    between atoms: C_8  and  C_9
REMARK    7  A    between atoms: C_12  and  C_13
REMARK    8  A    between atoms: C_13  and  O_15
REMARK    9  A    between atoms: C_19  and  C_20
REMARK                            x       y       z     vdW  Elec       q    Type
REMARK                         _______ _______ _______ _____ _____    ______ ____
ROOT
ATOM      1  N   UNL     1       2.440   6.039  20.082  0.00  0.00    +0.000 N 
ATOM      2  N   UNL     1       3.384   5.427  19.337  0.00  0.00    +0.000 NA
ATOM      3  C   UNL     1       3.551   6.213  18.269  0.00  0.00    +0.000 A 
ATOM      4  C   UNL     1       2.867   7.438  18.468  0.00  0.00    +0.000 A 
ATOM      5  C   UNL     1       2.193   7.335  19.676  0.00  0.00    +0.000 A 
ENDROOT
BRANCH   5   6
ATOM      6  C   UNL     1       1.360   8.329  20.370  0.00  0.00    +0.000 A 
ATOM      7  C   UNL     1       0.652   9.291  19.629  0.00  0.00    +0.000 A 
ATOM      8  C   UNL     1      -0.113  10.269  20.272  0.00  0.00    +0.000 A 
ATOM      9  C   UNL     1      -0.188  10.283  21.659  0.00  0.00    +0.000 A 
ATOM     10  F   UNL     1      -0.923  11.216  22.274  0.00  0.00    +0.000 F 
ATOM     11  C   UNL     1       0.504   9.348  22.413  0.00  0.00    +0.000 A 
ATOM     12  C   UNL     1       1.292   8.390  21.768  0.00  0.00    +0.000 A 
ENDBRANCH   5   6
BRANCH   3  13
ATOM     13  C   UNL     1       4.354   5.768  17.130  0.00  0.00    +0.000 A 
ATOM     14  C   UNL     1       4.932   6.688  16.246  0.00  0.00    +0.000 A 
ATOM     15  C   UNL     1       5.684   6.245  15.151  0.00  0.00    +0.000 A 
ATOM     16  C   UNL     1       5.864   4.874  14.919  0.00  0.00    +0.000 A 
ATOM     17  C   UNL     1       5.290   3.948  15.796  0.00  0.00    +0.000 A 
ATOM     18  C   UNL     1       4.532   4.396  16.883  0.00  0.00    +0.000 A 
BRANCH  16  19
ATOM     19  C   UNL     1       6.712   4.466  13.766  0.00  0.00    +0.000 C 
ATOM     20  O   UNL     1       7.569   5.190  13.294  0.00  0.00    +0.000 OA
BRANCH  19  21
ATOM     21  O   UNL     1       6.425   3.246  13.265  0.00  0.00    +0.000 OA
ATOM     22  H   UNL     1       5.480   3.054  13.135  0.00  0.00    +0.000 HD
ENDBRANCH  19  21
ENDBRANCH  16  19
ENDBRANCH   3  13
BRANCH   1  23
ATOM     23  C   UNL     1       1.810   5.288  21.161  0.00  0.00    +0.000 C 
BRANCH  23  24
ATOM     24  C   UNL     1       1.570   3.791  20.889  0.00  0.00    +0.000 C 
BRANCH  24  26
ATOM     25  C   UNL     1       1.416   2.593  18.656  0.00  0.00    +0.000 C 
ATOM     26  C   UNL     1       0.714   3.512  19.644  0.00  0.00    +0.000 C 
ENDBRANCH  24  26
BRANCH  24  27
ATOM     27  O   UNL     1       2.824   3.104  20.802  0.00  0.00    +0.000 OA
ATOM     28  H   UNL     1       2.705   2.291  21.343  0.00  0.00    +0.000 HD
ENDBRANCH  24  27
ENDBRANCH  23  24
ENDBRANCH   1  23
TORSDOF 8
ENDMDL
MODEL 5
REMARK VINA RESULT:      -7.9      1.400      1.986
REMARK  Name = 
REMARK  9 active torsions:
REMARK  status: ('A' for Active; 'I' for Inactive)
REMARK    1  A    between atoms: C_1  and  C_2
REMARK    2  A    between atoms: C_2  and  C_3
REMARK    3  A    between atoms: C_3  and  O_4
REMARK    4  A    between atoms: C_3  and  C_5
REMARK    5  A    between atoms: C_5  and  N_6
REMARK    6  A    between atoms: C_8  and  C_9
REMARK    7  A    between atoms: C_12  and  C_13
REMARK    8  A    between atoms: C_13  and  O_15
REMARK    9  A    between atoms: C_19  and  C_20
REMARK                            x       y       z     vdW  Elec       q    Type
REMARK                         _______ _______ _______ _____ _____    ______ ____
ROOT
ATOM      1  N   UNL     1       3.010   5.374  19.111  0.00  0.00    +0.000 N 
ATOM      2  N   UNL     1       1.996   6.040  19.702  0.00  0.00    +0.000 NA
ATOM      3  C   UNL     1       2.194   7.325  19.392  0.00  0.00    +0.000 A 
ATOM      4  C   UNL     1       3.213   7.427  18.412  0.00  0.00    +0.000 A 
ATOM      5  C   UNL     1       3.698   6.145  18.196  0.00  0.00    +0.000 A 
ENDROOT
BRANCH   5   6
ATOM      6  C   UNL     1       4.734   5.684  17.260  0.00  0.00    +0.000 A 
ATOM      7  C   UNL     1       6.002   6.291  17.262  0.00  0.00    +0.000 A 
ATOM      8  C   UNL     1       6.987   5.893  16.353  0.00  0.00    +0.000 A 
ATOM      9  C   UNL     1       6.718   4.876  15.447  0.00  0.00    +0.000 A 
ATOM     10  F   UNL     1       7.662   4.492  14.580  0.00  0.00    +0.000 F 
ATOM     11  C   UNL     1       5.474   4.263  15.422  0.00  0.00    +0.000 A 
ATOM     12  C   UNL     1       4.482   4.684  16.312  0.00  0.00    +0.000 A 
ENDBRANCH   5   6
BRANCH   3  13
ATOM     13  C   UNL     1       1.405   8.379  20.030  0.00  0.00    +0.000 A 
ATOM     14  C   UNL     1       1.027   9.529  19.326  0.00  0.00    +0.000 A 
ATOM     15  C   UNL     1       0.285  10.536  19.956  0.00  0.00    +0.000 A 
ATOM     16  C   UNL     1      -0.084  10.412  21.303  0.00  0.00    +0.000 A 
ATOM     17  C   UNL     1       0.290   9.267  22.015  0.00  0.00    +0.000 A 
ATOM     18  C   UNL     1       1.039   8.268  21.383  0.00  0.00    +0.000 A 
BRANCH  16  19
ATOM     19  C   UNL     1      -0.911  11.493  21.904  0.00  0.00    +0.000 C 
ATOM     20  O   UNL     1      -1.796  12.059  21.290  0.00  0.00    +0.000 OA
BRANCH  19  21
ATOM     21  O   UNL     1      -0.571  11.819  23.169  0.00  0.00    +0.000 OA
ATOM     22  H   UNL     1      -0.595  12.768  23.381  0.00  0.00    +0.000 HD
ENDBRANCH  19  21
ENDBRANCH  16  19
ENDBRANCH   3  13
BRANCH   1  23
ATOM     23  C   UNL     1       3.258   3.992  19.504  0.00  0.00    +0.000 C 
BRANCH  23  24
ATOM     24  C   UNL     1       2.165   2.977  19.118  0.00  0.00    +0.000 C 
BRANCH  24  26
ATOM     25  C   UNL     1       1.779   2.834  21.623  0.00  0.00    +0.000 C 
ATOM     26  C   UNL     1       1.160   2.684  20.241  0.00  0.00    +0.000 C 
ENDBRANCH  24  26
BRANCH  24  27
ATOM     27  O   UNL     1       1.487   3.417  17.936  0.00  0.00    +0.000 OA
ATOM     28  H   UNL     1       2.133   3.998  17.475  0.00  0.00    +0.000 HD
ENDBRANCH  24  27
ENDBRANCH  23  24
ENDBRANCH   1  23
TORSDOF 8
ENDMDL
MODEL 6
REMARK VINA RESULT:      -7.8      0.924      1.008
REMARK  Name = 
REMARK  9 active torsions:
REMARK  status: ('A' for Active; 'I' for Inactive)
REMARK    1  A    between atoms: C_1  and  C_2
REMARK    2  A    between atoms: C_2  and  C_3
REMARK    3  A    between atoms: C_3  and  O_4
REMARK    4  A    between atoms: C_3  and  C_5
REMARK    5  A    between atoms: C_5  and  N_6
REMARK    6  A    between atoms: C_8  and  C_9
REMARK    7  A    between atoms: C_12  and  C_13
REMARK    8  A    between atoms: C_13  and  O_15
REMARK    9  A    between atoms: C_19  and  C_20
REMARK                            x       y       z     vdW  Elec       q    Type
REMARK                         _______ _______ _______ _____ _____    ______ ____
ROOT
ATOM      1  N   UNL     1       2.855   5.633  19.733  0.00  0.00    +0.000 N 
ATOM      2  N   UNL     1       1.932   6.363  20.393  0.00  0.00    +0.000 NA
ATOM      3  C   UNL     1       1.896   7.538  19.757  0.00  0.00    +0.000 A 
ATOM      4  C   UNL     1       2.641   7.453  18.555  0.00  0.00    +0.000 A 
ATOM      5  C   UNL     1       3.214   6.190  18.522  0.00  0.00    +0.000 A 
ENDROOT
BRANCH   5   6
ATOM      6  C   UNL     1       4.055   5.573  17.485  0.00  0.00    +0.000 A 
ATOM      7  C   UNL     1       4.863   6.379  16.664  0.00  0.00    +0.000 A 
ATOM      8  C   UNL     1       5.638   5.813  15.647  0.00  0.00    +0.000 A 
ATOM      9  C   UNL     1       5.623   4.438  15.453  0.00  0.00    +0.000 A 
ATOM     10  F   UNL     1       6.368   3.898  14.482  0.00  0.00    +0.000 F 
ATOM     11  C   UNL     1       4.832   3.622  16.245  0.00  0.00    +0.000 A 
ATOM     12  C   UNL     1       4.035   4.192  17.242  0.00  0.00    +0.000 A 
ENDBRANCH   5   6
BRANCH   3  13
ATOM     13  C   UNL     1       1.154   8.669  20.316  0.00  0.00    +0.000 A 
ATOM     14  C   UNL     1       0.764   8.688  21.661  0.00  0.00    +0.000 A 
ATOM     15  C   UNL     1       0.040   9.770  22.175  0.00  0.00    +0.000 A 
ATOM     16  C   UNL     1      -0.313  10.848  21.351  0.00  0.00    +0.000 A 
ATOM     17  C   UNL     1       0.072  10.837  20.006  0.00  0.00    +0.000 A 
ATOM     18  C   UNL     1       0.788   9.749  19.495  0.00  0.00    +0.000 A 
BRANCH  16  19
ATOM     19  C   UNL     1      -1.042  11.990  21.966  0.00  0.00    +0.000 C 
ATOM     20  O   UNL     1      -1.632  12.824  21.304  0.00  0.00    +0.000 OA
BRANCH  19  21
ATOM     21  O   UNL     1      -0.961  12.044  23.312  0.00  0.00    +0.000 OA
ATOM     22  H   UNL     1      -0.271  12.627  23.670  0.00  0.00    +0.000 HD
ENDBRANCH  19  21
ENDBRANCH  16  19
ENDBRANCH   3  13
BRANCH   1  23
ATOM     23  C   UNL     1       3.353   4.412  20.355  0.00  0.00    +0.000 C 
BRANCH  23  24
ATOM     24  C   UNL     1       2.283   3.384  20.769  0.00  0.00    +0.000 C 
BRANCH  24  26
ATOM     25  C   UNL     1       0.891   2.652  18.775  0.00  0.00    +0.000 C 
ATOM     26  C   UNL     1       2.028   2.291  19.720  0.00  0.00    +0.000 C 
ENDBRANCH  24  26
BRANCH  24  27
ATOM     27  O   UNL     1       2.630   2.801  22.030  0.00  0.00    +0.000 OA
ATOM     28  H   UNL     1       3.611   2.865  22.078  0.00  0.00    +0.000 HD
ENDBRANCH  24  27
ENDBRANCH  23  24
ENDBRANCH   1  23
TORSDOF 8
ENDMDL
MODEL 7
REMARK VINA RESULT:      -7.8      3.955      8.071
REMARK  Name = 
REMARK  9 active torsions:
REMARK  status: ('A' for Active; 'I' for Inactive)
REMARK    1  A    between atoms: C_1  and  C_2
REMARK    2  A    between atoms: C_2  and  C_3
REMARK    3  A    between atoms: C_3  and  O_4
REMARK    4  A    between atoms: C_3  and  C_5
REMARK    5  A    between atoms: C_5  and  N_6
REMARK    6  A    between atoms: C_8  and  C_9
REMARK    7  A    between atoms: C_12  and  C_13
REMARK    8  A    between atoms: C_13  and  O_15
REMARK    9  A    between atoms: C_19  and  C_20
REMARK                            x       y       z     vdW  Elec       q    Type
REMARK                         _______ _______ _______ _____ _____    ______ ____
ROOT
ATOM      1  N   UNL     1       2.404   6.087  20.066  0.00  0.00    +0.000 N 
ATOM      2  N   UNL     1       3.344   5.468  19.321  0.00  0.00    +0.000 NA
ATOM      3  C   UNL     1       3.516   6.252  18.253  0.00  0.00    +0.000 A 
ATOM      4  C   UNL     1       2.841   7.482  18.450  0.00  0.00    +0.000 A 
ATOM      5  C   UNL     1       2.166   7.385  19.659  0.00  0.00    +0.000 A 
ENDROOT
BRANCH   5   6
ATOM      6  C   UNL     1       1.341   8.386  20.351  0.00  0.00    +0.000 A 
ATOM      7  C   UNL     1       1.303   8.414  21.756  0.00  0.00    +0.000 A 
ATOM      8  C   UNL     1       0.493   9.333  22.431  0.00  0.00    +0.000 A 
ATOM      9  C   UNL     1      -0.271  10.240  21.709  0.00  0.00    +0.000 A 
ATOM     10  F   UNL     1      -1.042  11.121  22.355  0.00  0.00    +0.000 F 
ATOM     11  C   UNL     1      -0.254  10.230  20.322  0.00  0.00    +0.000 A 
ATOM     12  C   UNL     1       0.533   9.291  19.650  0.00  0.00    +0.000 A 
ENDBRANCH   5   6
BRANCH   3  13
ATOM     13  C   UNL     1       4.315   5.799  17.114  0.00  0.00    +0.000 A 
ATOM     14  C   UNL     1       4.513   4.436  16.861  0.00  0.00    +0.000 A 
ATOM     15  C   UNL     1       5.294   4.021  15.775  0.00  0.00    +0.000 A 
ATOM     16  C   UNL     1       5.897   4.963  14.930  0.00  0.00    +0.000 A 
ATOM     17  C   UNL     1       5.706   6.327  15.175  0.00  0.00    +0.000 A 
ATOM     18  C   UNL     1       4.932   6.736  16.266  0.00  0.00    +0.000 A 
BRANCH  16  19
ATOM     19  C   UNL     1       6.677   4.460  13.767  0.00  0.00    +0.000 C 
ATOM     20  O   UNL     1       7.520   5.133  13.203  0.00  0.00    +0.000 OA
BRANCH  19  21
ATOM     21  O   UNL     1       6.344   3.215  13.368  0.00  0.00    +0.000 OA
ATOM     22  H   UNL     1       7.049   2.711  12.927  0.00  0.00    +0.000 HD
ENDBRANCH  19  21
ENDBRANCH  16  19
ENDBRANCH   3  13
BRANCH   1  23
ATOM     23  C   UNL     1       1.769   5.343  21.147  0.00  0.00    +0.000 C 
BRANCH  23  24
ATOM     24  C   UNL     1       1.560   3.837  20.894  0.00  0.00    +0.000 C 
BRANCH  24  26
ATOM     25  C   UNL     1       1.409   2.483  18.752  0.00  0.00    +0.000 C 
ATOM     26  C   UNL     1       0.737   3.523  19.637  0.00  0.00    +0.000 C 
ENDBRANCH  24  26
BRANCH  24  27
ATOM     27  O   UNL     1       2.828   3.171  20.846  0.00  0.00    +0.000 OA
ATOM     28  H   UNL     1       2.882   2.796  19.939  0.00  0.00    +0.000 HD
ENDBRANCH  24  27
ENDBRANCH  23  24
ENDBRANCH   1  23
TORSDOF 8
ENDMDL
MODEL 8
REMARK VINA RESULT:      -7.7      0.861      1.131
REMARK  Name = 
REMARK  9 active torsions:
REMARK  status: ('A' for Active; 'I' for Inactive)
REMARK    1  A    between atoms: C_1  and  C_2
REMARK    2  A    between atoms: C_2  and  C_3
REMARK    3  A    between atoms: C_3  and  O_4
REMARK    4  A    between atoms: C_3  and  C_5
REMARK    5  A    between atoms: C_5  and  N_6
REMARK    6  A    between atoms: C_8  and  C_9
REMARK    7  A    between atoms: C_12  and  C_13
REMARK    8  A    between atoms: C_13  and  O_15
REMARK    9  A    between atoms: C_19  and  C_20
REMARK                            x       y       z     vdW  Elec       q    Type
REMARK                         _______ _______ _______ _____ _____    ______ ____
ROOT
ATOM      1  N   UNL     1       2.302   5.629  20.404  0.00  0.00    +0.000 N 
ATOM      2  N   UNL     1       1.344   6.418  20.934  0.00  0.00    +0.000 NA
ATOM      3  C   UNL     1       1.549   7.624  20.395  0.00  0.00    +0.000 A 
ATOM      4  C   UNL     1       2.502   7.526  19.351  0.00  0.00    +0.000 A 
ATOM      5  C   UNL     1       2.944   6.211  19.329  0.00  0.00    +0.000 A 
ENDROOT
BRANCH   5   6
ATOM      6  C   UNL     1       3.906   5.564  18.424  0.00  0.00    +0.000 A 
ATOM      7  C   UNL     1       3.444   4.758  17.369  0.00  0.00    +0.000 A 
ATOM      8  C   UNL     1       4.345   4.103  16.523  0.00  0.00    +0.000 A 
ATOM      9  C   UNL     1       5.711   4.261  16.715  0.00  0.00    +0.000 A 
ATOM     10  F   UNL     1       6.572   3.637  15.904  0.00  0.00    +0.000 F 
ATOM     11  C   UNL     1       6.192   5.046  17.752  0.00  0.00    +0.000 A 
ATOM     12  C   UNL     1       5.290   5.676  18.614  0.00  0.00    +0.000 A 
ENDBRANCH   5   6
BRANCH   3  13
ATOM     13  C   UNL     1       0.826   8.797  20.889  0.00  0.00    +0.000 A 
ATOM     14  C   UNL     1       0.464   8.912  22.238  0.00  0.00    +0.000 A 
ATOM     15  C   UNL     1      -0.241  10.033  22.690  0.00  0.00    +0.000 A 
ATOM     16  C   UNL     1      -0.604  11.054  21.801  0.00  0.00    +0.000 A 
ATOM     17  C   UNL     1      -0.248  10.948  20.452  0.00  0.00    +0.000 A 
ATOM     18  C   UNL     1       0.450   9.822  20.003  0.00  0.00    +0.000 A 
BRANCH  16  19
ATOM     19  C   UNL     1      -1.312  12.242  22.350  0.00  0.00    +0.000 C 
ATOM     20  O   UNL     1      -1.961  12.200  23.379  0.00  0.00    +0.000 OA
BRANCH  19  21
ATOM     21  O   UNL     1      -1.206  13.355  21.595  0.00  0.00    +0.000 OA
ATOM     22  H   UNL     1      -1.874  13.455  20.895  0.00  0.00    +0.000 HD
ENDBRANCH  19  21
ENDBRANCH  16  19
ENDBRANCH   3  13
BRANCH   1  23
ATOM     23  C   UNL     1       2.547   4.327  21.013  0.00  0.00    +0.000 C 
BRANCH  23  24
ATOM     24  C   UNL     1       1.324   3.396  21.124  0.00  0.00    +0.000 C 
BRANCH  24  26
ATOM     25  C   UNL     1       1.944   2.003  19.094  0.00  0.00    +0.000 C 
ATOM     26  C   UNL     1       0.857   2.817  19.781  0.00  0.00    +0.000 C 
ENDBRANCH  24  26
BRANCH  24  27
ATOM     27  O   UNL     1       1.595   2.346  22.059  0.00  0.00    +0.000 OA
ATOM     28  H   UNL     1       1.118   2.607  22.879  0.00  0.00    +0.000 HD
ENDBRANCH  24  27
ENDBRANCH  23  24
ENDBRANCH   1  23
TORSDOF 8
ENDMDL
MODEL 9
REMARK VINA RESULT:      -7.7      3.937      7.991
REMARK  Name = 
REMARK  9 active torsions:
REMARK  status: ('A' for Active; 'I' for Inactive)
REMARK    1  A    between atoms: C_1  and  C_2
REMARK    2  A    between atoms: C_2  and  C_3
REMARK    3  A    between atoms: C_3  and  O_4
REMARK    4  A    between atoms: C_3  and  C_5
REMARK    5  A    between atoms: C_5  and  N_6
REMARK    6  A    between atoms: C_8  and  C_9
REMARK    7  A    between atoms: C_12  and  C_13
REMARK    8  A    between atoms: C_13  and  O_15
REMARK    9  A    between atoms: C_19  and  C_20
REMARK                            x       y       z     vdW  Elec       q    Type
REMARK                         _______ _______ _______ _____ _____    ______ ____
ROOT
ATOM      1  N   UNL     1       2.252   6.082  20.071  0.00  0.00    +0.000 N 
ATOM      2  N   UNL     1       3.193   5.456  19.335  0.00  0.00    +0.000 NA
ATOM      3  C   UNL     1       3.451   6.286  18.320  0.00  0.00    +0.000 A 
ATOM      4  C   UNL     1       2.826   7.536  18.554  0.00  0.00    +0.000 A 
ATOM      5  C   UNL     1       2.094   7.409  19.726  0.00  0.00    +0.000 A 
ENDROOT
BRANCH   5   6
ATOM      6  C   UNL     1       1.286   8.412  20.436  0.00  0.00    +0.000 A 
ATOM      7  C   UNL     1       0.571   9.380  19.710  0.00  0.00    +0.000 A 
ATOM      8  C   UNL     1      -0.170  10.366  20.369  0.00  0.00    +0.000 A 
ATOM      9  C   UNL     1      -0.215  10.382  21.756  0.00  0.00    +0.000 A 
ATOM     10  F   UNL     1      -0.928  11.323  22.386  0.00  0.00    +0.000 F 
ATOM     11  C   UNL     1       0.484   9.441  22.496  0.00  0.00    +0.000 A 
ATOM     12  C   UNL     1       1.248   8.475  21.836  0.00  0.00    +0.000 A 
ENDBRANCH   5   6
BRANCH   3  13
ATOM     13  C   UNL     1       4.279   5.855  17.193  0.00  0.00    +0.000 A 
ATOM     14  C   UNL     1       4.582   4.503  16.990  0.00  0.00    +0.000 A 
ATOM     15  C   UNL     1       5.389   4.110  15.915  0.00  0.00    +0.000 A 
ATOM     16  C   UNL     1       5.913   5.064  15.031  0.00  0.00    +0.000 A 
ATOM     17  C   UNL     1       5.617   6.417  15.226  0.00  0.00    +0.000 A 
ATOM     18  C   UNL     1       4.816   6.805  16.306  0.00  0.00    +0.000 A 
BRANCH  16  19
ATOM     19  C   UNL     1       6.726   4.580  13.882  0.00  0.00    +0.000 C 
ATOM     20  O   UNL     1       6.411   3.610  13.219  0.00  0.00    +0.000 OA
BRANCH  19  21
ATOM     21  O   UNL     1       7.858   5.282  13.664  0.00  0.00    +0.000 OA
ATOM     22  H   UNL     1       7.997   6.050  14.243  0.00  0.00    +0.000 HD
ENDBRANCH  19  21
ENDBRANCH  16  19
ENDBRANCH   3  13
BRANCH   1  23
ATOM     23  C   UNL     1       1.534   5.314  21.082  0.00  0.00    +0.000 C 
BRANCH  23  24
ATOM     24  C   UNL     1       1.443   3.796  20.834  0.00  0.00    +0.000 C 
BRANCH  24  26
ATOM     25  C   UNL     1       1.488   2.250  18.821  0.00  0.00    +0.000 C 
ATOM     26  C   UNL     1       0.787   3.419  19.497  0.00  0.00    +0.000 C 
ENDBRANCH  24  26
BRANCH  24  27
ATOM     27  O   UNL     1       2.744   3.206  20.941  0.00  0.00    +0.000 OA
ATOM     28  H   UNL     1       2.578   2.240  21.021  0.00  0.00    +0.000 HD
ENDBRANCH  24  27
ENDBRANCH  23  24
ENDBRANCH   1  23
TORSDOF 8
ENDMDL
