MODEL 1
REMARK VINA RESULT:      -7.7      0.000      0.000
REMARK  Name = 
REMARK  5 active torsions:
REMARK  status: ('A' for Active; 'I' for Inactive)
REMARK    1  A    between atoms: C_1  and  C_2
REMARK    2  A    between atoms: N_7  and  C_8
REMARK    3  A    between atoms: C_8  and  C_9
REMARK    4  A    between atoms: C_9  and  O_10
REMARK    5  A    between atoms: O_10  and  C_11
REMARK                            x       y       z     vdW  Elec       q    Type
REMARK                         _______ _______ _______ _____ _____    ______ ____
ROOT
ATOM      1  C   UNL     1       7.195   6.732  18.112  0.00  0.00    +0.000 A 
ATOM      2  C   UNL     1       6.414   6.981  16.975  0.00  0.00    +0.000 A 
ATOM      3  C   UNL     1       5.333   6.152  16.653  0.00  0.00    +0.000 A 
ATOM      4  C   UNL     1       5.019   5.060  17.472  0.00  0.00    +0.000 A 
ATOM      5  C   UNL     1       3.948   4.207  17.186  0.00  0.00    +0.000 A 
ATOM      6  C   UNL     1       3.679   3.135  18.037  0.00  0.00    +0.000 A 
ATOM      7  C   UNL     1       4.490   2.941  19.159  0.00  0.00    +0.000 A 
ATOM      8  O   UNL     1       4.271   2.012  19.917  0.00  0.00    +0.000 OA
ATOM      9  O   UNL     1       5.504   3.767  19.408  0.00  0.00    +0.000 OA
ATOM     10  C   UNL     1       5.796   4.801  18.622  0.00  0.00    +0.000 A 
ATOM     11  C   UNL     1       6.876   5.629  18.936  0.00  0.00    +0.000 A 
ENDROOT
BRANCH   1  12
ATOM     12  O   UNL     1       8.239   7.562  18.380  0.00  0.00    +0.000 OA
BRANCH  12  13
ATOM     13  C   UNL     1       8.264   8.915  18.100  0.00  0.00    +0.000 C 
BRANCH  13  14
ATOM     14  C   UNL     1       9.218   9.656  19.046  0.00  0.00    +0.000 C 
BRANCH  14  21
ATOM     15  C   UNL     1       8.936  13.213  17.706  0.00  0.00    +0.000 C 
ATOM     16  C   UNL     1       9.534  11.801  17.883  0.00  0.00    +0.000 C 
ATOM     17  C   UNL     1      11.084  11.838  17.896  0.00  0.00    +0.000 C 
ATOM     18  C   UNL     1      11.608  12.507  19.172  0.00  0.00    +0.000 C 
ATOM     19  C   UNL     1      11.038  11.800  20.404  0.00  0.00    +0.000 C 
ATOM     20  C   UNL     1       9.500  11.769  20.345  0.00  0.00    +0.000 C 
ATOM     21  N   UNL     1       8.993  11.127  19.102  0.00  0.00    +0.000 NA
ENDBRANCH  14  21
ENDBRANCH  13  14
ENDBRANCH  12  13
ENDBRANCH   1  12
TORSDOF 4
ENDMDL
MODEL 2
REMARK VINA RESULT:      -7.7      5.362      8.273
REMARK  Name = 
REMARK  5 active torsions:
REMARK  status: ('A' for Active; 'I' for Inactive)
REMARK    1  A    between atoms: C_1  and  C_2
REMARK    2  A    between atoms: N_7  and  C_8
REMARK    3  A    between atoms: C_8  and  C_9
REMARK    4  A    between atoms: C_9  and  O_10
REMARK    5  A    between atoms: O_10  and  C_11
REMARK                            x       y       z     vdW  Elec       q    Type
REMARK                         _______ _______ _______ _____ _____    ______ ____
ROOT
ATOM      1  C   UNL     1       5.879   4.396  17.235  0.00  0.00    +0.000 A 
ATOM      2  C   UNL     1       5.042   3.500  16.555  0.00  0.00    +0.000 A 
ATOM      3  C   UNL     1       5.159   3.319  15.173  0.00  0.00    +0.000 A 
ATOM      4  C   UNL     1       6.124   4.034  14.451  0.00  0.00    +0.000 A 
ATOM      5  C   UNL     1       6.274   3.882  13.068  0.00  0.00    +0.000 A 
ATOM      6  C   UNL     1       7.252   4.617  12.400  0.00  0.00    +0.000 A 
ATOM      7  C   UNL     1       8.061   5.491  13.133  0.00  0.00    +0.000 A 
ATOM      8  O   UNL     1       8.924   6.142  12.569  0.00  0.00    +0.000 OA
ATOM      9  O   UNL     1       7.897   5.618  14.448  0.00  0.00    +0.000 OA
ATOM     10  C   UNL     1       6.975   4.935  15.124  0.00  0.00    +0.000 A 
ATOM     11  C   UNL     1       6.851   5.116  16.504  0.00  0.00    +0.000 A 
ENDROOT
BRANCH   1  12
ATOM     12  O   UNL     1       5.723   4.543  18.578  0.00  0.00    +0.000 OA
BRANCH  12  13
ATOM     13  C   UNL     1       5.039   5.579  19.184  0.00  0.00    +0.000 C 
BRANCH  13  14
ATOM     14  C   UNL     1       3.772   5.068  19.883  0.00  0.00    +0.000 C 
BRANCH  14  21
ATOM     15  C   UNL     1       1.744   2.371  18.111  0.00  0.00    +0.000 C 
ATOM     16  C   UNL     1       1.998   3.663  18.917  0.00  0.00    +0.000 C 
ATOM     17  C   UNL     1       0.926   3.866  20.018  0.00  0.00    +0.000 C 
ATOM     18  C   UNL     1       1.077   2.826  21.134  0.00  0.00    +0.000 C 
ATOM     19  C   UNL     1       2.499   2.869  21.700  0.00  0.00    +0.000 C 
ATOM     20  C   UNL     1       3.533   2.681  20.575  0.00  0.00    +0.000 C 
ATOM     21  N   UNL     1       3.379   3.687  19.489  0.00  0.00    +0.000 NA
ENDBRANCH  14  21
ENDBRANCH  13  14
ENDBRANCH  12  13
ENDBRANCH   1  12
TORSDOF 4
ENDMDL
MODEL 3
REMARK VINA RESULT:      -7.6      5.213      7.309
REMARK  Name = 
REMARK  5 active torsions:
REMARK  status: ('A' for Active; 'I' for Inactive)
REMARK    1  A    between atoms: C_1  and  C_2
REMARK    2  A    between atoms: N_7  and  C_8
REMARK    3  A    between atoms: C_8  and  C_9
REMARK    4  A    between atoms: C_9  and  O_10
REMARK    5  A    between atoms: O_10  and  C_11
REMARK                            x       y       z     vdW  Elec       q    Type
REMARK                         _______ _______ _______ _____ _____    ______ ____
ROOT
ATOM      1  C   UNL     1       2.396   7.092  19.128  0.00  0.00    +0.000 A 
ATOM      2  C   UNL     1       2.191   8.032  18.109  0.00  0.00    +0.000 A 
ATOM      3  C   UNL     1       1.538   9.242  18.371  0.00  0.00    +0.000 A 
ATOM      4  C   UNL     1       1.082   9.526  19.665  0.00  0.00    +0.000 A 
ATOM      5  C   UNL     1       0.425  10.723  19.969  0.00  0.00    +0.000 A 
ATOM      6  C   UNL     1      -0.006  10.956  21.275  0.00  0.00    +0.000 A 
ATOM      7  C   UNL     1       0.232   9.982  22.250  0.00  0.00    +0.000 A 
ATOM      8  O   UNL     1      -0.134  10.166  23.398  0.00  0.00    +0.000 OA
ATOM      9  O   UNL     1       0.859   8.852  21.934  0.00  0.00    +0.000 OA
ATOM     10  C   UNL     1       1.286   8.590  20.700  0.00  0.00    +0.000 A 
ATOM     11  C   UNL     1       1.935   7.382  20.433  0.00  0.00    +0.000 A 
ENDROOT
BRANCH   1  12
ATOM     12  O   UNL     1       3.030   5.928  18.823  0.00  0.00    +0.000 OA
BRANCH  12  13
ATOM     13  C   UNL     1       4.153   5.448  19.469  0.00  0.00    +0.000 C 
BRANCH  13  14
ATOM     14  C   UNL     1       4.991   4.565  18.534  0.00  0.00    +0.000 C 
BRANCH  14  21
ATOM     15  C   UNL     1       7.165   7.430  17.271  0.00  0.00    +0.000 C 
ATOM     16  C   UNL     1       5.904   6.549  17.401  0.00  0.00    +0.000 C 
ATOM     17  C   UNL     1       5.188   6.378  16.037  0.00  0.00    +0.000 C 
ATOM     18  C   UNL     1       6.018   5.510  15.084  0.00  0.00    +0.000 C 
ATOM     19  C   UNL     1       6.332   4.164  15.742  0.00  0.00    +0.000 C 
ATOM     20  C   UNL     1       7.025   4.377  17.100  0.00  0.00    +0.000 C 
ATOM     21  N   UNL     1       6.222   5.226  18.021  0.00  0.00    +0.000 NA
ENDBRANCH  14  21
ENDBRANCH  13  14
ENDBRANCH  12  13
ENDBRANCH   1  12
TORSDOF 4
ENDMDL
MODEL 4
REMARK VINA RESULT:      -7.6      5.377      7.494
REMARK  Name = 
REMARK  5 active torsions:
REMARK  status: ('A' for Active; 'I' for Inactive)
REMARK    1  A    between atoms: C_1  and  C_2
REMARK    2  A    between atoms: N_7  and  C_8
REMARK    3  A    between atoms: C_8  and  C_9
REMARK    4  A    between atoms: C_9  and  O_10
REMARK    5  A    between atoms: O_10  and  C_11
REMARK                            x       y       z     vdW  Elec       q    Type
REMARK                         _______ _______ _______ _____ _____    ______ ____
ROOT
ATOM      1  C   UNL     1       2.310   7.070  19.285  0.00  0.00    +0.000 A 
ATOM      2  C   UNL     1       2.155   7.981  18.231  0.00  0.00    +0.000 A 
ATOM      3  C   UNL     1       1.526   9.214  18.436  0.00  0.00    +0.000 A 
ATOM      4  C   UNL     1       1.044   9.552  19.708  0.00  0.00    +0.000 A 
ATOM      5  C   UNL     1       0.409  10.773  19.956  0.00  0.00    +0.000 A 
ATOM      6  C   UNL     1      -0.049  11.060  21.241  0.00  0.00    +0.000 A 
ATOM      7  C   UNL     1       0.138  10.113  22.253  0.00  0.00    +0.000 A 
ATOM      8  O   UNL     1      -0.253  10.344  23.384  0.00  0.00    +0.000 OA
ATOM      9  O   UNL     1       0.745   8.958  21.991  0.00  0.00    +0.000 OA
ATOM     10  C   UNL     1       1.198   8.645  20.778  0.00  0.00    +0.000 A 
ATOM     11  C   UNL     1       1.822   7.414  20.567  0.00  0.00    +0.000 A 
ENDROOT
BRANCH   1  12
ATOM     12  O   UNL     1       2.922   5.882  19.035  0.00  0.00    +0.000 OA
BRANCH  12  13
ATOM     13  C   UNL     1       2.846   5.191  17.841  0.00  0.00    +0.000 C 
BRANCH  13  14
ATOM     14  C   UNL     1       4.158   4.449  17.550  0.00  0.00    +0.000 C 
BRANCH  14  21
ATOM     15  C   UNL     1       6.742   4.401  14.748  0.00  0.00    +0.000 C 
ATOM     16  C   UNL     1       6.199   4.268  16.186  0.00  0.00    +0.000 C 
ATOM     17  C   UNL     1       7.214   4.802  17.229  0.00  0.00    +0.000 C 
ATOM     18  C   UNL     1       7.345   6.327  17.138  0.00  0.00    +0.000 C 
ATOM     19  C   UNL     1       5.969   6.980  17.287  0.00  0.00    +0.000 C 
ATOM     20  C   UNL     1       4.987   6.411  16.247  0.00  0.00    +0.000 C 
ATOM     21  N   UNL     1       4.866   4.930  16.331  0.00  0.00    +0.000 NA
ENDBRANCH  14  21
ENDBRANCH  13  14
ENDBRANCH  12  13
ENDBRANCH   1  12
TORSDOF 4
ENDMDL
MODEL 5
REMARK VINA RESULT:      -7.5      6.311      9.272
REMARK  Name = 
REMARK  5 active torsions:
REMARK  status: ('A' for Active; 'I' for Inactive)
REMARK    1  A    between atoms: C_1  and  C_2
REMARK    2  A    between atoms: N_7  and  C_8
REMARK    3  A    between atoms: C_8  and  C_9
REMARK    4  A    between atoms: C_9  and  O_10
REMARK    5  A    between atoms: O_10  and  C_11
REMARK                            x       y       z     vdW  Elec       q    Type
REMARK                         _______ _______ _______ _____ _____    ______ ____
ROOT
ATOM      1  C   UNL     1       2.317   7.840  18.823  0.00  0.00    +0.000 A 
ATOM      2  C   UNL     1       1.747   8.711  17.885  0.00  0.00    +0.000 A 
ATOM      3  C   UNL     1       0.859   9.715  18.286  0.00  0.00    +0.000 A 
ATOM      4  C   UNL     1       0.531   9.860  19.641  0.00  0.00    +0.000 A 
ATOM      5  C   UNL     1      -0.353  10.849  20.084  0.00  0.00    +0.000 A 
ATOM      6  C   UNL     1      -0.642  10.950  21.445  0.00  0.00    +0.000 A 
ATOM      7  C   UNL     1      -0.039  10.056  22.334  0.00  0.00    +0.000 A 
ATOM      8  O   UNL     1      -0.276  10.128  23.527  0.00  0.00    +0.000 OA
ATOM      9  O   UNL     1       0.798   9.123  21.886  0.00  0.00    +0.000 OA
ATOM     10  C   UNL     1       1.102   8.992  20.596  0.00  0.00    +0.000 A 
ATOM     11  C   UNL     1       1.984   7.988  20.189  0.00  0.00    +0.000 A 
ENDROOT
BRANCH   1  12
ATOM     12  O   UNL     1       3.171   6.876  18.384  0.00  0.00    +0.000 OA
BRANCH  12  13
ATOM     13  C   UNL     1       2.790   5.614  17.969  0.00  0.00    +0.000 C 
BRANCH  13  14
ATOM     14  C   UNL     1       3.544   4.528  18.749  0.00  0.00    +0.000 C 
BRANCH  14  21
ATOM     15  C   UNL     1       0.536   2.187  18.678  0.00  0.00    +0.000 C 
ATOM     16  C   UNL     1       1.345   3.457  19.020  0.00  0.00    +0.000 C 
ATOM     17  C   UNL     1       1.017   3.973  20.444  0.00  0.00    +0.000 C 
ATOM     18  C   UNL     1       1.561   3.019  21.514  0.00  0.00    +0.000 C 
ATOM     19  C   UNL     1       3.063   2.806  21.310  0.00  0.00    +0.000 C 
ATOM     20  C   UNL     1       3.348   2.311  19.880  0.00  0.00    +0.000 C 
ATOM     21  N   UNL     1       2.813   3.234  18.843  0.00  0.00    +0.000 NA
ENDBRANCH  14  21
ENDBRANCH  13  14
ENDBRANCH  12  13
ENDBRANCH   1  12
TORSDOF 4
ENDMDL
MODEL 6
REMARK VINA RESULT:      -7.4      6.003      9.018
REMARK  Name = 
REMARK  5 active torsions:
REMARK  status: ('A' for Active; 'I' for Inactive)
REMARK    1  A    between atoms: C_1  and  C_2
REMARK    2  A    between atoms: N_7  and  C_8
REMARK    3  A    between atoms: C_8  and  C_9
REMARK    4  A    between atoms: C_9  and  O_10
REMARK    5  A    between atoms: O_10  and  C_11
REMARK                            x       y       z     vdW  Elec       q    Type
REMARK                         _______ _______ _______ _____ _____    ______ ____
ROOT
ATOM      1  C   UNL     1       2.328   7.635  18.553  0.00  0.00    +0.000 A 
ATOM      2  C   UNL     1       1.894   8.703  17.757  0.00  0.00    +0.000 A 
ATOM      3  C   UNL     1       1.194   9.777  18.317  0.00  0.00    +0.000 A 
ATOM      4  C   UNL     1       0.922   9.795  19.692  0.00  0.00    +0.000 A 
ATOM      5  C   UNL     1       0.225  10.849  20.292  0.00  0.00    +0.000 A 
ATOM      6  C   UNL     1      -0.016  10.818  21.666  0.00  0.00    +0.000 A 
ATOM      7  C   UNL     1       0.447   9.728  22.409  0.00  0.00    +0.000 A 
ATOM      8  O   UNL     1       0.249   9.681  23.611  0.00  0.00    +0.000 OA
ATOM      9  O   UNL     1       1.106   8.737  21.813  0.00  0.00    +0.000 OA
ATOM     10  C   UNL     1       1.358   8.728  20.506  0.00  0.00    +0.000 A 
ATOM     11  C   UNL     1       2.052   7.656  19.940  0.00  0.00    +0.000 A 
ENDROOT
BRANCH   1  12
ATOM     12  O   UNL     1       2.999   6.610  17.961  0.00  0.00    +0.000 OA
BRANCH  12  13
ATOM     13  C   UNL     1       4.004   5.875  18.560  0.00  0.00    +0.000 C 
BRANCH  13  14
ATOM     14  C   UNL     1       3.479   5.128  19.793  0.00  0.00    +0.000 C 
BRANCH  14  21
ATOM     15  C   UNL     1       3.359   1.771  17.991  0.00  0.00    +0.000 C 
ATOM     16  C   UNL     1       2.946   3.218  18.335  0.00  0.00    +0.000 C 
ATOM     17  C   UNL     1       1.408   3.399  18.281  0.00  0.00    +0.000 C 
ATOM     18  C   UNL     1       0.725   2.650  19.431  0.00  0.00    +0.000 C 
ATOM     19  C   UNL     1       1.310   3.103  20.771  0.00  0.00    +0.000 C 
ATOM     20  C   UNL     1       2.840   2.924  20.778  0.00  0.00    +0.000 C 
ATOM     21  N   UNL     1       3.501   3.645  19.656  0.00  0.00    +0.000 NA
ENDBRANCH  14  21
ENDBRANCH  13  14
ENDBRANCH  12  13
ENDBRANCH   1  12
TORSDOF 4
ENDMDL
MODEL 7
REMARK VINA RESULT:      -7.4      5.158      8.282
REMARK  Name = 
REMARK  5 active torsions:
REMARK  status: ('A' for Active; 'I' for Inactive)
REMARK    1  A    between atoms: C_1  and  C_2
REMARK    2  A    between atoms: N_7  and  C_8
REMARK    3  A    between atoms: C_8  and  C_9
REMARK    4  A    between atoms: C_9  and  O_10
REMARK    5  A    between atoms: O_10  and  C_11
REMARK                            x       y       z     vdW  Elec       q    Type
REMARK                         _______ _______ _______ _____ _____    ______ ____
ROOT
ATOM      1  C   UNL     1       5.584   5.284  16.697  0.00  0.00    +0.000 A 
ATOM      2  C   UNL     1       6.927   5.627  16.491  0.00  0.00    +0.000 A 
ATOM      3  C   UNL     1       7.564   5.332  15.281  0.00  0.00    +0.000 A 
ATOM      4  C   UNL     1       6.858   4.689  14.255  0.00  0.00    +0.000 A 
ATOM      5  C   UNL     1       7.458   4.376  13.030  0.00  0.00    +0.000 A 
ATOM      6  C   UNL     1       6.707   3.738  12.043  0.00  0.00    +0.000 A 
ATOM      7  C   UNL     1       5.370   3.426  12.305  0.00  0.00    +0.000 A 
ATOM      8  O   UNL     1       4.696   2.870  11.455  0.00  0.00    +0.000 OA
ATOM      9  O   UNL     1       4.824   3.733  13.479  0.00  0.00    +0.000 OA
ATOM     10  C   UNL     1       5.504   4.343  14.448  0.00  0.00    +0.000 A 
ATOM     11  C   UNL     1       4.874   4.635  15.660  0.00  0.00    +0.000 A 
ENDROOT
BRANCH   1  12
ATOM     12  O   UNL     1       5.010   5.585  17.892  0.00  0.00    +0.000 OA
BRANCH  12  13
ATOM     13  C   UNL     1       5.318   4.974  19.092  0.00  0.00    +0.000 C 
BRANCH  13  14
ATOM     14  C   UNL     1       4.478   3.706  19.296  0.00  0.00    +0.000 C 
BRANCH  14  21
ATOM     15  C   UNL     1       1.584   2.814  21.611  0.00  0.00    +0.000 C 
ATOM     16  C   UNL     1       2.597   2.629  20.461  0.00  0.00    +0.000 C 
ATOM     17  C   UNL     1       1.950   1.925  19.241  0.00  0.00    +0.000 C 
ATOM     18  C   UNL     1       0.935   2.844  18.551  0.00  0.00    +0.000 C 
ATOM     19  C   UNL     1       1.603   4.166  18.165  0.00  0.00    +0.000 C 
ATOM     20  C   UNL     1       2.248   4.823  19.399  0.00  0.00    +0.000 C 
ATOM     21  N   UNL     1       3.227   3.927  20.072  0.00  0.00    +0.000 NA
ENDBRANCH  14  21
ENDBRANCH  13  14
ENDBRANCH  12  13
ENDBRANCH   1  12
TORSDOF 4
ENDMDL
MODEL 8
REMARK VINA RESULT:      -7.4      0.654      1.591
REMARK  Name = 
REMARK  5 active torsions:
REMARK  status: ('A' for Active; 'I' for Inactive)
REMARK    1  A    between atoms: C_1  and  C_2
REMARK    2  A    between atoms: N_7  and  C_8
REMARK    3  A    between atoms: C_8  and  C_9
REMARK    4  A    between atoms: C_9  and  O_10
REMARK    5  A    between atoms: O_10  and  C_11
REMARK                            x       y       z     vdW  Elec       q    Type
REMARK                         _______ _______ _______ _____ _____    ______ ____
ROOT
ATOM      1  C   UNL     1       7.300   6.889  18.142  0.00  0.00    +0.000 A 
ATOM      2  C   UNL     1       6.541   7.114  16.985  0.00  0.00    +0.000 A 
ATOM      3  C   UNL     1       5.474   6.272  16.653  0.00  0.00    +0.000 A 
ATOM      4  C   UNL     1       5.151   5.190  17.483  0.00  0.00    +0.000 A 
ATOM      5  C   UNL     1       4.092   4.324  17.188  0.00  0.00    +0.000 A 
ATOM      6  C   UNL     1       3.813   3.264  18.049  0.00  0.00    +0.000 A 
ATOM      7  C   UNL     1       4.602   3.093  19.191  0.00  0.00    +0.000 A 
ATOM      8  O   UNL     1       4.374   2.175  19.959  0.00  0.00    +0.000 OA
ATOM      9  O   UNL     1       5.604   3.931  19.448  0.00  0.00    +0.000 OA
ATOM     10  C   UNL     1       5.904   4.955  18.652  0.00  0.00    +0.000 A 
ATOM     11  C   UNL     1       6.972   5.796  18.977  0.00  0.00    +0.000 A 
ENDROOT
BRANCH   1  12
ATOM     12  O   UNL     1       8.332   7.731  18.419  0.00  0.00    +0.000 OA
BRANCH  12  13
ATOM     13  C   UNL     1       8.391   9.058  18.039  0.00  0.00    +0.000 C 
BRANCH  13  14
ATOM     14  C   UNL     1       8.986   9.924  19.157  0.00  0.00    +0.000 C 
BRANCH  14  21
ATOM     15  C   UNL     1      12.287  11.823  19.344  0.00  0.00    +0.000 C 
ATOM     16  C   UNL     1      10.939  11.257  19.840  0.00  0.00    +0.000 C 
ATOM     17  C   UNL     1      10.212  12.258  20.774  0.00  0.00    +0.000 C 
ATOM     18  C   UNL     1       9.712  13.478  19.992  0.00  0.00    +0.000 C 
ATOM     19  C   UNL     1       8.825  13.027  18.829  0.00  0.00    +0.000 C 
ATOM     20  C   UNL     1       9.576  12.021  17.937  0.00  0.00    +0.000 C 
ATOM     21  N   UNL     1      10.067  10.842  18.699  0.00  0.00    +0.000 NA
ENDBRANCH  14  21
ENDBRANCH  13  14
ENDBRANCH  12  13
ENDBRANCH   1  12
TORSDOF 4
ENDMDL
MODEL 9
REMARK VINA RESULT:      -7.4      5.143      8.235
REMARK  Name = 
REMARK  5 active torsions:
REMARK  status: ('A' for Active; 'I' for Inactive)
REMARK    1  A    between atoms: C_1  and  C_2
REMARK    2  A    between atoms: N_7  and  C_8
REMARK    3  A    between atoms: C_8  and  C_9
REMARK    4  A    between atoms: C_9  and  O_10
REMARK    5  A    between atoms: O_10  and  C_11
REMARK                            x       y       z     vdW  Elec       q    Type
REMARK                         _______ _______ _______ _____ _____    ______ ____
ROOT
ATOM      1  C   UNL     1       5.730   5.238  16.757  0.00  0.00    +0.000 A 
ATOM      2  C   UNL     1       7.046   5.642  16.493  0.00  0.00    +0.000 A 
ATOM      3  C   UNL     1       7.633   5.400  15.246  0.00  0.00    +0.000 A 
ATOM      4  C   UNL     1       6.903   4.750  14.242  0.00  0.00    +0.000 A 
ATOM      5  C   UNL     1       7.452   4.489  12.983  0.00  0.00    +0.000 A 
ATOM      6  C   UNL     1       6.680   3.840  12.019  0.00  0.00    +0.000 A 
ATOM      7  C   UNL     1       5.372   3.466  12.339  0.00  0.00    +0.000 A 
ATOM      8  O   UNL     1       4.679   2.900  11.511  0.00  0.00    +0.000 OA
ATOM      9  O   UNL     1       4.874   3.725  13.546  0.00  0.00    +0.000 OA
ATOM     10  C   UNL     1       5.576   4.342  14.494  0.00  0.00    +0.000 A 
ATOM     11  C   UNL     1       4.997   4.582  15.743  0.00  0.00    +0.000 A 
ENDROOT
BRANCH   1  12
ATOM     12  O   UNL     1       5.205   5.489  17.987  0.00  0.00    +0.000 OA
BRANCH  12  13
ATOM     13  C   UNL     1       3.897   5.864  18.225  0.00  0.00    +0.000 C 
BRANCH  13  14
ATOM     14  C   UNL     1       3.384   5.267  19.542  0.00  0.00    +0.000 C 
BRANCH  14  21
ATOM     15  C   UNL     1       3.363   1.708  18.176  0.00  0.00    +0.000 C 
ATOM     16  C   UNL     1       2.914   3.177  18.331  0.00  0.00    +0.000 C 
ATOM     17  C   UNL     1       1.373   3.313  18.237  0.00  0.00    +0.000 C 
ATOM     18  C   UNL     1       0.690   2.699  19.466  0.00  0.00    +0.000 C 
ATOM     19  C   UNL     1       1.248   3.330  20.744  0.00  0.00    +0.000 C 
ATOM     20  C   UNL     1       2.781   3.190  20.789  0.00  0.00    +0.000 C 
ATOM     21  N   UNL     1       3.440   3.779  19.593  0.00  0.00    +0.000 NA
ENDBRANCH  14  21
ENDBRANCH  13  14
ENDBRANCH  12  13
ENDBRANCH   1  12
TORSDOF 4
ENDMDL
