MODEL 1
REMARK VINA RESULT:      -7.6      0.000      0.000
REMARK  Name = 
REMARK  7 active torsions:
REMARK  status: ('A' for Active; 'I' for Inactive)
REMARK    1  A    between atoms: C_1  and  O_2
REMARK    2  A    between atoms: O_2  and  C_3
REMARK    3  A    between atoms: C_5  and  O_6
REMARK    4  A    between atoms: C_8  and  O_9
REMARK    5  A    between atoms: C_11  and  C_12
REMARK    6  A    between atoms: C_12  and  C_13
REMARK    7  A    between atoms: C_12  and  C_14
REMARK                            x       y       z     vdW  Elec       q    Type
REMARK                         _______ _______ _______ _____ _____    ______ ____
ROOT
ATOM      1  C   UNL     1       6.011   4.134  14.888  0.00  0.00    +0.000 A 
ATOM      2  C   UNL     1       7.191   4.098  15.622  0.00  0.00    +0.000 A 
ATOM      3  C   UNL     1       7.152   4.404  16.981  0.00  0.00    +0.000 A 
ATOM      4  C   UNL     1       5.944   4.752  17.635  0.00  0.00    +0.000 A 
ATOM      5  C   UNL     1       5.828   5.072  19.003  0.00  0.00    +0.000 A 
ATOM      6  C   UNL     1       4.609   5.411  19.568  0.00  0.00    +0.000 A 
ATOM      7  C   UNL     1       3.495   5.452  18.742  0.00  0.00    +0.000 A 
ATOM      8  N   UNL     1       3.566   5.127  17.423  0.00  0.00    +0.000 NA
ATOM      9  C   UNL     1       4.755   4.790  16.884  0.00  0.00    +0.000 A 
ATOM     10  C   UNL     1       4.816   4.481  15.530  0.00  0.00    +0.000 A 
ENDROOT
BRANCH   1  12
ATOM     11  C   UNL     1       6.990   4.224  12.720  0.00  0.00    +0.000 C 
ATOM     12  O   UNL     1       5.895   3.857  13.554  0.00  0.00    +0.000 OA
ENDBRANCH   1  12
BRANCH   3  13
ATOM     13  O   UNL     1       8.318   4.374  17.712  0.00  0.00    +0.000 OA
ATOM     14  H   UNL     1       8.621   5.289  17.856  0.00  0.00    +0.000 HD
ENDBRANCH   3  13
BRANCH   5  15
ATOM     15  O   UNL     1       6.912   5.080  19.845  0.00  0.00    +0.000 OA
ATOM     16  H   UNL     1       7.177   4.144  19.961  0.00  0.00    +0.000 HD
ENDBRANCH   5  15
BRANCH   7  17
ATOM     17  C   UNL     1       2.156   5.913  19.309  0.00  0.00    +0.000 C 
ATOM     18  C   UNL     1       1.939   5.411  20.746  0.00  0.00    +0.000 C 
BRANCH  17  19
ATOM     19  C   UNL     1       1.925   7.417  19.238  0.00  0.00    +0.000 A 
ATOM     20  C   UNL     1       2.115   8.105  18.028  0.00  0.00    +0.000 A 
ATOM     21  C   UNL     1       1.780   9.456  17.916  0.00  0.00    +0.000 A 
ATOM     22  C   UNL     1       1.255  10.138  19.012  0.00  0.00    +0.000 A 
ATOM     23  C   UNL     1       1.094   9.478  20.228  0.00  0.00    +0.000 A 
ATOM     24  C   UNL     1       1.435   8.130  20.344  0.00  0.00    +0.000 A 
ENDBRANCH  17  19
ENDBRANCH   7  17
TORSDOF 5
ENDMDL
MODEL 2
REMARK VINA RESULT:      -7.6      3.975      7.817
REMARK  Name = 
REMARK  7 active torsions:
REMARK  status: ('A' for Active; 'I' for Inactive)
REMARK    1  A    between atoms: C_1  and  O_2
REMARK    2  A    between atoms: O_2  and  C_3
REMARK    3  A    between atoms: C_5  and  O_6
REMARK    4  A    between atoms: C_8  and  O_9
REMARK    5  A    between atoms: C_11  and  C_12
REMARK    6  A    between atoms: C_12  and  C_13
REMARK    7  A    between atoms: C_12  and  C_14
REMARK                            x       y       z     vdW  Elec       q    Type
REMARK                         _______ _______ _______ _____ _____    ______ ____
ROOT
ATOM      1  C   UNL     1       0.309  10.126  21.947  0.00  0.00    +0.000 A 
ATOM      2  C   UNL     1       0.314  11.135  20.992  0.00  0.00    +0.000 A 
ATOM      3  C   UNL     1       0.851  10.873  19.733  0.00  0.00    +0.000 A 
ATOM      4  C   UNL     1       1.391   9.606  19.400  0.00  0.00    +0.000 A 
ATOM      5  C   UNL     1       1.949   9.268  18.150  0.00  0.00    +0.000 A 
ATOM      6  C   UNL     1       2.466   8.006  17.903  0.00  0.00    +0.000 A 
ATOM      7  C   UNL     1       2.445   7.078  18.935  0.00  0.00    +0.000 A 
ATOM      8  N   UNL     1       1.895   7.363  20.145  0.00  0.00    +0.000 NA
ATOM      9  C   UNL     1       1.386   8.591  20.373  0.00  0.00    +0.000 A 
ATOM     10  C   UNL     1       0.846   8.873  21.623  0.00  0.00    +0.000 A 
ENDROOT
BRANCH   1  12
ATOM     11  C   UNL     1      -1.412  10.938  23.377  0.00  0.00    +0.000 C 
ATOM     12  O   UNL     1      -0.183  10.235  23.218  0.00  0.00    +0.000 OA
ENDBRANCH   1  12
BRANCH   3  13
ATOM     13  O   UNL     1       0.863  11.870  18.785  0.00  0.00    +0.000 OA
ATOM     14  H   UNL     1       1.080  11.477  17.920  0.00  0.00    +0.000 HD
ENDBRANCH   3  13
BRANCH   5  15
ATOM     15  O   UNL     1       2.023  10.168  17.117  0.00  0.00    +0.000 OA
ATOM     16  H   UNL     1       2.734  10.799  17.352  0.00  0.00    +0.000 HD
ENDBRANCH   5  15
BRANCH   7  17
ATOM     17  C   UNL     1       3.092   5.712  18.730  0.00  0.00    +0.000 C 
ATOM     18  C   UNL     1       4.606   5.750  18.999  0.00  0.00    +0.000 C 
BRANCH  17  19
ATOM     19  C   UNL     1       2.447   4.583  19.523  0.00  0.00    +0.000 A 
ATOM     20  C   UNL     1       2.882   4.299  20.828  0.00  0.00    +0.000 A 
ATOM     21  C   UNL     1       2.213   3.356  21.613  0.00  0.00    +0.000 A 
ATOM     22  C   UNL     1       1.105   2.684  21.102  0.00  0.00    +0.000 A 
ATOM     23  C   UNL     1       0.684   2.930  19.797  0.00  0.00    +0.000 A 
ATOM     24  C   UNL     1       1.355   3.866  19.009  0.00  0.00    +0.000 A 
ENDBRANCH  17  19
ENDBRANCH   7  17
TORSDOF 5
ENDMDL
MODEL 3
REMARK VINA RESULT:      -7.5      3.438      7.691
REMARK  Name = 
REMARK  7 active torsions:
REMARK  status: ('A' for Active; 'I' for Inactive)
REMARK    1  A    between atoms: C_1  and  O_2
REMARK    2  A    between atoms: O_2  and  C_3
REMARK    3  A    between atoms: C_5  and  O_6
REMARK    4  A    between atoms: C_8  and  O_9
REMARK    5  A    between atoms: C_11  and  C_12
REMARK    6  A    between atoms: C_12  and  C_13
REMARK    7  A    between atoms: C_12  and  C_14
REMARK                            x       y       z     vdW  Elec       q    Type
REMARK                         _______ _______ _______ _____ _____    ______ ____
ROOT
ATOM      1  C   UNL     1       0.528   9.946  21.879  0.00  0.00    +0.000 A 
ATOM      2  C   UNL     1       0.539  10.866  20.839  0.00  0.00    +0.000 A 
ATOM      3  C   UNL     1       1.027  10.474  19.594  0.00  0.00    +0.000 A 
ATOM      4  C   UNL     1       1.513   9.163  19.361  0.00  0.00    +0.000 A 
ATOM      5  C   UNL     1       2.020   8.696  18.131  0.00  0.00    +0.000 A 
ATOM      6  C   UNL     1       2.484   7.399  17.983  0.00  0.00    +0.000 A 
ATOM      7  C   UNL     1       2.463   6.567  19.093  0.00  0.00    +0.000 A 
ATOM      8  N   UNL     1       1.960   6.978  20.289  0.00  0.00    +0.000 NA
ATOM      9  C   UNL     1       1.502   8.239  20.420  0.00  0.00    +0.000 A 
ATOM     10  C   UNL     1       1.010   8.650  21.654  0.00  0.00    +0.000 A 
ENDROOT
BRANCH   1  12
ATOM     11  C   UNL     1      -1.189  10.821  23.277  0.00  0.00    +0.000 C 
ATOM     12  O   UNL     1       0.079  10.185  23.149  0.00  0.00    +0.000 OA
ENDBRANCH   1  12
BRANCH   3  13
ATOM     13  O   UNL     1       1.045  11.383  18.560  0.00  0.00    +0.000 OA
ATOM     14  H   UNL     1       1.280  10.917  17.738  0.00  0.00    +0.000 HD
ENDBRANCH   3  13
BRANCH   5  15
ATOM     15  O   UNL     1       2.094   9.498  17.020  0.00  0.00    +0.000 OA
ATOM     16  H   UNL     1       1.969   8.909  16.246  0.00  0.00    +0.000 HD
ENDBRANCH   5  15
BRANCH   7  17
ATOM     17  C   UNL     1       3.055   5.165  18.994  0.00  0.00    +0.000 C 
ATOM     18  C   UNL     1       2.121   4.201  18.243  0.00  0.00    +0.000 C 
BRANCH  17  19
ATOM     19  C   UNL     1       4.455   5.111  18.396  0.00  0.00    +0.000 A 
ATOM     20  C   UNL     1       5.572   5.435  19.184  0.00  0.00    +0.000 A 
ATOM     21  C   UNL     1       6.867   5.262  18.689  0.00  0.00    +0.000 A 
ATOM     22  C   UNL     1       7.061   4.769  17.401  0.00  0.00    +0.000 A 
ATOM     23  C   UNL     1       5.963   4.477  16.596  0.00  0.00    +0.000 A 
ATOM     24  C   UNL     1       4.668   4.655  17.086  0.00  0.00    +0.000 A 
ENDBRANCH  17  19
ENDBRANCH   7  17
TORSDOF 5
ENDMDL
MODEL 4
REMARK VINA RESULT:      -7.5      4.043      7.775
REMARK  Name = 
REMARK  7 active torsions:
REMARK  status: ('A' for Active; 'I' for Inactive)
REMARK    1  A    between atoms: C_1  and  O_2
REMARK    2  A    between atoms: O_2  and  C_3
REMARK    3  A    between atoms: C_5  and  O_6
REMARK    4  A    between atoms: C_8  and  O_9
REMARK    5  A    between atoms: C_11  and  C_12
REMARK    6  A    between atoms: C_12  and  C_13
REMARK    7  A    between atoms: C_12  and  C_14
REMARK                            x       y       z     vdW  Elec       q    Type
REMARK                         _______ _______ _______ _____ _____    ______ ____
ROOT
ATOM      1  C   UNL     1       0.359  10.116  21.938  0.00  0.00    +0.000 A 
ATOM      2  C   UNL     1       0.357  11.127  20.985  0.00  0.00    +0.000 A 
ATOM      3  C   UNL     1       0.897  10.871  19.726  0.00  0.00    +0.000 A 
ATOM      4  C   UNL     1       1.448   9.609  19.391  0.00  0.00    +0.000 A 
ATOM      5  C   UNL     1       2.009   9.278  18.141  0.00  0.00    +0.000 A 
ATOM      6  C   UNL     1       2.536   8.020  17.893  0.00  0.00    +0.000 A 
ATOM      7  C   UNL     1       2.521   7.091  18.923  0.00  0.00    +0.000 A 
ATOM      8  N   UNL     1       1.968   7.369  20.133  0.00  0.00    +0.000 NA
ATOM      9  C   UNL     1       1.449   8.593  20.363  0.00  0.00    +0.000 A 
ATOM     10  C   UNL     1       0.906   8.869  21.612  0.00  0.00    +0.000 A 
ENDROOT
BRANCH   1  12
ATOM     11  C   UNL     1      -1.374  10.905  23.367  0.00  0.00    +0.000 C 
ATOM     12  O   UNL     1      -0.136  10.220  23.209  0.00  0.00    +0.000 OA
ENDBRANCH   1  12
BRANCH   3  13
ATOM     13  O   UNL     1       0.901  11.871  18.779  0.00  0.00    +0.000 OA
ATOM     14  H   UNL     1       0.106  12.420  18.900  0.00  0.00    +0.000 HD
ENDBRANCH   3  13
BRANCH   5  15
ATOM     15  O   UNL     1       2.077  10.180  17.109  0.00  0.00    +0.000 OA
ATOM     16  H   UNL     1       2.798   9.872  16.521  0.00  0.00    +0.000 HD
ENDBRANCH   5  15
BRANCH   7  17
ATOM     17  C   UNL     1       3.179   5.731  18.717  0.00  0.00    +0.000 C 
ATOM     18  C   UNL     1       4.588   5.677  19.332  0.00  0.00    +0.000 C 
BRANCH  17  19
ATOM     19  C   UNL     1       2.351   4.548  19.201  0.00  0.00    +0.000 A 
ATOM     20  C   UNL     1       1.489   3.880  18.315  0.00  0.00    +0.000 A 
ATOM     21  C   UNL     1       0.826   2.715  18.709  0.00  0.00    +0.000 A 
ATOM     22  C   UNL     1       1.011   2.207  19.992  0.00  0.00    +0.000 A 
ATOM     23  C   UNL     1       1.836   2.878  20.892  0.00  0.00    +0.000 A 
ATOM     24  C   UNL     1       2.494   4.045  20.503  0.00  0.00    +0.000 A 
ENDBRANCH  17  19
ENDBRANCH   7  17
TORSDOF 5
ENDMDL
MODEL 5
REMARK VINA RESULT:      -7.5      2.266      4.051
REMARK  Name = 
REMARK  7 active torsions:
REMARK  status: ('A' for Active; 'I' for Inactive)
REMARK    1  A    between atoms: C_1  and  O_2
REMARK    2  A    between atoms: O_2  and  C_3
REMARK    3  A    between atoms: C_5  and  O_6
REMARK    4  A    between atoms: C_8  and  O_9
REMARK    5  A    between atoms: C_11  and  C_12
REMARK    6  A    between atoms: C_12  and  C_13
REMARK    7  A    between atoms: C_12  and  C_14
REMARK                            x       y       z     vdW  Elec       q    Type
REMARK                         _______ _______ _______ _____ _____    ______ ____
ROOT
ATOM      1  C   UNL     1       5.920   3.600  12.828  0.00  0.00    +0.000 A 
ATOM      2  C   UNL     1       7.104   4.328  12.806  0.00  0.00    +0.000 A 
ATOM      3  C   UNL     1       7.430   5.121  13.904  0.00  0.00    +0.000 A 
ATOM      4  C   UNL     1       6.590   5.206  15.041  0.00  0.00    +0.000 A 
ATOM      5  C   UNL     1       6.855   5.984  16.187  0.00  0.00    +0.000 A 
ATOM      6  C   UNL     1       5.977   6.021  17.259  0.00  0.00    +0.000 A 
ATOM      7  C   UNL     1       4.805   5.285  17.168  0.00  0.00    +0.000 A 
ATOM      8  N   UNL     1       4.528   4.506  16.088  0.00  0.00    +0.000 NA
ATOM      9  C   UNL     1       5.392   4.470  15.054  0.00  0.00    +0.000 A 
ATOM     10  C   UNL     1       5.085   3.685  13.949  0.00  0.00    +0.000 A 
ENDROOT
BRANCH   1  12
ATOM     11  C   UNL     1       4.187   3.071  11.284  0.00  0.00    +0.000 C 
ATOM     12  O   UNL     1       5.471   2.781  11.829  0.00  0.00    +0.000 OA
ENDBRANCH   1  12
BRANCH   3  13
ATOM     13  O   UNL     1       8.600   5.848  13.886  0.00  0.00    +0.000 OA
ATOM     14  H   UNL     1       9.268   5.352  13.379  0.00  0.00    +0.000 HD
ENDBRANCH   3  13
BRANCH   5  15
ATOM     15  O   UNL     1       7.985   6.756  16.299  0.00  0.00    +0.000 OA
ATOM     16  H   UNL     1       8.569   6.298  16.939  0.00  0.00    +0.000 HD
ENDBRANCH   5  15
BRANCH   7  17
ATOM     17  C   UNL     1       3.771   5.378  18.286  0.00  0.00    +0.000 C 
ATOM     18  C   UNL     1       2.844   6.593  18.109  0.00  0.00    +0.000 C 
BRANCH  17  19
ATOM     19  C   UNL     1       2.946   4.114  18.490  0.00  0.00    +0.000 A 
ATOM     20  C   UNL     1       3.553   2.947  18.982  0.00  0.00    +0.000 A 
ATOM     21  C   UNL     1       2.785   1.824  19.299  0.00  0.00    +0.000 A 
ATOM     22  C   UNL     1       1.403   1.851  19.124  0.00  0.00    +0.000 A 
ATOM     23  C   UNL     1       0.792   2.990  18.605  0.00  0.00    +0.000 A 
ATOM     24  C   UNL     1       1.558   4.111  18.281  0.00  0.00    +0.000 A 
ENDBRANCH  17  19
ENDBRANCH   7  17
TORSDOF 5
ENDMDL
MODEL 6
REMARK VINA RESULT:      -7.5      3.461      7.629
REMARK  Name = 
REMARK  7 active torsions:
REMARK  status: ('A' for Active; 'I' for Inactive)
REMARK    1  A    between atoms: C_1  and  O_2
REMARK    2  A    between atoms: O_2  and  C_3
REMARK    3  A    between atoms: C_5  and  O_6
REMARK    4  A    between atoms: C_8  and  O_9
REMARK    5  A    between atoms: C_11  and  C_12
REMARK    6  A    between atoms: C_12  and  C_13
REMARK    7  A    between atoms: C_12  and  C_14
REMARK                            x       y       z     vdW  Elec       q    Type
REMARK                         _______ _______ _______ _____ _____    ______ ____
ROOT
ATOM      1  C   UNL     1       0.392  10.087  21.855  0.00  0.00    +0.000 A 
ATOM      2  C   UNL     1       0.450  10.887  20.721  0.00  0.00    +0.000 A 
ATOM      3  C   UNL     1       0.984  10.359  19.547  0.00  0.00    +0.000 A 
ATOM      4  C   UNL     1       1.469   9.029  19.479  0.00  0.00    +0.000 A 
ATOM      5  C   UNL     1       2.020   8.427  18.330  0.00  0.00    +0.000 A 
ATOM      6  C   UNL     1       2.481   7.120  18.344  0.00  0.00    +0.000 A 
ATOM      7  C   UNL     1       2.410   6.416  19.538  0.00  0.00    +0.000 A 
ATOM      8  N   UNL     1       1.864   6.958  20.660  0.00  0.00    +0.000 NA
ATOM      9  C   UNL     1       1.410   8.227  20.633  0.00  0.00    +0.000 A 
ATOM     10  C   UNL     1       0.873   8.774  21.793  0.00  0.00    +0.000 A 
ENDROOT
BRANCH   1  12
ATOM     11  C   UNL     1      -1.305  11.234  23.069  0.00  0.00    +0.000 C 
ATOM     12  O   UNL     1      -0.105  10.467  23.072  0.00  0.00    +0.000 OA
ENDBRANCH   1  12
BRANCH   3  13
ATOM     13  O   UNL     1       1.049  11.148  18.421  0.00  0.00    +0.000 OA
ATOM     14  H   UNL     1       0.382  10.837  17.782  0.00  0.00    +0.000 HD
ENDBRANCH   3  13
BRANCH   5  15
ATOM     15  O   UNL     1       2.144   9.101  17.141  0.00  0.00    +0.000 OA
ATOM     16  H   UNL     1       2.497   9.988  17.362  0.00  0.00    +0.000 HD
ENDBRANCH   5  15
BRANCH   7  17
ATOM     17  C   UNL     1       2.995   5.010  19.617  0.00  0.00    +0.000 C 
ATOM     18  C   UNL     1       1.929   3.930  19.366  0.00  0.00    +0.000 C 
BRANCH  17  19
ATOM     19  C   UNL     1       4.200   4.775  18.715  0.00  0.00    +0.000 A 
ATOM     20  C   UNL     1       4.030   4.195  17.448  0.00  0.00    +0.000 A 
ATOM     21  C   UNL     1       5.105   4.096  16.559  0.00  0.00    +0.000 A 
ATOM     22  C   UNL     1       6.360   4.572  16.928  0.00  0.00    +0.000 A 
ATOM     23  C   UNL     1       6.551   5.118  18.195  0.00  0.00    +0.000 A 
ATOM     24  C   UNL     1       5.481   5.212  19.087  0.00  0.00    +0.000 A 
ENDBRANCH  17  19
ENDBRANCH   7  17
TORSDOF 5
ENDMDL
MODEL 7
REMARK VINA RESULT:      -7.4      3.003      6.379
REMARK  Name = 
REMARK  7 active torsions:
REMARK  status: ('A' for Active; 'I' for Inactive)
REMARK    1  A    between atoms: C_1  and  O_2
REMARK    2  A    between atoms: O_2  and  C_3
REMARK    3  A    between atoms: C_5  and  O_6
REMARK    4  A    between atoms: C_8  and  O_9
REMARK    5  A    between atoms: C_11  and  C_12
REMARK    6  A    between atoms: C_12  and  C_13
REMARK    7  A    between atoms: C_12  and  C_14
REMARK                            x       y       z     vdW  Elec       q    Type
REMARK                         _______ _______ _______ _____ _____    ______ ____
ROOT
ATOM      1  C   UNL     1       1.437   5.797  20.575  0.00  0.00    +0.000 A 
ATOM      2  C   UNL     1       0.653   4.661  20.418  0.00  0.00    +0.000 A 
ATOM      3  C   UNL     1       1.095   3.646  19.572  0.00  0.00    +0.000 A 
ATOM      4  C   UNL     1       2.322   3.741  18.868  0.00  0.00    +0.000 A 
ATOM      5  C   UNL     1       2.833   2.756  17.998  0.00  0.00    +0.000 A 
ATOM      6  C   UNL     1       4.040   2.926  17.338  0.00  0.00    +0.000 A 
ATOM      7  C   UNL     1       4.731   4.113  17.536  0.00  0.00    +0.000 A 
ATOM      8  N   UNL     1       4.278   5.074  18.385  0.00  0.00    +0.000 NA
ATOM      9  C   UNL     1       3.107   4.896  19.029  0.00  0.00    +0.000 A 
ATOM     10  C   UNL     1       2.648   5.897  19.878  0.00  0.00    +0.000 A 
ENDROOT
BRANCH   1  12
ATOM     11  C   UNL     1       1.366   8.164  20.823  0.00  0.00    +0.000 C 
ATOM     12  O   UNL     1       1.134   6.869  21.369  0.00  0.00    +0.000 OA
ENDBRANCH   1  12
BRANCH   3  13
ATOM     13  O   UNL     1       0.321   2.520  19.408  0.00  0.00    +0.000 OA
ATOM     14  H   UNL     1      -0.559   2.789  19.089  0.00  0.00    +0.000 HD
ENDBRANCH   3  13
BRANCH   5  15
ATOM     15  O   UNL     1       2.162   1.585  17.746  0.00  0.00    +0.000 OA
ATOM     16  H   UNL     1       1.380   1.583  18.336  0.00  0.00    +0.000 HD
ENDBRANCH   5  15
BRANCH   7  17
ATOM     17  C   UNL     1       6.012   4.375  16.753  0.00  0.00    +0.000 C 
ATOM     18  C   UNL     1       5.730   4.637  15.264  0.00  0.00    +0.000 C 
BRANCH  17  19
ATOM     19  C   UNL     1       6.886   5.485  17.324  0.00  0.00    +0.000 A 
ATOM     20  C   UNL     1       6.912   6.749  16.710  0.00  0.00    +0.000 A 
ATOM     21  C   UNL     1       7.602   7.812  17.297  0.00  0.00    +0.000 A 
ATOM     22  C   UNL     1       8.278   7.625  18.501  0.00  0.00    +0.000 A 
ATOM     23  C   UNL     1       8.290   6.368  19.103  0.00  0.00    +0.000 A 
ATOM     24  C   UNL     1       7.606   5.303  18.514  0.00  0.00    +0.000 A 
ENDBRANCH  17  19
ENDBRANCH   7  17
TORSDOF 5
ENDMDL
MODEL 8
REMARK VINA RESULT:      -7.4      2.199      4.002
REMARK  Name = 
REMARK  7 active torsions:
REMARK  status: ('A' for Active; 'I' for Inactive)
REMARK    1  A    between atoms: C_1  and  O_2
REMARK    2  A    between atoms: O_2  and  C_3
REMARK    3  A    between atoms: C_5  and  O_6
REMARK    4  A    between atoms: C_8  and  O_9
REMARK    5  A    between atoms: C_11  and  C_12
REMARK    6  A    between atoms: C_12  and  C_13
REMARK    7  A    between atoms: C_12  and  C_14
REMARK                            x       y       z     vdW  Elec       q    Type
REMARK                         _______ _______ _______ _____ _____    ______ ____
ROOT
ATOM      1  C   UNL     1       5.802   3.557  12.967  0.00  0.00    +0.000 A 
ATOM      2  C   UNL     1       6.992   4.271  12.910  0.00  0.00    +0.000 A 
ATOM      3  C   UNL     1       7.342   5.090  13.981  0.00  0.00    +0.000 A 
ATOM      4  C   UNL     1       6.518   5.214  15.128  0.00  0.00    +0.000 A 
ATOM      5  C   UNL     1       6.806   6.020  16.248  0.00  0.00    +0.000 A 
ATOM      6  C   UNL     1       5.944   6.094  17.330  0.00  0.00    +0.000 A 
ATOM      7  C   UNL     1       4.763   5.368  17.275  0.00  0.00    +0.000 A 
ATOM      8  N   UNL     1       4.463   4.563  16.221  0.00  0.00    +0.000 NA
ATOM      9  C   UNL     1       5.313   4.490  15.176  0.00  0.00    +0.000 A 
ATOM     10  C   UNL     1       4.983   3.679  14.096  0.00  0.00    +0.000 A 
ENDROOT
BRANCH   1  12
ATOM     11  C   UNL     1       4.226   3.176  11.223  0.00  0.00    +0.000 C 
ATOM     12  O   UNL     1       5.330   2.716  11.996  0.00  0.00    +0.000 OA
ENDBRANCH   1  12
BRANCH   3  13
ATOM     13  O   UNL     1       8.518   5.804  13.928  0.00  0.00    +0.000 OA
ATOM     14  H   UNL     1       9.159   5.310  13.385  0.00  0.00    +0.000 HD
ENDBRANCH   3  13
BRANCH   5  15
ATOM     15  O   UNL     1       7.945   6.782  16.324  0.00  0.00    +0.000 OA
ATOM     16  H   UNL     1       8.119   6.923  17.278  0.00  0.00    +0.000 HD
ENDBRANCH   5  15
BRANCH   7  17
ATOM     17  C   UNL     1       3.746   5.501  18.404  0.00  0.00    +0.000 C 
ATOM     18  C   UNL     1       2.774   6.669  18.164  0.00  0.00    +0.000 C 
BRANCH  17  19
ATOM     19  C   UNL     1       2.969   4.227  18.708  0.00  0.00    +0.000 A 
ATOM     20  C   UNL     1       1.565   4.226  18.650  0.00  0.00    +0.000 A 
ATOM     21  C   UNL     1       0.847   3.036  18.795  0.00  0.00    +0.000 A 
ATOM     22  C   UNL     1       1.522   1.836  19.005  0.00  0.00    +0.000 A 
ATOM     23  C   UNL     1       2.912   1.827  19.100  0.00  0.00    +0.000 A 
ATOM     24  C   UNL     1       3.630   3.016  18.962  0.00  0.00    +0.000 A 
ENDBRANCH  17  19
ENDBRANCH   7  17
TORSDOF 5
ENDMDL
MODEL 9
REMARK VINA RESULT:      -7.3      3.771      7.954
REMARK  Name = 
REMARK  7 active torsions:
REMARK  status: ('A' for Active; 'I' for Inactive)
REMARK    1  A    between atoms: C_1  and  O_2
REMARK    2  A    between atoms: O_2  and  C_3
REMARK    3  A    between atoms: C_5  and  O_6
REMARK    4  A    between atoms: C_8  and  O_9
REMARK    5  A    between atoms: C_11  and  C_12
REMARK    6  A    between atoms: C_12  and  C_13
REMARK    7  A    between atoms: C_12  and  C_14
REMARK                            x       y       z     vdW  Elec       q    Type
REMARK                         _______ _______ _______ _____ _____    ______ ____
ROOT
ATOM      1  C   UNL     1      -0.411  10.469  21.807  0.00  0.00    +0.000 A 
ATOM      2  C   UNL     1      -0.322  11.248  20.660  0.00  0.00    +0.000 A 
ATOM      3  C   UNL     1       0.385  10.759  19.564  0.00  0.00    +0.000 A 
ATOM      4  C   UNL     1       1.016   9.490  19.587  0.00  0.00    +0.000 A 
ATOM      5  C   UNL     1       1.746   8.931  18.518  0.00  0.00    +0.000 A 
ATOM      6  C   UNL     1       2.342   7.684  18.620  0.00  0.00    +0.000 A 
ATOM      7  C   UNL     1       2.224   7.000  19.822  0.00  0.00    +0.000 A 
ATOM      8  N   UNL     1       1.509   7.500  20.865  0.00  0.00    +0.000 NA
ATOM      9  C   UNL     1       0.925   8.710  20.753  0.00  0.00    +0.000 A 
ATOM     10  C   UNL     1       0.214   9.216  21.835  0.00  0.00    +0.000 A 
ENDROOT
BRANCH   1  12
ATOM     11  C   UNL     1      -1.571  12.146  23.037  0.00  0.00    +0.000 C 
ATOM     12  O   UNL     1      -1.070  10.815  22.955  0.00  0.00    +0.000 OA
ENDBRANCH   1  12
BRANCH   3  13
ATOM     13  O   UNL     1       0.480  11.528  18.426  0.00  0.00    +0.000 OA
ATOM     14  H   UNL     1       0.776  12.422  18.676  0.00  0.00    +0.000 HD
ENDBRANCH   3  13
BRANCH   5  15
ATOM     15  O   UNL     1       1.918   9.591  17.327  0.00  0.00    +0.000 OA
ATOM     16  H   UNL     1       1.540  10.486  17.451  0.00  0.00    +0.000 HD
ENDBRANCH   5  15
BRANCH   7  17
ATOM     17  C   UNL     1       2.948   5.670  20.004  0.00  0.00    +0.000 C 
ATOM     18  C   UNL     1       1.988   4.551  20.442  0.00  0.00    +0.000 C 
BRANCH  17  19
ATOM     19  C   UNL     1       3.759   5.221  18.795  0.00  0.00    +0.000 A 
ATOM     20  C   UNL     1       5.129   5.520  18.714  0.00  0.00    +0.000 A 
ATOM     21  C   UNL     1       5.911   5.002  17.679  0.00  0.00    +0.000 A 
ATOM     22  C   UNL     1       5.334   4.184  16.711  0.00  0.00    +0.000 A 
ATOM     23  C   UNL     1       3.970   3.908  16.759  0.00  0.00    +0.000 A 
ATOM     24  C   UNL     1       3.185   4.430  17.788  0.00  0.00    +0.000 A 
ENDBRANCH  17  19
ENDBRANCH   7  17
TORSDOF 5
ENDMDL
