MODEL 1
REMARK VINA RESULT:      -4.9      0.000      0.000
REMARK  Name = 
REMARK  10 active torsions:
REMARK  status: ('A' for Active; 'I' for Inactive)
REMARK    1  A    between atoms: N_3  and  C_4
REMARK    2  A    between atoms: C_4  and  C_5
REMARK    3  A    between atoms: C_5  and  S_6
REMARK    4  A    between atoms: N_7  and  C_8
REMARK    5  A    between atoms: C_8  and  C_9
REMARK    6  A    between atoms: C_9  and  C_10
REMARK    7  A    between atoms: C_10  and  C_11
REMARK    8  A    between atoms: C_11  and  C_12
REMARK    9  A    between atoms: C_12  and  C_13
REMARK   10  A    between atoms: C_13  and  O_14
REMARK                            x       y       z     vdW  Elec       q    Type
REMARK                         _______ _______ _______ _____ _____    ______ ____
ROOT
ATOM      1  N   UNL     1       4.551   1.954  19.064  0.00  0.00    +0.000 NA
ATOM      2  C   UNL     1       4.573   3.204  19.349  0.00  0.00    +0.000 C 
ATOM      3  N   UNL     1       3.559   3.885  19.927  0.00  0.00    +0.000 N 
ATOM      4  N   UNL     1       5.700   3.889  19.072  0.00  0.00    +0.000 N 
ATOM      5  H   UNL     1       3.627   1.573  19.290  0.00  0.00    +0.000 HD
ATOM      6  H   UNL     1       3.589   4.892  19.907  0.00  0.00    +0.000 HD
ATOM      7  H   UNL     1       6.428   3.299  18.690  0.00  0.00    +0.000 HD
ENDROOT
BRANCH   3   8
ATOM      8  C   UNL     1       2.580   3.329  20.843  0.00  0.00    +0.000 C 
BRANCH   8   9
ATOM      9  C   UNL     1       1.143   3.493  20.337  0.00  0.00    +0.000 C 
BRANCH   9  10
ATOM     10  S   UNL     1       0.852   2.553  18.801  0.00  0.00    +0.000 S 
ATOM     11  H   UNL     1       2.017   1.883  18.834  0.00  0.00    +0.000 HD
ENDBRANCH   9  10
ENDBRANCH   8   9
ENDBRANCH   3   8
BRANCH   4  12
ATOM     12  C   UNL     1       6.028   5.269  19.334  0.00  0.00    +0.000 C 
BRANCH  12  13
ATOM     13  C   UNL     1       7.389   5.626  18.736  0.00  0.00    +0.000 C 
BRANCH  13  14
ATOM     14  C   UNL     1       7.219   6.488  17.481  0.00  0.00    +0.000 C 
BRANCH  14  15
ATOM     15  C   UNL     1       7.099   5.649  16.216  0.00  0.00    +0.000 C 
BRANCH  15  16
ATOM     16  C   UNL     1       5.659   5.646  15.703  0.00  0.00    +0.000 C 
BRANCH  16  17
ATOM     17  C   UNL     1       5.159   4.229  15.460  0.00  0.00    +0.000 C 
BRANCH  17  18
ATOM     18  O   UNL     1       5.904   3.312  16.249  0.00  0.00    +0.000 OA
ATOM     19  H   UNL     1       6.726   3.112  15.768  0.00  0.00    +0.000 HD
ENDBRANCH  17  18
ENDBRANCH  16  17
ENDBRANCH  15  16
ENDBRANCH  14  15
ENDBRANCH  13  14
ENDBRANCH  12  13
ENDBRANCH   4  12
TORSDOF 10
ENDMDL
MODEL 2
REMARK VINA RESULT:      -4.8      1.104      1.266
REMARK  Name = 
REMARK  10 active torsions:
REMARK  status: ('A' for Active; 'I' for Inactive)
REMARK    1  A    between atoms: N_3  and  C_4
REMARK    2  A    between atoms: C_4  and  C_5
REMARK    3  A    between atoms: C_5  and  S_6
REMARK    4  A    between atoms: N_7  and  C_8
REMARK    5  A    between atoms: C_8  and  C_9
REMARK    6  A    between atoms: C_9  and  C_10
REMARK    7  A    between atoms: C_10  and  C_11
REMARK    8  A    between atoms: C_11  and  C_12
REMARK    9  A    between atoms: C_12  and  C_13
REMARK   10  A    between atoms: C_13  and  O_14
REMARK                            x       y       z     vdW  Elec       q    Type
REMARK                         _______ _______ _______ _____ _____    ______ ____
ROOT
ATOM      1  N   UNL     1       4.903   2.801  19.212  0.00  0.00    +0.000 NA
ATOM      2  C   UNL     1       5.151   4.059  19.195  0.00  0.00    +0.000 C 
ATOM      3  N   UNL     1       4.230   5.032  19.367  0.00  0.00    +0.000 N 
ATOM      4  N   UNL     1       6.430   4.442  19.014  0.00  0.00    +0.000 N 
ATOM      5  H   UNL     1       3.895   2.658  19.318  0.00  0.00    +0.000 HD
ATOM      6  H   UNL     1       4.482   5.976  19.119  0.00  0.00    +0.000 HD
ATOM      7  H   UNL     1       7.064   3.656  18.946  0.00  0.00    +0.000 HD
ENDROOT
BRANCH   3   8
ATOM      8  C   UNL     1       3.017   4.920  20.156  0.00  0.00    +0.000 C 
BRANCH   8   9
ATOM      9  C   UNL     1       1.800   4.535  19.310  0.00  0.00    +0.000 C 
BRANCH   9  10
ATOM     10  S   UNL     1       1.043   2.976  19.880  0.00  0.00    +0.000 S 
ATOM     11  H   UNL     1       1.535   3.040  21.129  0.00  0.00    +0.000 HD
ENDBRANCH   9  10
ENDBRANCH   8   9
ENDBRANCH   3   8
BRANCH   4  12
ATOM     12  C   UNL     1       7.005   5.766  19.010  0.00  0.00    +0.000 C 
BRANCH  12  13
ATOM     13  C   UNL     1       7.290   6.228  17.581  0.00  0.00    +0.000 C 
BRANCH  13  14
ATOM     14  C   UNL     1       6.051   6.887  16.968  0.00  0.00    +0.000 C 
BRANCH  14  15
ATOM     15  C   UNL     1       5.398   6.014  15.904  0.00  0.00    +0.000 C 
BRANCH  15  16
ATOM     16  C   UNL     1       6.457   5.263  15.097  0.00  0.00    +0.000 C 
BRANCH  16  17
ATOM     17  C   UNL     1       6.079   3.801  14.909  0.00  0.00    +0.000 C 
BRANCH  17  18
ATOM     18  O   UNL     1       5.835   3.199  16.173  0.00  0.00    +0.000 OA
ATOM     19  H   UNL     1       5.273   2.419  16.023  0.00  0.00    +0.000 HD
ENDBRANCH  17  18
ENDBRANCH  16  17
ENDBRANCH  15  16
ENDBRANCH  14  15
ENDBRANCH  13  14
ENDBRANCH  12  13
ENDBRANCH   4  12
TORSDOF 10
ENDMDL
MODEL 3
REMARK VINA RESULT:      -4.8      2.851      5.701
REMARK  Name = 
REMARK  10 active torsions:
REMARK  status: ('A' for Active; 'I' for Inactive)
REMARK    1  A    between atoms: N_3  and  C_4
REMARK    2  A    between atoms: C_4  and  C_5
REMARK    3  A    between atoms: C_5  and  S_6
REMARK    4  A    between atoms: N_7  and  C_8
REMARK    5  A    between atoms: C_8  and  C_9
REMARK    6  A    between atoms: C_9  and  C_10
REMARK    7  A    between atoms: C_10  and  C_11
REMARK    8  A    between atoms: C_11  and  C_12
REMARK    9  A    between atoms: C_12  and  C_13
REMARK   10  A    between atoms: C_13  and  O_14
REMARK                            x       y       z     vdW  Elec       q    Type
REMARK                         _______ _______ _______ _____ _____    ______ ____
ROOT
ATOM      1  N   UNL     1       6.014   4.690  19.305  0.00  0.00    +0.000 NA
ATOM      2  C   UNL     1       5.259   4.260  18.361  0.00  0.00    +0.000 C 
ATOM      3  N   UNL     1       5.166   4.811  17.132  0.00  0.00    +0.000 N 
ATOM      4  N   UNL     1       4.518   3.161  18.605  0.00  0.00    +0.000 N 
ATOM      5  H   UNL     1       6.485   5.546  18.996  0.00  0.00    +0.000 HD
ATOM      6  H   UNL     1       4.393   4.539  16.545  0.00  0.00    +0.000 HD
ATOM      7  H   UNL     1       4.684   2.779  19.528  0.00  0.00    +0.000 HD
ENDROOT
BRANCH   3   8
ATOM      8  C   UNL     1       6.224   5.526  16.442  0.00  0.00    +0.000 C 
BRANCH   8   9
ATOM      9  C   UNL     1       7.063   4.612  15.544  0.00  0.00    +0.000 C 
BRANCH   9  10
ATOM     10  S   UNL     1       6.124   4.044  14.087  0.00  0.00    +0.000 S 
ATOM     11  H   UNL     1       7.107   4.273  13.199  0.00  0.00    +0.000 HD
ENDBRANCH   9  10
ENDBRANCH   8   9
ENDBRANCH   3   8
BRANCH   4  12
ATOM     12  C   UNL     1       3.638   2.429  17.727  0.00  0.00    +0.000 C 
BRANCH  12  13
ATOM     13  C   UNL     1       2.186   2.857  17.936  0.00  0.00    +0.000 C 
BRANCH  13  14
ATOM     14  C   UNL     1       1.587   2.161  19.162  0.00  0.00    +0.000 C 
BRANCH  14  15
ATOM     15  C   UNL     1       0.795   3.121  20.041  0.00  0.00    +0.000 C 
BRANCH  15  16
ATOM     16  C   UNL     1       1.724   3.871  20.995  0.00  0.00    +0.000 C 
BRANCH  16  17
ATOM     17  C   UNL     1       1.854   5.337  20.607  0.00  0.00    +0.000 C 
BRANCH  17  18
ATOM     18  O   UNL     1       3.214   5.644  20.329  0.00  0.00    +0.000 OA
ATOM     19  H   UNL     1       3.339   6.595  20.496  0.00  0.00    +0.000 HD
ENDBRANCH  17  18
ENDBRANCH  16  17
ENDBRANCH  15  16
ENDBRANCH  14  15
ENDBRANCH  13  14
ENDBRANCH  12  13
ENDBRANCH   4  12
TORSDOF 10
ENDMDL
MODEL 4
REMARK VINA RESULT:      -4.8      2.661      5.112
REMARK  Name = 
REMARK  10 active torsions:
REMARK  status: ('A' for Active; 'I' for Inactive)
REMARK    1  A    between atoms: N_3  and  C_4
REMARK    2  A    between atoms: C_4  and  C_5
REMARK    3  A    between atoms: C_5  and  S_6
REMARK    4  A    between atoms: N_7  and  C_8
REMARK    5  A    between atoms: C_8  and  C_9
REMARK    6  A    between atoms: C_9  and  C_10
REMARK    7  A    between atoms: C_10  and  C_11
REMARK    8  A    between atoms: C_11  and  C_12
REMARK    9  A    between atoms: C_12  and  C_13
REMARK   10  A    between atoms: C_13  and  O_14
REMARK                            x       y       z     vdW  Elec       q    Type
REMARK                         _______ _______ _______ _____ _____    ______ ____
ROOT
ATOM      1  N   UNL     1       6.388   5.070  19.537  0.00  0.00    +0.000 NA
ATOM      2  C   UNL     1       5.256   5.435  19.057  0.00  0.00    +0.000 C 
ATOM      3  N   UNL     1       5.067   5.949  17.823  0.00  0.00    +0.000 N 
ATOM      4  N   UNL     1       4.166   5.272  19.833  0.00  0.00    +0.000 N 
ATOM      5  H   UNL     1       7.126   5.286  18.860  0.00  0.00    +0.000 HD
ATOM      6  H   UNL     1       4.190   6.403  17.625  0.00  0.00    +0.000 HD
ATOM      7  H   UNL     1       4.384   4.833  20.719  0.00  0.00    +0.000 HD
ENDROOT
BRANCH   3   8
ATOM      8  C   UNL     1       5.872   5.656  16.651  0.00  0.00    +0.000 C 
BRANCH   8   9
ATOM      9  C   UNL     1       5.594   4.261  16.082  0.00  0.00    +0.000 C 
BRANCH   9  10
ATOM     10  S   UNL     1       6.241   4.079  14.386  0.00  0.00    +0.000 S 
ATOM     11  H   UNL     1       7.267   4.934  14.543  0.00  0.00    +0.000 HD
ENDBRANCH   9  10
ENDBRANCH   8   9
ENDBRANCH   3   8
BRANCH   4  12
ATOM     12  C   UNL     1       2.778   5.531  19.539  0.00  0.00    +0.000 C 
BRANCH  12  13
ATOM     13  C   UNL     1       1.884   5.052  20.683  0.00  0.00    +0.000 C 
BRANCH  13  14
ATOM     14  C   UNL     1       0.963   3.921  20.212  0.00  0.00    +0.000 C 
BRANCH  14  15
ATOM     15  C   UNL     1       1.274   3.478  18.788  0.00  0.00    +0.000 C 
BRANCH  15  16
ATOM     16  C   UNL     1       1.824   2.052  18.773  0.00  0.00    +0.000 C 
BRANCH  16  17
ATOM     17  C   UNL     1       3.164   1.980  18.055  0.00  0.00    +0.000 C 
BRANCH  17  18
ATOM     18  O   UNL     1       4.220   2.188  18.984  0.00  0.00    +0.000 OA
ATOM     19  H   UNL     1       3.901   2.820  19.653  0.00  0.00    +0.000 HD
ENDBRANCH  17  18
ENDBRANCH  16  17
ENDBRANCH  15  16
ENDBRANCH  14  15
ENDBRANCH  13  14
ENDBRANCH  12  13
ENDBRANCH   4  12
TORSDOF 10
ENDMDL
MODEL 5
REMARK VINA RESULT:      -4.8      2.911      5.353
REMARK  Name = 
REMARK  10 active torsions:
REMARK  status: ('A' for Active; 'I' for Inactive)
REMARK    1  A    between atoms: N_3  and  C_4
REMARK    2  A    between atoms: C_4  and  C_5
REMARK    3  A    between atoms: C_5  and  S_6
REMARK    4  A    between atoms: N_7  and  C_8
REMARK    5  A    between atoms: C_8  and  C_9
REMARK    6  A    between atoms: C_9  and  C_10
REMARK    7  A    between atoms: C_10  and  C_11
REMARK    8  A    between atoms: C_11  and  C_12
REMARK    9  A    between atoms: C_12  and  C_13
REMARK   10  A    between atoms: C_13  and  O_14
REMARK                            x       y       z     vdW  Elec       q    Type
REMARK                         _______ _______ _______ _____ _____    ______ ____
ROOT
ATOM      1  N   UNL     1       4.593   2.743  17.410  0.00  0.00    +0.000 NA
ATOM      2  C   UNL     1       4.645   4.002  17.646  0.00  0.00    +0.000 C 
ATOM      3  N   UNL     1       5.773   4.745  17.642  0.00  0.00    +0.000 N 
ATOM      4  N   UNL     1       3.484   4.640  17.897  0.00  0.00    +0.000 N 
ATOM      5  H   UNL     1       5.543   2.386  17.276  0.00  0.00    +0.000 HD
ATOM      6  H   UNL     1       5.739   5.666  18.051  0.00  0.00    +0.000 HD
ATOM      7  H   UNL     1       2.682   4.026  17.830  0.00  0.00    +0.000 HD
ENDROOT
BRANCH   3   8
ATOM      8  C   UNL     1       6.955   4.486  16.840  0.00  0.00    +0.000 C 
BRANCH   8   9
ATOM      9  C   UNL     1       6.889   5.152  15.463  0.00  0.00    +0.000 C 
BRANCH   9  10
ATOM     10  S   UNL     1       6.208   4.029  14.197  0.00  0.00    +0.000 S 
ATOM     11  H   UNL     1       7.150   3.081  14.342  0.00  0.00    +0.000 HD
ENDBRANCH   9  10
ENDBRANCH   8   9
ENDBRANCH   3   8
BRANCH   4  12
ATOM     12  C   UNL     1       3.234   6.041  18.133  0.00  0.00    +0.000 C 
BRANCH  12  13
ATOM     13  C   UNL     1       2.475   6.243  19.444  0.00  0.00    +0.000 C 
BRANCH  13  14
ATOM     14  C   UNL     1       2.500   4.963  20.286  0.00  0.00    +0.000 C 
BRANCH  14  15
ATOM     15  C   UNL     1       1.109   4.378  20.489  0.00  0.00    +0.000 C 
BRANCH  15  16
ATOM     16  C   UNL     1       1.132   2.858  20.327  0.00  0.00    +0.000 C 
BRANCH  16  17
ATOM     17  C   UNL     1       0.835   2.447  18.892  0.00  0.00    +0.000 C 
BRANCH  17  18
ATOM     18  O   UNL     1       1.969   1.799  18.332  0.00  0.00    +0.000 OA
ATOM     19  H   UNL     1       2.292   1.156  18.986  0.00  0.00    +0.000 HD
ENDBRANCH  17  18
ENDBRANCH  16  17
ENDBRANCH  15  16
ENDBRANCH  14  15
ENDBRANCH  13  14
ENDBRANCH  12  13
ENDBRANCH   4  12
TORSDOF 10
ENDMDL
MODEL 6
REMARK VINA RESULT:      -4.8      3.104      5.437
REMARK  Name = 
REMARK  10 active torsions:
REMARK  status: ('A' for Active; 'I' for Inactive)
REMARK    1  A    between atoms: N_3  and  C_4
REMARK    2  A    between atoms: C_4  and  C_5
REMARK    3  A    between atoms: C_5  and  S_6
REMARK    4  A    between atoms: N_7  and  C_8
REMARK    5  A    between atoms: C_8  and  C_9
REMARK    6  A    between atoms: C_9  and  C_10
REMARK    7  A    between atoms: C_10  and  C_11
REMARK    8  A    between atoms: C_11  and  C_12
REMARK    9  A    between atoms: C_12  and  C_13
REMARK   10  A    between atoms: C_13  and  O_14
REMARK                            x       y       z     vdW  Elec       q    Type
REMARK                         _______ _______ _______ _____ _____    ______ ____
ROOT
ATOM      1  N   UNL     1       7.627   4.455  18.062  0.00  0.00    +0.000 NA
ATOM      2  C   UNL     1       6.356   4.562  18.196  0.00  0.00    +0.000 C 
ATOM      3  N   UNL     1       5.604   5.559  17.682  0.00  0.00    +0.000 N 
ATOM      4  N   UNL     1       5.716   3.595  18.883  0.00  0.00    +0.000 N 
ATOM      5  H   UNL     1       7.982   5.272  17.557  0.00  0.00    +0.000 HD
ATOM      6  H   UNL     1       4.663   5.672  18.024  0.00  0.00    +0.000 HD
ATOM      7  H   UNL     1       6.340   2.860  19.189  0.00  0.00    +0.000 HD
ENDROOT
BRANCH   3   8
ATOM      8  C   UNL     1       5.897   6.302  16.470  0.00  0.00    +0.000 C 
BRANCH   8   9
ATOM      9  C   UNL     1       5.405   5.586  15.208  0.00  0.00    +0.000 C 
BRANCH   9  10
ATOM     10  S   UNL     1       6.754   4.690  14.367  0.00  0.00    +0.000 S 
ATOM     11  H   UNL     1       7.501   4.511  15.470  0.00  0.00    +0.000 HD
ENDBRANCH   9  10
ENDBRANCH   8   9
ENDBRANCH   3   8
BRANCH   4  12
ATOM     12  C   UNL     1       4.306   3.424  19.137  0.00  0.00    +0.000 C 
BRANCH  12  13
ATOM     13  C   UNL     1       3.676   2.499  18.096  0.00  0.00    +0.000 C 
BRANCH  13  14
ATOM     14  C   UNL     1       2.600   3.237  17.296  0.00  0.00    +0.000 C 
BRANCH  14  15
ATOM     15  C   UNL     1       1.534   3.853  18.193  0.00  0.00    +0.000 C 
BRANCH  15  16
ATOM     16  C   UNL     1       0.832   2.774  19.018  0.00  0.00    +0.000 C 
BRANCH  16  17
ATOM     17  C   UNL     1       0.929   3.063  20.509  0.00  0.00    +0.000 C 
BRANCH  17  18
ATOM     18  O   UNL     1       1.137   4.454  20.718  0.00  0.00    +0.000 OA
ATOM     19  H   UNL     1       2.051   4.570  21.031  0.00  0.00    +0.000 HD
ENDBRANCH  17  18
ENDBRANCH  16  17
ENDBRANCH  15  16
ENDBRANCH  14  15
ENDBRANCH  13  14
ENDBRANCH  12  13
ENDBRANCH   4  12
TORSDOF 10
ENDMDL
MODEL 7
REMARK VINA RESULT:      -4.7      1.604      1.771
REMARK  Name = 
REMARK  10 active torsions:
REMARK  status: ('A' for Active; 'I' for Inactive)
REMARK    1  A    between atoms: N_3  and  C_4
REMARK    2  A    between atoms: C_4  and  C_5
REMARK    3  A    between atoms: C_5  and  S_6
REMARK    4  A    between atoms: N_7  and  C_8
REMARK    5  A    between atoms: C_8  and  C_9
REMARK    6  A    between atoms: C_9  and  C_10
REMARK    7  A    between atoms: C_10  and  C_11
REMARK    8  A    between atoms: C_11  and  C_12
REMARK    9  A    between atoms: C_12  and  C_13
REMARK   10  A    between atoms: C_13  and  O_14
REMARK                            x       y       z     vdW  Elec       q    Type
REMARK                         _______ _______ _______ _____ _____    ______ ____
ROOT
ATOM      1  N   UNL     1       4.819   2.186  19.793  0.00  0.00    +0.000 NA
ATOM      2  C   UNL     1       4.805   3.322  19.198  0.00  0.00    +0.000 C 
ATOM      3  N   UNL     1       3.740   3.846  18.554  0.00  0.00    +0.000 N 
ATOM      4  N   UNL     1       5.931   4.061  19.235  0.00  0.00    +0.000 N 
ATOM      5  H   UNL     1       3.918   1.721  19.652  0.00  0.00    +0.000 HD
ATOM      6  H   UNL     1       3.893   4.629  17.939  0.00  0.00    +0.000 HD
ATOM      7  H   UNL     1       6.664   3.623  19.779  0.00  0.00    +0.000 HD
ENDROOT
BRANCH   3   8
ATOM      8  C   UNL     1       2.347   3.600  18.881  0.00  0.00    +0.000 C 
BRANCH   8   9
ATOM      9  C   UNL     1       1.951   4.185  20.240  0.00  0.00    +0.000 C 
BRANCH   9  10
ATOM     10  S   UNL     1       1.532   2.880  21.444  0.00  0.00    +0.000 S 
ATOM     11  H   UNL     1       0.668   3.626  22.153  0.00  0.00    +0.000 HD
ENDBRANCH   9  10
ENDBRANCH   8   9
ENDBRANCH   3   8
BRANCH   4  12
ATOM     12  C   UNL     1       6.185   5.382  18.713  0.00  0.00    +0.000 C 
BRANCH  12  13
ATOM     13  C   UNL     1       7.351   5.360  17.725  0.00  0.00    +0.000 C 
BRANCH  13  14
ATOM     14  C   UNL     1       6.962   4.615  16.445  0.00  0.00    +0.000 C 
BRANCH  14  15
ATOM     15  C   UNL     1       5.753   5.238  15.759  0.00  0.00    +0.000 C 
BRANCH  15  16
ATOM     16  C   UNL     1       5.362   4.436  14.518  0.00  0.00    +0.000 C 
BRANCH  16  17
ATOM     17  C   UNL     1       6.571   4.149  13.639  0.00  0.00    +0.000 C 
BRANCH  17  18
ATOM     18  O   UNL     1       6.329   2.992  12.850  0.00  0.00    +0.000 OA
ATOM     19  H   UNL     1       5.712   3.245  12.140  0.00  0.00    +0.000 HD
ENDBRANCH  17  18
ENDBRANCH  16  17
ENDBRANCH  15  16
ENDBRANCH  14  15
ENDBRANCH  13  14
ENDBRANCH  12  13
ENDBRANCH   4  12
TORSDOF 10
ENDMDL
MODEL 8
REMARK VINA RESULT:      -4.7      3.022      5.513
REMARK  Name = 
REMARK  10 active torsions:
REMARK  status: ('A' for Active; 'I' for Inactive)
REMARK    1  A    between atoms: N_3  and  C_4
REMARK    2  A    between atoms: C_4  and  C_5
REMARK    3  A    between atoms: C_5  and  S_6
REMARK    4  A    between atoms: N_7  and  C_8
REMARK    5  A    between atoms: C_8  and  C_9
REMARK    6  A    between atoms: C_9  and  C_10
REMARK    7  A    between atoms: C_10  and  C_11
REMARK    8  A    between atoms: C_11  and  C_12
REMARK    9  A    between atoms: C_12  and  C_13
REMARK   10  A    between atoms: C_13  and  O_14
REMARK                            x       y       z     vdW  Elec       q    Type
REMARK                         _______ _______ _______ _____ _____    ______ ____
ROOT
ATOM      1  N   UNL     1       5.755   4.013  19.119  0.00  0.00    +0.000 NA
ATOM      2  C   UNL     1       4.774   3.514  18.461  0.00  0.00    +0.000 C 
ATOM      3  N   UNL     1       4.291   4.005  17.300  0.00  0.00    +0.000 N 
ATOM      4  N   UNL     1       4.194   2.401  18.953  0.00  0.00    +0.000 N 
ATOM      5  H   UNL     1       6.071   4.870  18.655  0.00  0.00    +0.000 HD
ATOM      6  H   UNL     1       3.393   3.678  16.982  0.00  0.00    +0.000 HD
ATOM      7  H   UNL     1       4.647   2.068  19.795  0.00  0.00    +0.000 HD
ENDROOT
BRANCH   3   8
ATOM      8  C   UNL     1       5.058   4.725  16.300  0.00  0.00    +0.000 C 
BRANCH   8   9
ATOM      9  C   UNL     1       5.964   3.804  15.477  0.00  0.00    +0.000 C 
BRANCH   9  10
ATOM     10  S   UNL     1       6.896   4.726  14.209  0.00  0.00    +0.000 S 
ATOM     11  H   UNL     1       5.816   5.140  13.525  0.00  0.00    +0.000 HD
ENDBRANCH   9  10
ENDBRANCH   8   9
ENDBRANCH   3   8
BRANCH   4  12
ATOM     12  C   UNL     1       3.128   1.598  18.404  0.00  0.00    +0.000 C 
BRANCH  12  13
ATOM     13  C   UNL     1       1.773   2.268  18.632  0.00  0.00    +0.000 C 
BRANCH  13  14
ATOM     14  C   UNL     1       1.581   2.611  20.112  0.00  0.00    +0.000 C 
BRANCH  14  15
ATOM     15  C   UNL     1       1.063   4.029  20.314  0.00  0.00    +0.000 C 
BRANCH  15  16
ATOM     16  C   UNL     1       2.185   4.951  20.793  0.00  0.00    +0.000 C 
BRANCH  16  17
ATOM     17  C   UNL     1       2.394   6.115  19.835  0.00  0.00    +0.000 C 
BRANCH  17  18
ATOM     18  O   UNL     1       2.137   5.694  18.501  0.00  0.00    +0.000 OA
ATOM     19  H   UNL     1       1.817   4.776  18.540  0.00  0.00    +0.000 HD
ENDBRANCH  17  18
ENDBRANCH  16  17
ENDBRANCH  15  16
ENDBRANCH  14  15
ENDBRANCH  13  14
ENDBRANCH  12  13
ENDBRANCH   4  12
TORSDOF 10
ENDMDL
MODEL 9
REMARK VINA RESULT:      -4.7      1.960      2.743
REMARK  Name = 
REMARK  10 active torsions:
REMARK  status: ('A' for Active; 'I' for Inactive)
REMARK    1  A    between atoms: N_3  and  C_4
REMARK    2  A    between atoms: C_4  and  C_5
REMARK    3  A    between atoms: C_5  and  S_6
REMARK    4  A    between atoms: N_7  and  C_8
REMARK    5  A    between atoms: C_8  and  C_9
REMARK    6  A    between atoms: C_9  and  C_10
REMARK    7  A    between atoms: C_10  and  C_11
REMARK    8  A    between atoms: C_11  and  C_12
REMARK    9  A    between atoms: C_12  and  C_13
REMARK   10  A    between atoms: C_13  and  O_14
REMARK                            x       y       z     vdW  Elec       q    Type
REMARK                         _______ _______ _______ _____ _____    ______ ____
ROOT
ATOM      1  N   UNL     1       4.601   3.298  19.480  0.00  0.00    +0.000 NA
ATOM      2  C   UNL     1       3.986   4.078  18.670  0.00  0.00    +0.000 C 
ATOM      3  N   UNL     1       2.793   3.813  18.095  0.00  0.00    +0.000 N 
ATOM      4  N   UNL     1       4.560   5.264  18.386  0.00  0.00    +0.000 N 
ATOM      5  H   UNL     1       4.074   2.425  19.573  0.00  0.00    +0.000 HD
ATOM      6  H   UNL     1       2.503   4.382  17.315  0.00  0.00    +0.000 HD
ATOM      7  H   UNL     1       5.423   5.408  18.896  0.00  0.00    +0.000 HD
ENDROOT
BRANCH   3   8
ATOM      8  C   UNL     1       1.740   2.995  18.668  0.00  0.00    +0.000 C 
BRANCH   8   9
ATOM      9  C   UNL     1       1.091   3.644  19.894  0.00  0.00    +0.000 C 
BRANCH   9  10
ATOM     10  S   UNL     1       1.530   2.774  21.435  0.00  0.00    +0.000 S 
ATOM     11  H   UNL     1       0.678   3.456  22.220  0.00  0.00    +0.000 HD
ENDBRANCH   9  10
ENDBRANCH   8   9
ENDBRANCH   3   8
BRANCH   4  12
ATOM     12  C   UNL     1       4.077   6.351  17.570  0.00  0.00    +0.000 C 
BRANCH  12  13
ATOM     13  C   UNL     1       4.999   6.580  16.372  0.00  0.00    +0.000 C 
BRANCH  13  14
ATOM     14  C   UNL     1       6.447   6.232  16.729  0.00  0.00    +0.000 C 
BRANCH  14  15
ATOM     15  C   UNL     1       7.197   7.418  17.321  0.00  0.00    +0.000 C 
BRANCH  15  16
ATOM     16  C   UNL     1       8.029   6.985  18.528  0.00  0.00    +0.000 C 
BRANCH  16  17
ATOM     17  C   UNL     1       7.856   5.501  18.819  0.00  0.00    +0.000 C 
BRANCH  17  18
ATOM     18  O   UNL     1       7.083   5.329  19.999  0.00  0.00    +0.000 OA
ATOM     19  H   UNL     1       7.699   5.314  20.753  0.00  0.00    +0.000 HD
ENDBRANCH  17  18
ENDBRANCH  16  17
ENDBRANCH  15  16
ENDBRANCH  14  15
ENDBRANCH  13  14
ENDBRANCH  12  13
ENDBRANCH   4  12
TORSDOF 10
ENDMDL
