MODEL 1
REMARK VINA RESULT:      -8.3      0.000      0.000
REMARK  Name = 
REMARK  9 active torsions:
REMARK  status: ('A' for Active; 'I' for Inactive)
REMARK    1  A    between atoms: C_2  and  C_3
REMARK    2  A    between atoms: C_3  and  O_4
REMARK    3  A    between atoms: O_4  and  C_5
REMARK    4  A    between atoms: C_5  and  C_6
REMARK    5  A    between atoms: N_8  and  C_9
REMARK    6  A    between atoms: C_15  and  C_16
REMARK    7  A    between atoms: C_16  and  O_18
REMARK    8  A    between atoms: N_19  and  C_20
REMARK    9  A    between atoms: C_24  and  C_25
REMARK                            x       y       z     vdW  Elec       q    Type
REMARK                         _______ _______ _______ _____ _____    ______ ____
ROOT
ATOM      1  O   UNL     1       2.430   2.263  21.199  0.00  0.00    +0.000 OA
ENDROOT
BRANCH   1   2
ATOM      2  C   UNL     1       2.019   3.514  21.745  0.00  0.00    +0.000 C 
BRANCH   2   4
ATOM      3  O   UNL     1       0.639   4.312  19.950  0.00  0.00    +0.000 OA
ATOM      4  C   UNL     1       1.583   4.545  20.696  0.00  0.00    +0.000 C 
ATOM      5  N   UNL     1       2.355   5.696  20.717  0.00  0.00    +0.000 N 
ATOM      6  H   UNL     1       3.202   5.673  21.277  0.00  0.00    +0.000 HD
BRANCH   5   7
ATOM      7  C   UNL     1       2.107   6.874  19.982  0.00  0.00    +0.000 A 
ATOM      8  C   UNL     1       2.491   7.031  18.649  0.00  0.00    +0.000 A 
ATOM      9  C   UNL     1       2.201   8.207  17.959  0.00  0.00    +0.000 A 
ATOM     10  C   UNL     1       1.544   9.254  18.605  0.00  0.00    +0.000 A 
ATOM     11  C   UNL     1       1.164   9.128  19.947  0.00  0.00    +0.000 A 
ATOM     12  C   UNL     1       1.425   7.919  20.618  0.00  0.00    +0.000 A 
BRANCH  11  13
ATOM     13  C   UNL     1       0.550  10.251  20.656  0.00  0.00    +0.000 A 
ATOM     14  C   UNL     1      -0.824  10.623  20.686  0.00  0.00    +0.000 A 
ATOM     15  C   UNL     1      -0.858  11.770  21.432  0.00  0.00    +0.000 A 
ATOM     16  O   UNL     1       0.393  12.072  21.848  0.00  0.00    +0.000 OA
ATOM     17  N   UNL     1       1.278  11.129  21.366  0.00  0.00    +0.000 NA
ENDBRANCH  11  13
ENDBRANCH   5   7
ENDBRANCH   2   4
ENDBRANCH   1   2
BRANCH   1  18
ATOM     18  C   UNL     1       3.815   2.284  20.867  0.00  0.00    +0.000 C 
BRANCH  18  19
ATOM     19  C   UNL     1       4.099   2.550  19.392  0.00  0.00    +0.000 C 
ATOM     20  O   UNL     1       3.502   1.900  18.536  0.00  0.00    +0.000 OA
ATOM     21  N   UNL     1       5.060   3.522  19.162  0.00  0.00    +0.000 N 
ATOM     22  H   UNL     1       5.616   3.785  19.981  0.00  0.00    +0.000 HD
BRANCH  21  23
ATOM     23  C   UNL     1       5.509   3.951  17.887  0.00  0.00    +0.000 A 
ATOM     24  C   UNL     1       4.737   3.714  16.742  0.00  0.00    +0.000 A 
ATOM     25  C   UNL     1       5.195   4.053  15.467  0.00  0.00    +0.000 A 
ATOM     26  C   UNL     1       6.437   4.648  15.322  0.00  0.00    +0.000 A 
ATOM     27 CL   UNL     1       7.018   5.027  13.748  0.00  0.00    +0.000 Cl
ATOM     28  C   UNL     1       7.215   4.940  16.439  0.00  0.00    +0.000 A 
ATOM     29  C   UNL     1       6.742   4.626  17.730  0.00  0.00    +0.000 A 
BRANCH  29  30
ATOM     30  C   UNL     1       7.596   4.952  18.900  0.00  0.00    +0.000 C 
ATOM     31  O   UNL     1       8.767   4.623  18.982  0.00  0.00    +0.000 OA
BRANCH  30  32
ATOM     32  O   UNL     1       6.945   5.596  19.895  0.00  0.00    +0.000 OA
ATOM     33  H   UNL     1       7.150   6.545  20.001  0.00  0.00    +0.000 HD
ENDBRANCH  30  32
ENDBRANCH  29  30
ENDBRANCH  21  23
ENDBRANCH  18  19
ENDBRANCH   1  18
TORSDOF 9
ENDMDL
MODEL 2
REMARK VINA RESULT:      -7.9      1.034      1.115
REMARK  Name = 
REMARK  9 active torsions:
REMARK  status: ('A' for Active; 'I' for Inactive)
REMARK    1  A    between atoms: C_2  and  C_3
REMARK    2  A    between atoms: C_3  and  O_4
REMARK    3  A    between atoms: O_4  and  C_5
REMARK    4  A    between atoms: C_5  and  C_6
REMARK    5  A    between atoms: N_8  and  C_9
REMARK    6  A    between atoms: C_15  and  C_16
REMARK    7  A    between atoms: C_16  and  O_18
REMARK    8  A    between atoms: N_19  and  C_20
REMARK    9  A    between atoms: C_24  and  C_25
REMARK                            x       y       z     vdW  Elec       q    Type
REMARK                         _______ _______ _______ _____ _____    ______ ____
ROOT
ATOM      1  O   UNL     1       3.871   3.640  20.844  0.00  0.00    +0.000 OA
ENDROOT
BRANCH   1   2
ATOM      2  C   UNL     1       2.489   3.680  21.189  0.00  0.00    +0.000 C 
BRANCH   2   4
ATOM      3  O   UNL     1       0.507   4.886  20.571  0.00  0.00    +0.000 OA
ATOM      4  C   UNL     1       1.732   4.884  20.616  0.00  0.00    +0.000 C 
ATOM      5  N   UNL     1       2.575   5.899  20.189  0.00  0.00    +0.000 N 
ATOM      6  H   UNL     1       3.566   5.683  20.137  0.00  0.00    +0.000 HD
BRANCH   5   7
ATOM      7  C   UNL     1       2.177   7.181  19.758  0.00  0.00    +0.000 A 
ATOM      8  C   UNL     1       2.482   7.684  18.492  0.00  0.00    +0.000 A 
ATOM      9  C   UNL     1       2.044   8.950  18.105  0.00  0.00    +0.000 A 
ATOM     10  C   UNL     1       1.317   9.741  18.993  0.00  0.00    +0.000 A 
ATOM     11  C   UNL     1       1.014   9.266  20.276  0.00  0.00    +0.000 A 
ATOM     12  C   UNL     1       1.425   7.970  20.637  0.00  0.00    +0.000 A 
BRANCH  11  13
ATOM     13  C   UNL     1       0.325  10.121  21.243  0.00  0.00    +0.000 A 
ATOM     14  C   UNL     1      -0.439  11.295  20.988  0.00  0.00    +0.000 A 
ATOM     15  C   UNL     1      -0.808  11.747  22.227  0.00  0.00    +0.000 A 
ATOM     16  O   UNL     1      -0.329  10.907  23.172  0.00  0.00    +0.000 OA
ATOM     17  N   UNL     1       0.381   9.889  22.565  0.00  0.00    +0.000 NA
ENDBRANCH  11  13
ENDBRANCH   5   7
ENDBRANCH   2   4
ENDBRANCH   1   2
BRANCH   1  18
ATOM     18  C   UNL     1       4.164   2.492  20.052  0.00  0.00    +0.000 C 
BRANCH  18  19
ATOM     19  C   UNL     1       4.433   2.800  18.582  0.00  0.00    +0.000 C 
ATOM     20  O   UNL     1       3.727   2.283  17.719  0.00  0.00    +0.000 OA
ATOM     21  N   UNL     1       5.507   3.649  18.364  0.00  0.00    +0.000 N 
ATOM     22  H   UNL     1       6.119   3.791  19.173  0.00  0.00    +0.000 HD
BRANCH  21  23
ATOM     23  C   UNL     1       5.968   4.085  17.096  0.00  0.00    +0.000 A 
ATOM     24  C   UNL     1       5.438   3.542  15.919  0.00  0.00    +0.000 A 
ATOM     25  C   UNL     1       5.932   3.895  14.661  0.00  0.00    +0.000 A 
ATOM     26  C   UNL     1       6.965   4.811  14.565  0.00  0.00    +0.000 A 
ATOM     27 CL   UNL     1       7.602   5.215  13.019  0.00  0.00    +0.000 Cl
ATOM     28  C   UNL     1       7.489   5.408  15.709  0.00  0.00    +0.000 A 
ATOM     29  C   UNL     1       6.971   5.076  16.978  0.00  0.00    +0.000 A 
BRANCH  29  30
ATOM     30  C   UNL     1       7.551   5.730  18.178  0.00  0.00    +0.000 C 
ATOM     31  O   UNL     1       7.673   6.938  18.284  0.00  0.00    +0.000 OA
BRANCH  30  32
ATOM     32  O   UNL     1       7.987   4.865  19.121  0.00  0.00    +0.000 OA
ATOM     33  H   UNL     1       8.097   3.937  18.837  0.00  0.00    +0.000 HD
ENDBRANCH  30  32
ENDBRANCH  29  30
ENDBRANCH  21  23
ENDBRANCH  18  19
ENDBRANCH   1  18
TORSDOF 9
ENDMDL
MODEL 3
REMARK VINA RESULT:      -7.9      4.153      6.609
REMARK  Name = 
REMARK  9 active torsions:
REMARK  status: ('A' for Active; 'I' for Inactive)
REMARK    1  A    between atoms: C_2  and  C_3
REMARK    2  A    between atoms: C_3  and  O_4
REMARK    3  A    between atoms: O_4  and  C_5
REMARK    4  A    between atoms: C_5  and  C_6
REMARK    5  A    between atoms: N_8  and  C_9
REMARK    6  A    between atoms: C_15  and  C_16
REMARK    7  A    between atoms: C_16  and  O_18
REMARK    8  A    between atoms: N_19  and  C_20
REMARK    9  A    between atoms: C_24  and  C_25
REMARK                            x       y       z     vdW  Elec       q    Type
REMARK                         _______ _______ _______ _____ _____    ______ ____
ROOT
ATOM      1  O   UNL     1       0.643  10.760  21.817  0.00  0.00    +0.000 OA
ENDROOT
BRANCH   1   2
ATOM      2  C   UNL     1       1.049  11.129  20.502  0.00  0.00    +0.000 C 
BRANCH   2   4
ATOM      3  O   UNL     1      -0.265  12.757  19.323  0.00  0.00    +0.000 OA
ATOM      4  C   UNL     1      -0.102  11.572  19.589  0.00  0.00    +0.000 C 
ATOM      5  N   UNL     1      -0.873  10.511  19.139  0.00  0.00    +0.000 N 
ATOM      6  H   UNL     1      -0.715   9.608  19.578  0.00  0.00    +0.000 HD
BRANCH   5   7
ATOM      7  C   UNL     1      -1.901  10.583  18.176  0.00  0.00    +0.000 A 
ATOM      8  C   UNL     1      -1.798   9.996  16.914  0.00  0.00    +0.000 A 
ATOM      9  C   UNL     1      -2.853  10.075  16.005  0.00  0.00    +0.000 A 
ATOM     10  C   UNL     1      -4.016  10.768  16.341  0.00  0.00    +0.000 A 
ATOM     11  C   UNL     1      -4.135  11.381  17.594  0.00  0.00    +0.000 A 
ATOM     12  C   UNL     1      -3.080  11.255  18.517  0.00  0.00    +0.000 A 
BRANCH  11  13
ATOM     13  C   UNL     1      -5.316  12.180  17.923  0.00  0.00    +0.000 A 
ATOM     14  C   UNL     1      -5.747  12.618  19.207  0.00  0.00    +0.000 A 
ATOM     15  C   UNL     1      -6.930  13.268  18.974  0.00  0.00    +0.000 A 
ATOM     16  O   UNL     1      -7.197  13.252  17.649  0.00  0.00    +0.000 OA
ATOM     17  N   UNL     1      -6.195  12.572  16.986  0.00  0.00    +0.000 NA
ENDBRANCH  11  13
ENDBRANCH   5   7
ENDBRANCH   2   4
ENDBRANCH   1   2
BRANCH   1  18
ATOM     18  C   UNL     1       1.302   9.569  22.237  0.00  0.00    +0.000 C 
BRANCH  18  19
ATOM     19  C   UNL     1       0.940   8.333  21.419  0.00  0.00    +0.000 C 
ATOM     20  O   UNL     1      -0.243   8.049  21.248  0.00  0.00    +0.000 OA
ATOM     21  N   UNL     1       2.032   7.616  20.953  0.00  0.00    +0.000 N 
ATOM     22  H   UNL     1       2.927   7.862  21.385  0.00  0.00    +0.000 HD
BRANCH  21  23
ATOM     23  C   UNL     1       1.969   6.432  20.177  0.00  0.00    +0.000 A 
ATOM     24  C   UNL     1       1.638   5.207  20.771  0.00  0.00    +0.000 A 
ATOM     25  C   UNL     1       1.649   4.013  20.045  0.00  0.00    +0.000 A 
ATOM     26  C   UNL     1       1.984   4.034  18.702  0.00  0.00    +0.000 A 
ATOM     27 CL   UNL     1       2.039   2.559  17.818  0.00  0.00    +0.000 Cl
ATOM     28  C   UNL     1       2.275   5.237  18.064  0.00  0.00    +0.000 A 
ATOM     29  C   UNL     1       2.235   6.447  18.788  0.00  0.00    +0.000 A 
BRANCH  29  30
ATOM     30  C   UNL     1       2.550   7.712  18.078  0.00  0.00    +0.000 C 
ATOM     31  O   UNL     1       3.635   7.939  17.571  0.00  0.00    +0.000 OA
BRANCH  30  32
ATOM     32  O   UNL     1       1.546   8.617  18.094  0.00  0.00    +0.000 OA
ATOM     33  H   UNL     1       1.475   9.169  18.896  0.00  0.00    +0.000 HD
ENDBRANCH  30  32
ENDBRANCH  29  30
ENDBRANCH  21  23
ENDBRANCH  18  19
ENDBRANCH   1  18
TORSDOF 9
ENDMDL
MODEL 4
REMARK VINA RESULT:      -7.8      3.261      8.354
REMARK  Name = 
REMARK  9 active torsions:
REMARK  status: ('A' for Active; 'I' for Inactive)
REMARK    1  A    between atoms: C_2  and  C_3
REMARK    2  A    between atoms: C_3  and  O_4
REMARK    3  A    between atoms: O_4  and  C_5
REMARK    4  A    between atoms: C_5  and  C_6
REMARK    5  A    between atoms: N_8  and  C_9
REMARK    6  A    between atoms: C_15  and  C_16
REMARK    7  A    between atoms: C_16  and  O_18
REMARK    8  A    between atoms: N_19  and  C_20
REMARK    9  A    between atoms: C_24  and  C_25
REMARK                            x       y       z     vdW  Elec       q    Type
REMARK                         _______ _______ _______ _____ _____    ______ ____
ROOT
ATOM      1  O   UNL     1       1.047   4.580  20.374  0.00  0.00    +0.000 OA
ENDROOT
BRANCH   1   2
ATOM      2  C   UNL     1       1.447   4.035  19.119  0.00  0.00    +0.000 C 
BRANCH   2   4
ATOM      3  O   UNL     1       3.500   2.864  19.545  0.00  0.00    +0.000 OA
ATOM      4  C   UNL     1       2.959   3.810  18.984  0.00  0.00    +0.000 C 
ATOM      5  N   UNL     1       3.578   4.763  18.189  0.00  0.00    +0.000 N 
ATOM      6  H   UNL     1       3.026   5.576  17.931  0.00  0.00    +0.000 HD
BRANCH   5   7
ATOM      7  C   UNL     1       4.921   4.738  17.760  0.00  0.00    +0.000 A 
ATOM      8  C   UNL     1       6.000   4.827  18.641  0.00  0.00    +0.000 A 
ATOM      9  C   UNL     1       7.310   4.774  18.167  0.00  0.00    +0.000 A 
ATOM     10  C   UNL     1       7.557   4.658  16.800  0.00  0.00    +0.000 A 
ATOM     11  C   UNL     1       6.491   4.586  15.894  0.00  0.00    +0.000 A 
ATOM     12  C   UNL     1       5.174   4.597  16.390  0.00  0.00    +0.000 A 
BRANCH  11  13
ATOM     13  C   UNL     1       6.739   4.549  14.452  0.00  0.00    +0.000 A 
ATOM     14  C   UNL     1       6.115   3.722  13.476  0.00  0.00    +0.000 A 
ATOM     15  C   UNL     1       6.747   4.032  12.302  0.00  0.00    +0.000 A 
ATOM     16  O   UNL     1       7.672   4.991  12.530  0.00  0.00    +0.000 OA
ATOM     17  N   UNL     1       7.675   5.318  13.871  0.00  0.00    +0.000 NA
ENDBRANCH  11  13
ENDBRANCH   5   7
ENDBRANCH   2   4
ENDBRANCH   1   2
BRANCH   1  18
ATOM     18  C   UNL     1       2.018   5.502  20.860  0.00  0.00    +0.000 C 
BRANCH  18  19
ATOM     19  C   UNL     1       1.914   6.897  20.252  0.00  0.00    +0.000 C 
ATOM     20  O   UNL     1       2.600   7.180  19.271  0.00  0.00    +0.000 OA
ATOM     21  N   UNL     1       1.037   7.744  20.910  0.00  0.00    +0.000 N 
ATOM     22  H   UNL     1       0.736   7.422  21.835  0.00  0.00    +0.000 HD
BRANCH  21  23
ATOM     23  C   UNL     1       0.763   9.088  20.552  0.00  0.00    +0.000 A 
ATOM     24  C   UNL     1       0.847   9.501  19.216  0.00  0.00    +0.000 A 
ATOM     25  C   UNL     1       0.663  10.836  18.848  0.00  0.00    +0.000 A 
ATOM     26  C   UNL     1       0.379  11.779  19.821  0.00  0.00    +0.000 A 
ATOM     27 CL   UNL     1       0.194  13.430  19.374  0.00  0.00    +0.000 Cl
ATOM     28  C   UNL     1       0.243  11.402  21.155  0.00  0.00    +0.000 A 
ATOM     29  C   UNL     1       0.399  10.049  21.524  0.00  0.00    +0.000 A 
BRANCH  29  30
ATOM     30  C   UNL     1       0.247   9.679  22.953  0.00  0.00    +0.000 C 
ATOM     31  O   UNL     1       1.190   9.394  23.671  0.00  0.00    +0.000 OA
BRANCH  30  32
ATOM     32  O   UNL     1      -1.036   9.627  23.376  0.00  0.00    +0.000 OA
ATOM     33  H   UNL     1      -1.474   8.756  23.320  0.00  0.00    +0.000 HD
ENDBRANCH  30  32
ENDBRANCH  29  30
ENDBRANCH  21  23
ENDBRANCH  18  19
ENDBRANCH   1  18
TORSDOF 9
ENDMDL
MODEL 5
REMARK VINA RESULT:      -7.7      1.458      1.754
REMARK  Name = 
REMARK  9 active torsions:
REMARK  status: ('A' for Active; 'I' for Inactive)
REMARK    1  A    between atoms: C_2  and  C_3
REMARK    2  A    between atoms: C_3  and  O_4
REMARK    3  A    between atoms: O_4  and  C_5
REMARK    4  A    between atoms: C_5  and  C_6
REMARK    5  A    between atoms: N_8  and  C_9
REMARK    6  A    between atoms: C_15  and  C_16
REMARK    7  A    between atoms: C_16  and  O_18
REMARK    8  A    between atoms: N_19  and  C_20
REMARK    9  A    between atoms: C_24  and  C_25
REMARK                            x       y       z     vdW  Elec       q    Type
REMARK                         _______ _______ _______ _____ _____    ______ ____
ROOT
ATOM      1  O   UNL     1       3.919   2.501  19.689  0.00  0.00    +0.000 OA
ENDROOT
BRANCH   1   2
ATOM      2  C   UNL     1       3.546   3.425  20.708  0.00  0.00    +0.000 C 
BRANCH   2   4
ATOM      3  O   UNL     1       4.606   5.396  19.838  0.00  0.00    +0.000 OA
ATOM      4  C   UNL     1       3.573   4.894  20.267  0.00  0.00    +0.000 C 
ATOM      5  N   UNL     1       2.347   5.524  20.411  0.00  0.00    +0.000 N 
ATOM      6  H   UNL     1       1.632   5.026  20.934  0.00  0.00    +0.000 HD
BRANCH   5   7
ATOM      7  C   UNL     1       2.021   6.819  19.956  0.00  0.00    +0.000 A 
ATOM      8  C   UNL     1       2.412   7.303  18.707  0.00  0.00    +0.000 A 
ATOM      9  C   UNL     1       2.044   8.584  18.295  0.00  0.00    +0.000 A 
ATOM     10  C   UNL     1       1.300   9.405  19.140  0.00  0.00    +0.000 A 
ATOM     11  C   UNL     1       0.911   8.948  20.406  0.00  0.00    +0.000 A 
ATOM     12  C   UNL     1       1.252   7.639  20.792  0.00  0.00    +0.000 A 
BRANCH  11  13
ATOM     13  C   UNL     1       0.203   9.832  21.332  0.00  0.00    +0.000 A 
ATOM     14  C   UNL     1      -0.101   9.602  22.704  0.00  0.00    +0.000 A 
ATOM     15  C   UNL     1      -0.825  10.699  23.089  0.00  0.00    +0.000 A 
ATOM     16  O   UNL     1      -0.941  11.549  22.044  0.00  0.00    +0.000 OA
ATOM     17  N   UNL     1      -0.303  11.014  20.942  0.00  0.00    +0.000 NA
ENDBRANCH  11  13
ENDBRANCH   5   7
ENDBRANCH   2   4
ENDBRANCH   1   2
BRANCH   1  18
ATOM     18  C   UNL     1       2.960   2.493  18.636  0.00  0.00    +0.000 C 
BRANCH  18  19
ATOM     19  C   UNL     1       3.450   3.130  17.340  0.00  0.00    +0.000 C 
ATOM     20  O   UNL     1       2.636   3.434  16.471  0.00  0.00    +0.000 OA
ATOM     21  N   UNL     1       4.826   3.286  17.265  0.00  0.00    +0.000 N 
ATOM     22  H   UNL     1       5.359   2.767  17.968  0.00  0.00    +0.000 HD
BRANCH  21  23
ATOM     23  C   UNL     1       5.533   3.844  16.171  0.00  0.00    +0.000 A 
ATOM     24  C   UNL     1       5.161   3.545  14.853  0.00  0.00    +0.000 A 
ATOM     25  C   UNL     1       5.892   4.016  13.760  0.00  0.00    +0.000 A 
ATOM     26  C   UNL     1       7.007   4.808  13.974  0.00  0.00    +0.000 A 
ATOM     27 CL   UNL     1       7.932   5.353  12.629  0.00  0.00    +0.000 Cl
ATOM     28  C   UNL     1       7.384   5.165  15.266  0.00  0.00    +0.000 A 
ATOM     29  C   UNL     1       6.630   4.715  16.370  0.00  0.00    +0.000 A 
BRANCH  29  30
ATOM     30  C   UNL     1       7.057   5.114  17.735  0.00  0.00    +0.000 C 
ATOM     31  O   UNL     1       7.660   4.369  18.488  0.00  0.00    +0.000 OA
BRANCH  30  32
ATOM     32  O   UNL     1       6.668   6.358  18.092  0.00  0.00    +0.000 OA
ATOM     33  H   UNL     1       6.658   6.549  19.050  0.00  0.00    +0.000 HD
ENDBRANCH  30  32
ENDBRANCH  29  30
ENDBRANCH  21  23
ENDBRANCH  18  19
ENDBRANCH   1  18
TORSDOF 9
ENDMDL
MODEL 6
REMARK VINA RESULT:      -7.7      2.086      2.715
REMARK  Name = 
REMARK  9 active torsions:
REMARK  status: ('A' for Active; 'I' for Inactive)
REMARK    1  A    between atoms: C_2  and  C_3
REMARK    2  A    between atoms: C_3  and  O_4
REMARK    3  A    between atoms: O_4  and  C_5
REMARK    4  A    between atoms: C_5  and  C_6
REMARK    5  A    between atoms: N_8  and  C_9
REMARK    6  A    between atoms: C_15  and  C_16
REMARK    7  A    between atoms: C_16  and  O_18
REMARK    8  A    between atoms: N_19  and  C_20
REMARK    9  A    between atoms: C_24  and  C_25
REMARK                            x       y       z     vdW  Elec       q    Type
REMARK                         _______ _______ _______ _____ _____    ______ ____
ROOT
ATOM      1  O   UNL     1       3.192   1.787  18.974  0.00  0.00    +0.000 OA
ENDROOT
BRANCH   1   2
ATOM      2  C   UNL     1       2.248   2.492  19.777  0.00  0.00    +0.000 C 
BRANCH   2   4
ATOM      3  O   UNL     1       0.910   3.918  18.384  0.00  0.00    +0.000 OA
ATOM      4  C   UNL     1       1.821   3.847  19.201  0.00  0.00    +0.000 C 
ATOM      5  N   UNL     1       2.560   4.906  19.706  0.00  0.00    +0.000 N 
ATOM      6  H   UNL     1       3.388   4.673  20.247  0.00  0.00    +0.000 HD
BRANCH   5   7
ATOM      7  C   UNL     1       2.306   6.276  19.483  0.00  0.00    +0.000 A 
ATOM      8  C   UNL     1       2.702   6.941  18.321  0.00  0.00    +0.000 A 
ATOM      9  C   UNL     1       2.405   8.291  18.139  0.00  0.00    +0.000 A 
ATOM     10  C   UNL     1       1.730   9.000  19.132  0.00  0.00    +0.000 A 
ATOM     11  C   UNL     1       1.339   8.359  20.315  0.00  0.00    +0.000 A 
ATOM     12  C   UNL     1       1.607   6.986  20.466  0.00  0.00    +0.000 A 
BRANCH  11  13
ATOM     13  C   UNL     1       0.706   9.114  21.397  0.00  0.00    +0.000 A 
ATOM     14  C   UNL     1      -0.395   8.723  22.210  0.00  0.00    +0.000 A 
ATOM     15  C   UNL     1      -0.634   9.804  23.016  0.00  0.00    +0.000 A 
ATOM     16  O   UNL     1       0.262  10.777  22.738  0.00  0.00    +0.000 OA
ATOM     17  N   UNL     1       1.101  10.355  21.726  0.00  0.00    +0.000 NA
ENDBRANCH  11  13
ENDBRANCH   5   7
ENDBRANCH   2   4
ENDBRANCH   1   2
BRANCH   1  18
ATOM     18  C   UNL     1       4.482   1.799  19.578  0.00  0.00    +0.000 C 
BRANCH  18  19
ATOM     19  C   UNL     1       5.139   3.175  19.619  0.00  0.00    +0.000 C 
ATOM     20  O   UNL     1       5.114   3.825  20.662  0.00  0.00    +0.000 OA
ATOM     21  N   UNL     1       5.701   3.576  18.416  0.00  0.00    +0.000 N 
ATOM     22  H   UNL     1       5.424   3.020  17.603  0.00  0.00    +0.000 HD
BRANCH  21  23
ATOM     23  C   UNL     1       6.364   4.808  18.187  0.00  0.00    +0.000 A 
ATOM     24  C   UNL     1       7.342   5.269  19.078  0.00  0.00    +0.000 A 
ATOM     25  C   UNL     1       7.950   6.516  18.918  0.00  0.00    +0.000 A 
ATOM     26  C   UNL     1       7.591   7.319  17.849  0.00  0.00    +0.000 A 
ATOM     27 CL   UNL     1       8.309   8.873  17.676  0.00  0.00    +0.000 Cl
ATOM     28  C   UNL     1       6.655   6.879  16.917  0.00  0.00    +0.000 A 
ATOM     29  C   UNL     1       6.062   5.607  17.059  0.00  0.00    +0.000 A 
BRANCH  29  30
ATOM     30  C   UNL     1       5.069   5.167  16.048  0.00  0.00    +0.000 C 
ATOM     31  O   UNL     1       4.059   4.547  16.333  0.00  0.00    +0.000 OA
BRANCH  30  32
ATOM     32  O   UNL     1       5.411   5.463  14.774  0.00  0.00    +0.000 OA
ATOM     33  H   UNL     1       4.686   5.755  14.189  0.00  0.00    +0.000 HD
ENDBRANCH  30  32
ENDBRANCH  29  30
ENDBRANCH  21  23
ENDBRANCH  18  19
ENDBRANCH   1  18
TORSDOF 9
ENDMDL
MODEL 7
REMARK VINA RESULT:      -7.6      1.554      2.331
REMARK  Name = 
REMARK  9 active torsions:
REMARK  status: ('A' for Active; 'I' for Inactive)
REMARK    1  A    between atoms: C_2  and  C_3
REMARK    2  A    between atoms: C_3  and  O_4
REMARK    3  A    between atoms: O_4  and  C_5
REMARK    4  A    between atoms: C_5  and  C_6
REMARK    5  A    between atoms: N_8  and  C_9
REMARK    6  A    between atoms: C_15  and  C_16
REMARK    7  A    between atoms: C_16  and  O_18
REMARK    8  A    between atoms: N_19  and  C_20
REMARK    9  A    between atoms: C_24  and  C_25
REMARK                            x       y       z     vdW  Elec       q    Type
REMARK                         _______ _______ _______ _____ _____    ______ ____
ROOT
ATOM      1  O   UNL     1       2.243   2.320  21.431  0.00  0.00    +0.000 OA
ENDROOT
BRANCH   1   2
ATOM      2  C   UNL     1       1.727   3.607  21.758  0.00  0.00    +0.000 C 
BRANCH   2   4
ATOM      3  O   UNL     1       0.978   4.204  19.556  0.00  0.00    +0.000 OA
ATOM      4  C   UNL     1       1.590   4.553  20.558  0.00  0.00    +0.000 C 
ATOM      5  N   UNL     1       2.214   5.775  20.761  0.00  0.00    +0.000 N 
ATOM      6  H   UNL     1       2.820   5.854  21.572  0.00  0.00    +0.000 HD
BRANCH   5   7
ATOM      7  C   UNL     1       2.137   6.897  19.909  0.00  0.00    +0.000 A 
ATOM      8  C   UNL     1       2.747   6.939  18.655  0.00  0.00    +0.000 A 
ATOM      9  C   UNL     1       2.620   8.065  17.841  0.00  0.00    +0.000 A 
ATOM     10  C   UNL     1       1.901   9.173  18.285  0.00  0.00    +0.000 A 
ATOM     11  C   UNL     1       1.296   9.162  19.548  0.00  0.00    +0.000 A 
ATOM     12  C   UNL     1       1.395   8.004  20.341  0.00  0.00    +0.000 A 
BRANCH  11  13
ATOM     13  C   UNL     1       0.611  10.351  20.057  0.00  0.00    +0.000 A 
ATOM     14  C   UNL     1       1.159  11.642  20.298  0.00  0.00    +0.000 A 
ATOM     15  C   UNL     1       0.125  12.367  20.827  0.00  0.00    +0.000 A 
ATOM     16  O   UNL     1      -0.981  11.591  20.889  0.00  0.00    +0.000 OA
ATOM     17  N   UNL     1      -0.685  10.330  20.411  0.00  0.00    +0.000 NA
ENDBRANCH  11  13
ENDBRANCH   5   7
ENDBRANCH   2   4
ENDBRANCH   1   2
BRANCH   1  18
ATOM     18  C   UNL     1       3.664   2.300  21.540  0.00  0.00    +0.000 C 
BRANCH  18  19
ATOM     19  C   UNL     1       4.394   2.334  20.202  0.00  0.00    +0.000 C 
ATOM     20  O   UNL     1       4.963   1.321  19.800  0.00  0.00    +0.000 OA
ATOM     21  N   UNL     1       4.357   3.563  19.561  0.00  0.00    +0.000 N 
ATOM     22  H   UNL     1       4.046   4.346  20.144  0.00  0.00    +0.000 HD
BRANCH  21  23
ATOM     23  C   UNL     1       4.959   3.860  18.314  0.00  0.00    +0.000 A 
ATOM     24  C   UNL     1       6.270   4.349  18.253  0.00  0.00    +0.000 A 
ATOM     25  C   UNL     1       6.857   4.727  17.042  0.00  0.00    +0.000 A 
ATOM     26  C   UNL     1       6.135   4.607  15.867  0.00  0.00    +0.000 A 
ATOM     27 CL   UNL     1       6.842   5.111  14.382  0.00  0.00    +0.000 Cl
ATOM     28  C   UNL     1       4.845   4.084  15.879  0.00  0.00    +0.000 A 
ATOM     29  C   UNL     1       4.262   3.674  17.096  0.00  0.00    +0.000 A 
BRANCH  29  30
ATOM     30  C   UNL     1       2.885   3.118  17.076  0.00  0.00    +0.000 C 
ATOM     31  O   UNL     1       2.642   1.937  17.253  0.00  0.00    +0.000 OA
BRANCH  30  32
ATOM     32  O   UNL     1       1.928   4.027  16.784  0.00  0.00    +0.000 OA
ATOM     33  H   UNL     1       2.203   4.965  16.805  0.00  0.00    +0.000 HD
ENDBRANCH  30  32
ENDBRANCH  29  30
ENDBRANCH  21  23
ENDBRANCH  18  19
ENDBRANCH   1  18
TORSDOF 9
ENDMDL
MODEL 8
REMARK VINA RESULT:      -7.6      3.039      6.347
REMARK  Name = 
REMARK  9 active torsions:
REMARK  status: ('A' for Active; 'I' for Inactive)
REMARK    1  A    between atoms: C_2  and  C_3
REMARK    2  A    between atoms: C_3  and  O_4
REMARK    3  A    between atoms: O_4  and  C_5
REMARK    4  A    between atoms: C_5  and  C_6
REMARK    5  A    between atoms: N_8  and  C_9
REMARK    6  A    between atoms: C_15  and  C_16
REMARK    7  A    between atoms: C_16  and  O_18
REMARK    8  A    between atoms: N_19  and  C_20
REMARK    9  A    between atoms: C_24  and  C_25
REMARK                            x       y       z     vdW  Elec       q    Type
REMARK                         _______ _______ _______ _____ _____    ______ ____
ROOT
ATOM      1  O   UNL     1       3.378   3.010  21.201  0.00  0.00    +0.000 OA
ENDROOT
BRANCH   1   2
ATOM      2  C   UNL     1       4.129   2.173  20.325  0.00  0.00    +0.000 C 
BRANCH   2   4
ATOM      3  O   UNL     1       3.885   2.659  17.986  0.00  0.00    +0.000 OA
ATOM      4  C   UNL     1       4.536   2.845  19.008  0.00  0.00    +0.000 C 
ATOM      5  N   UNL     1       5.666   3.640  19.133  0.00  0.00    +0.000 N 
ATOM      6  H   UNL     1       6.189   3.563  20.001  0.00  0.00    +0.000 HD
BRANCH   5   7
ATOM      7  C   UNL     1       6.191   4.496  18.143  0.00  0.00    +0.000 A 
ATOM      8  C   UNL     1       6.203   4.168  16.787  0.00  0.00    +0.000 A 
ATOM      9  C   UNL     1       6.714   5.061  15.844  0.00  0.00    +0.000 A 
ATOM     10  C   UNL     1       7.243   6.284  16.253  0.00  0.00    +0.000 A 
ATOM     11  C   UNL     1       7.259   6.628  17.611  0.00  0.00    +0.000 A 
ATOM     12  C   UNL     1       6.701   5.736  18.546  0.00  0.00    +0.000 A 
BRANCH  11  13
ATOM     13  C   UNL     1       7.888   7.872  18.057  0.00  0.00    +0.000 A 
ATOM     14  C   UNL     1       7.768   9.169  17.484  0.00  0.00    +0.000 A 
ATOM     15  C   UNL     1       8.599   9.959  18.233  0.00  0.00    +0.000 A 
ATOM     16  O   UNL     1       9.170   9.213  19.205  0.00  0.00    +0.000 OA
ATOM     17  N   UNL     1       8.732   7.908  19.101  0.00  0.00    +0.000 NA
ENDBRANCH  11  13
ENDBRANCH   5   7
ENDBRANCH   2   4
ENDBRANCH   1   2
BRANCH   1  18
ATOM     18  C   UNL     1       1.991   2.965  20.880  0.00  0.00    +0.000 C 
BRANCH  18  19
ATOM     19  C   UNL     1       1.391   4.318  20.510  0.00  0.00    +0.000 C 
ATOM     20  O   UNL     1       0.191   4.396  20.254  0.00  0.00    +0.000 OA
ATOM     21  N   UNL     1       2.306   5.359  20.476  0.00  0.00    +0.000 N 
ATOM     22  H   UNL     1       3.289   5.071  20.482  0.00  0.00    +0.000 HD
BRANCH  21  23
ATOM     23  C   UNL     1       2.009   6.707  20.155  0.00  0.00    +0.000 A 
ATOM     24  C   UNL     1       1.421   7.553  21.105  0.00  0.00    +0.000 A 
ATOM     25  C   UNL     1       1.043   8.860  20.788  0.00  0.00    +0.000 A 
ATOM     26  C   UNL     1       1.263   9.344  19.510  0.00  0.00    +0.000 A 
ATOM     27 CL   UNL     1       0.760  10.939  19.108  0.00  0.00    +0.000 Cl
ATOM     28  C   UNL     1       1.886   8.550  18.550  0.00  0.00    +0.000 A 
ATOM     29  C   UNL     1       2.295   7.240  18.876  0.00  0.00    +0.000 A 
BRANCH  29  30
ATOM     30  C   UNL     1       2.957   6.419  17.831  0.00  0.00    +0.000 C 
ATOM     31  O   UNL     1       3.855   6.842  17.123  0.00  0.00    +0.000 OA
BRANCH  30  32
ATOM     32  O   UNL     1       2.439   5.179  17.693  0.00  0.00    +0.000 OA
ATOM     33  H   UNL     1       2.070   4.773  18.502  0.00  0.00    +0.000 HD
ENDBRANCH  30  32
ENDBRANCH  29  30
ENDBRANCH  21  23
ENDBRANCH  18  19
ENDBRANCH   1  18
TORSDOF 9
ENDMDL
MODEL 9
REMARK VINA RESULT:      -7.6      5.908      7.480
REMARK  Name = 
REMARK  9 active torsions:
REMARK  status: ('A' for Active; 'I' for Inactive)
REMARK    1  A    between atoms: C_2  and  C_3
REMARK    2  A    between atoms: C_3  and  O_4
REMARK    3  A    between atoms: O_4  and  C_5
REMARK    4  A    between atoms: C_5  and  C_6
REMARK    5  A    between atoms: N_8  and  C_9
REMARK    6  A    between atoms: C_15  and  C_16
REMARK    7  A    between atoms: C_16  and  O_18
REMARK    8  A    between atoms: N_19  and  C_20
REMARK    9  A    between atoms: C_24  and  C_25
REMARK                            x       y       z     vdW  Elec       q    Type
REMARK                         _______ _______ _______ _____ _____    ______ ____
ROOT
ATOM      1  O   UNL     1       7.292   7.870  17.441  0.00  0.00    +0.000 OA
ENDROOT
BRANCH   1   2
ATOM      2  C   UNL     1       8.365   8.132  18.342  0.00  0.00    +0.000 C 
BRANCH   2   4
ATOM      3  O   UNL     1       8.301  10.446  17.700  0.00  0.00    +0.000 OA
ATOM      4  C   UNL     1       8.685   9.622  18.522  0.00  0.00    +0.000 C 
ATOM      5  N   UNL     1       9.418   9.881  19.670  0.00  0.00    +0.000 N 
ATOM      6  H   UNL     1       9.802   9.080  20.162  0.00  0.00    +0.000 HD
BRANCH   5   7
ATOM      7  C   UNL     1       9.733  11.157  20.182  0.00  0.00    +0.000 A 
ATOM      8  C   UNL     1      10.749  11.955  19.656  0.00  0.00    +0.000 A 
ATOM      9  C   UNL     1      11.005  13.220  20.184  0.00  0.00    +0.000 A 
ATOM     10  C   UNL     1      10.262  13.692  21.264  0.00  0.00    +0.000 A 
ATOM     11  C   UNL     1       9.249  12.902  21.822  0.00  0.00    +0.000 A 
ATOM     12  C   UNL     1       8.972  11.646  21.252  0.00  0.00    +0.000 A 
BRANCH  11  13
ATOM     13  C   UNL     1       8.520  13.353  23.009  0.00  0.00    +0.000 A 
ATOM     14  C   UNL     1       8.731  14.538  23.769  0.00  0.00    +0.000 A 
ATOM     15  C   UNL     1       7.837  14.453  24.802  0.00  0.00    +0.000 A 
ATOM     16  O   UNL     1       7.115  13.316  24.678  0.00  0.00    +0.000 OA
ATOM     17  N   UNL     1       7.538  12.623  23.561  0.00  0.00    +0.000 NA
ENDBRANCH  11  13
ENDBRANCH   5   7
ENDBRANCH   2   4
ENDBRANCH   1   2
BRANCH   1  18
ATOM     18  C   UNL     1       7.316   6.513  17.005  0.00  0.00    +0.000 C 
BRANCH  18  19
ATOM     19  C   UNL     1       6.329   5.607  17.733  0.00  0.00    +0.000 C 
ATOM     20  O   UNL     1       6.674   5.053  18.775  0.00  0.00    +0.000 OA
ATOM     21  N   UNL     1       5.100   5.478  17.104  0.00  0.00    +0.000 N 
ATOM     22  H   UNL     1       5.071   5.814  16.138  0.00  0.00    +0.000 HD
BRANCH  21  23
ATOM     23  C   UNL     1       4.015   4.693  17.569  0.00  0.00    +0.000 A 
ATOM     24  C   UNL     1       4.000   3.306  17.369  0.00  0.00    +0.000 A 
ATOM     25  C   UNL     1       2.907   2.523  17.744  0.00  0.00    +0.000 A 
ATOM     26  C   UNL     1       1.810   3.122  18.339  0.00  0.00    +0.000 A 
ATOM     27 CL   UNL     1       0.445   2.163  18.763  0.00  0.00    +0.000 Cl
ATOM     28  C   UNL     1       1.804   4.490  18.597  0.00  0.00    +0.000 A 
ATOM     29  C   UNL     1       2.919   5.279  18.246  0.00  0.00    +0.000 A 
BRANCH  29  30
ATOM     30  C   UNL     1       2.883   6.734  18.535  0.00  0.00    +0.000 C 
ATOM     31  O   UNL     1       2.529   7.191  19.608  0.00  0.00    +0.000 OA
BRANCH  30  32
ATOM     32  O   UNL     1       3.220   7.513  17.483  0.00  0.00    +0.000 OA
ATOM     33  H   UNL     1       4.142   7.439  17.169  0.00  0.00    +0.000 HD
ENDBRANCH  30  32
ENDBRANCH  29  30
ENDBRANCH  21  23
ENDBRANCH  18  19
ENDBRANCH   1  18
TORSDOF 9
ENDMDL
