MODEL 1
REMARK VINA RESULT:      -7.1      0.000      0.000
REMARK  Name = 
REMARK  9 active torsions:
REMARK  status: ('A' for Active; 'I' for Inactive)
REMARK    1  A    between atoms: C_1  and  S_2
REMARK    2  A    between atoms: S_2  and  C_3
REMARK    3  A    between atoms: C_6  and  C_7
REMARK    4  A    between atoms: C_16  and  S_17
REMARK    5  A    between atoms: S_17  and  C_18
REMARK    6  A    between atoms: C_18  and  C_19
REMARK    7  A    between atoms: C_19  and  N_20
REMARK    8  A    between atoms: N_20  and  C_21
REMARK    9  A    between atoms: N_20  and  C_22
REMARK                            x       y       z     vdW  Elec       q    Type
REMARK                         _______ _______ _______ _____ _____    ______ ____
ROOT
ATOM      1  C   UNL     1       4.165   3.949  17.619  0.00  0.00    +0.000 A 
ATOM      2  C   UNL     1       4.043   2.720  18.267  0.00  0.00    +0.000 A 
ATOM      3  C   UNL     1       3.072   2.701  19.277  0.00  0.00    +0.000 A 
ATOM      4  C   UNL     1       3.419   2.597  20.626  0.00  0.00    +0.000 A 
ATOM      5  C   UNL     1       2.430   2.834  21.608  0.00  0.00    +0.000 A 
ATOM      6  C   UNL     1       1.079   2.964  21.226  0.00  0.00    +0.000 A 
ATOM      7  C   UNL     1       0.785   3.157  19.880  0.00  0.00    +0.000 A 
ATOM      8  C   UNL     1       1.877   3.345  19.013  0.00  0.00    +0.000 A 
ATOM      9  N   UNL     1       2.073   4.600  18.587  0.00  0.00    +0.000 NA
ATOM     10  C   UNL     1       3.257   4.988  18.012  0.00  0.00    +0.000 A 
ENDROOT
BRANCH   1  14
ATOM     11  C   UNL     1       6.880   4.795  14.405  0.00  0.00    +0.000 A 
ATOM     12  C   UNL     1       5.595   4.319  14.144  0.00  0.00    +0.000 A 
ATOM     13  C   UNL     1       4.746   3.977  15.215  0.00  0.00    +0.000 A 
ATOM     14  C   UNL     1       5.179   4.125  16.544  0.00  0.00    +0.000 A 
ATOM     15  C   UNL     1       6.483   4.581  16.778  0.00  0.00    +0.000 A 
ATOM     16  C   UNL     1       7.335   4.882  15.720  0.00  0.00    +0.000 A 
BRANCH  11  18
ATOM     17  C   UNL     1       7.210   4.168  11.812  0.00  0.00    +0.000 C 
ATOM     18  S   UNL     1       7.978   5.276  13.062  0.00  0.00    +0.000 S 
ENDBRANCH  11  18
ENDBRANCH   1  14
BRANCH  10  19
ATOM     19  S   UNL     1       3.748   6.752  17.912  0.00  0.00    +0.000 S 
BRANCH  19  20
ATOM     20  C   UNL     1       2.151   7.793  17.891  0.00  0.00    +0.000 C 
BRANCH  20  21
ATOM     21  C   UNL     1       2.055   9.380  17.938  0.00  0.00    +0.000 C 
BRANCH  21  22
ATOM     22  N   UNL     1       1.113  10.000  18.921  0.00  0.00    +0.000 NA
ATOM     23  C   UNL     1      -0.244  10.197  18.393  0.00  0.00    +0.000 C 
ATOM     24  C   UNL     1       1.020   9.180  20.139  0.00  0.00    +0.000 C 
ENDBRANCH  21  22
ENDBRANCH  20  21
ENDBRANCH  19  20
ENDBRANCH  10  19
TORSDOF 6
ENDMDL
MODEL 2
REMARK VINA RESULT:      -7.1      2.290      6.657
REMARK  Name = 
REMARK  9 active torsions:
REMARK  status: ('A' for Active; 'I' for Inactive)
REMARK    1  A    between atoms: C_1  and  S_2
REMARK    2  A    between atoms: S_2  and  C_3
REMARK    3  A    between atoms: C_6  and  C_7
REMARK    4  A    between atoms: C_16  and  S_17
REMARK    5  A    between atoms: S_17  and  C_18
REMARK    6  A    between atoms: C_18  and  C_19
REMARK    7  A    between atoms: C_19  and  N_20
REMARK    8  A    between atoms: N_20  and  C_21
REMARK    9  A    between atoms: N_20  and  C_22
REMARK                            x       y       z     vdW  Elec       q    Type
REMARK                         _______ _______ _______ _____ _____    ______ ____
ROOT
ATOM      1  C   UNL     1       2.664   6.176  18.988  0.00  0.00    +0.000 A 
ATOM      2  C   UNL     1       1.797   5.133  19.309  0.00  0.00    +0.000 A 
ATOM      3  C   UNL     1       2.345   3.856  19.124  0.00  0.00    +0.000 A 
ATOM      4  C   UNL     1       1.892   3.002  18.116  0.00  0.00    +0.000 A 
ATOM      5  C   UNL     1       2.640   1.842  17.814  0.00  0.00    +0.000 A 
ATOM      6  C   UNL     1       3.701   1.451  18.657  0.00  0.00    +0.000 A 
ATOM      7  C   UNL     1       4.181   2.367  19.587  0.00  0.00    +0.000 A 
ATOM      8  C   UNL     1       3.657   3.672  19.522  0.00  0.00    +0.000 A 
ATOM      9  N   UNL     1       4.469   4.601  19.003  0.00  0.00    +0.000 NA
ATOM     10  C   UNL     1       3.995   5.819  18.585  0.00  0.00    +0.000 A 
ENDROOT
BRANCH   1  14
ATOM     11  C   UNL     1       1.009  10.133  19.110  0.00  0.00    +0.000 A 
ATOM     12  C   UNL     1       1.538   9.620  17.926  0.00  0.00    +0.000 A 
ATOM     13  C   UNL     1       2.144   8.348  17.926  0.00  0.00    +0.000 A 
ATOM     14  C   UNL     1       2.206   7.587  19.106  0.00  0.00    +0.000 A 
ATOM     15  C   UNL     1       1.691   8.136  20.286  0.00  0.00    +0.000 A 
ATOM     16  C   UNL     1       1.127   9.408  20.296  0.00  0.00    +0.000 A 
BRANCH  11  18
ATOM     17  C   UNL     1       0.533  12.064  20.919  0.00  0.00    +0.000 C 
ATOM     18  S   UNL     1       0.196  11.739  19.141  0.00  0.00    +0.000 S 
ENDBRANCH  11  18
ENDBRANCH   1  14
BRANCH  10  19
ATOM     19  S   UNL     1       4.937   6.873  17.417  0.00  0.00    +0.000 S 
BRANCH  19  20
ATOM     20  C   UNL     1       6.745   6.267  17.427  0.00  0.00    +0.000 C 
BRANCH  20  21
ATOM     21  C   UNL     1       7.246   4.779  17.168  0.00  0.00    +0.000 C 
BRANCH  21  22
ATOM     22  N   UNL     1       6.872   4.124  15.876  0.00  0.00    +0.000 NA
ATOM     23  C   UNL     1       5.490   3.627  15.846  0.00  0.00    +0.000 C 
ATOM     24  C   UNL     1       7.053   5.055  14.751  0.00  0.00    +0.000 C 
ENDBRANCH  21  22
ENDBRANCH  20  21
ENDBRANCH  19  20
ENDBRANCH  10  19
TORSDOF 6
ENDMDL
MODEL 3
REMARK VINA RESULT:      -7.0      2.449      7.020
REMARK  Name = 
REMARK  9 active torsions:
REMARK  status: ('A' for Active; 'I' for Inactive)
REMARK    1  A    between atoms: C_1  and  S_2
REMARK    2  A    between atoms: S_2  and  C_3
REMARK    3  A    between atoms: C_6  and  C_7
REMARK    4  A    between atoms: C_16  and  S_17
REMARK    5  A    between atoms: S_17  and  C_18
REMARK    6  A    between atoms: C_18  and  C_19
REMARK    7  A    between atoms: C_19  and  N_20
REMARK    8  A    between atoms: N_20  and  C_21
REMARK    9  A    between atoms: N_20  and  C_22
REMARK                            x       y       z     vdW  Elec       q    Type
REMARK                         _______ _______ _______ _____ _____    ______ ____
ROOT
ATOM      1  C   UNL     1       2.176   6.451  19.880  0.00  0.00    +0.000 A 
ATOM      2  C   UNL     1       1.526   5.349  20.433  0.00  0.00    +0.000 A 
ATOM      3  C   UNL     1       1.997   4.114  19.967  0.00  0.00    +0.000 A 
ATOM      4  C   UNL     1       1.218   3.293  19.149  0.00  0.00    +0.000 A 
ATOM      5  C   UNL     1       1.826   2.190  18.507  0.00  0.00    +0.000 A 
ATOM      6  C   UNL     1       3.139   1.811  18.857  0.00  0.00    +0.000 A 
ATOM      7  C   UNL     1       3.911   2.700  19.597  0.00  0.00    +0.000 A 
ATOM      8  C   UNL     1       3.366   3.977  19.826  0.00  0.00    +0.000 A 
ATOM      9  N   UNL     1       3.893   4.973  19.102  0.00  0.00    +0.000 NA
ATOM     10  C   UNL     1       3.262   6.186  18.981  0.00  0.00    +0.000 A 
ENDROOT
BRANCH   1  14
ATOM     11  C   UNL     1       0.602  10.333  20.810  0.00  0.00    +0.000 A 
ATOM     12  C   UNL     1       0.896   9.983  19.492  0.00  0.00    +0.000 A 
ATOM     13  C   UNL     1       1.482   8.731  19.218  0.00  0.00    +0.000 A 
ATOM     14  C   UNL     1       1.758   7.828  20.259  0.00  0.00    +0.000 A 
ATOM     15  C   UNL     1       1.477   8.216  21.575  0.00  0.00    +0.000 A 
ATOM     16  C   UNL     1       0.934   9.467  21.851  0.00  0.00    +0.000 A 
BRANCH  11  18
ATOM     17  C   UNL     1      -1.517  11.743  19.944  0.00  0.00    +0.000 C 
ATOM     18  S   UNL     1      -0.179  11.909  21.195  0.00  0.00    +0.000 S 
ENDBRANCH  11  18
ENDBRANCH   1  14
BRANCH  10  19
ATOM     19  S   UNL     1       3.659   7.347  17.618  0.00  0.00    +0.000 S 
BRANCH  19  20
ATOM     20  C   UNL     1       5.055   6.563  16.583  0.00  0.00    +0.000 C 
BRANCH  20  21
ATOM     21  C   UNL     1       6.617   6.665  16.869  0.00  0.00    +0.000 C 
BRANCH  21  22
ATOM     22  N   UNL     1       7.459   5.456  16.615  0.00  0.00    +0.000 NA
ATOM     23  C   UNL     1       7.601   4.579  17.785  0.00  0.00    +0.000 C 
ATOM     24  C   UNL     1       6.907   4.660  15.507  0.00  0.00    +0.000 C 
ENDBRANCH  21  22
ENDBRANCH  20  21
ENDBRANCH  19  20
ENDBRANCH  10  19
TORSDOF 6
ENDMDL
MODEL 4
REMARK VINA RESULT:      -7.0      2.295      6.901
REMARK  Name = 
REMARK  9 active torsions:
REMARK  status: ('A' for Active; 'I' for Inactive)
REMARK    1  A    between atoms: C_1  and  S_2
REMARK    2  A    between atoms: S_2  and  C_3
REMARK    3  A    between atoms: C_6  and  C_7
REMARK    4  A    between atoms: C_16  and  S_17
REMARK    5  A    between atoms: S_17  and  C_18
REMARK    6  A    between atoms: C_18  and  C_19
REMARK    7  A    between atoms: C_19  and  N_20
REMARK    8  A    between atoms: N_20  and  C_21
REMARK    9  A    between atoms: N_20  and  C_22
REMARK                            x       y       z     vdW  Elec       q    Type
REMARK                         _______ _______ _______ _____ _____    ______ ____
ROOT
ATOM      1  C   UNL     1       2.431   6.200  19.485  0.00  0.00    +0.000 A 
ATOM      2  C   UNL     1       1.701   5.096  19.922  0.00  0.00    +0.000 A 
ATOM      3  C   UNL     1       2.233   3.863  19.523  0.00  0.00    +0.000 A 
ATOM      4  C   UNL     1       1.586   3.052  18.589  0.00  0.00    +0.000 A 
ATOM      5  C   UNL     1       2.281   1.952  18.037  0.00  0.00    +0.000 A 
ATOM      6  C   UNL     1       3.524   1.564  18.580  0.00  0.00    +0.000 A 
ATOM      7  C   UNL     1       4.177   2.443  19.438  0.00  0.00    +0.000 A 
ATOM      8  C   UNL     1       3.608   3.720  19.591  0.00  0.00    +0.000 A 
ATOM      9  N   UNL     1       4.242   4.720  18.965  0.00  0.00    +0.000 NA
ATOM     10  C   UNL     1       3.641   5.937  18.760  0.00  0.00    +0.000 A 
ENDROOT
BRANCH   1  14
ATOM     11  C   UNL     1       0.735  10.072  20.222  0.00  0.00    +0.000 A 
ATOM     12  C   UNL     1       1.150   9.710  18.940  0.00  0.00    +0.000 A 
ATOM     13  C   UNL     1       1.772   8.463  18.735  0.00  0.00    +0.000 A 
ATOM     14  C   UNL     1       1.965   7.576  19.808  0.00  0.00    +0.000 A 
ATOM     15  C   UNL     1       1.563   7.975  21.089  0.00  0.00    +0.000 A 
ATOM     16  C   UNL     1       0.983   9.222  21.299  0.00  0.00    +0.000 A 
BRANCH  11  18
ATOM     17  C   UNL     1      -0.675  11.211  22.208  0.00  0.00    +0.000 C 
ATOM     18  S   UNL     1      -0.096  11.642  20.516  0.00  0.00    +0.000 S 
ENDBRANCH  11  18
ENDBRANCH   1  14
BRANCH  10  19
ATOM     19  S   UNL     1       4.245   7.107  17.484  0.00  0.00    +0.000 S 
BRANCH  19  20
ATOM     20  C   UNL     1       6.131   6.870  17.333  0.00  0.00    +0.000 C 
BRANCH  20  21
ATOM     21  C   UNL     1       6.879   5.712  16.539  0.00  0.00    +0.000 C 
BRANCH  21  22
ATOM     22  N   UNL     1       6.144   5.030  15.430  0.00  0.00    +0.000 NA
ATOM     23  C   UNL     1       6.960   4.811  14.228  0.00  0.00    +0.000 C 
ATOM     24  C   UNL     1       5.620   3.729  15.875  0.00  0.00    +0.000 C 
ENDBRANCH  21  22
ENDBRANCH  20  21
ENDBRANCH  19  20
ENDBRANCH  10  19
TORSDOF 6
ENDMDL
MODEL 5
REMARK VINA RESULT:      -6.9      2.259      6.601
REMARK  Name = 
REMARK  9 active torsions:
REMARK  status: ('A' for Active; 'I' for Inactive)
REMARK    1  A    between atoms: C_1  and  S_2
REMARK    2  A    between atoms: S_2  and  C_3
REMARK    3  A    between atoms: C_6  and  C_7
REMARK    4  A    between atoms: C_16  and  S_17
REMARK    5  A    between atoms: S_17  and  C_18
REMARK    6  A    between atoms: C_18  and  C_19
REMARK    7  A    between atoms: C_19  and  N_20
REMARK    8  A    between atoms: N_20  and  C_21
REMARK    9  A    between atoms: N_20  and  C_22
REMARK                            x       y       z     vdW  Elec       q    Type
REMARK                         _______ _______ _______ _____ _____    ______ ____
ROOT
ATOM      1  C   UNL     1       2.684   6.165  18.952  0.00  0.00    +0.000 A 
ATOM      2  C   UNL     1       1.830   5.128  19.324  0.00  0.00    +0.000 A 
ATOM      3  C   UNL     1       2.366   3.848  19.129  0.00  0.00    +0.000 A 
ATOM      4  C   UNL     1       1.867   2.985  18.152  0.00  0.00    +0.000 A 
ATOM      5  C   UNL     1       2.598   1.818  17.830  0.00  0.00    +0.000 A 
ATOM      6  C   UNL     1       3.695   1.434  18.630  0.00  0.00    +0.000 A 
ATOM      7  C   UNL     1       4.217   2.359  19.528  0.00  0.00    +0.000 A 
ATOM      8  C   UNL     1       3.693   3.664  19.471  0.00  0.00    +0.000 A 
ATOM      9  N   UNL     1       4.484   4.585  18.906  0.00  0.00    +0.000 NA
ATOM     10  C   UNL     1       3.995   5.801  18.496  0.00  0.00    +0.000 A 
ENDROOT
BRANCH   1  14
ATOM     11  C   UNL     1       1.056  10.133  19.084  0.00  0.00    +0.000 A 
ATOM     12  C   UNL     1       1.592   9.623  17.901  0.00  0.00    +0.000 A 
ATOM     13  C   UNL     1       2.188   8.347  17.899  0.00  0.00    +0.000 A 
ATOM     14  C   UNL     1       2.235   7.579  19.075  0.00  0.00    +0.000 A 
ATOM     15  C   UNL     1       1.713   8.125  20.254  0.00  0.00    +0.000 A 
ATOM     16  C   UNL     1       1.158   9.401  20.266  0.00  0.00    +0.000 A 
BRANCH  11  18
ATOM     17  C   UNL     1       1.778  12.699  18.733  0.00  0.00    +0.000 C 
ATOM     18  S   UNL     1       0.254  11.745  19.116  0.00  0.00    +0.000 S 
ENDBRANCH  11  18
ENDBRANCH   1  14
BRANCH  10  19
ATOM     19  S   UNL     1       4.887   6.838  17.276  0.00  0.00    +0.000 S 
BRANCH  19  20
ATOM     20  C   UNL     1       6.601   6.051  16.997  0.00  0.00    +0.000 C 
BRANCH  20  21
ATOM     21  C   UNL     1       6.962   4.916  15.942  0.00  0.00    +0.000 C 
BRANCH  21  22
ATOM     22  N   UNL     1       6.572   5.132  14.514  0.00  0.00    +0.000 NA
ATOM     23  C   UNL     1       7.715   5.195  13.594  0.00  0.00    +0.000 C 
ATOM     24  C   UNL     1       5.668   4.066  14.056  0.00  0.00    +0.000 C 
ENDBRANCH  21  22
ENDBRANCH  20  21
ENDBRANCH  19  20
ENDBRANCH  10  19
TORSDOF 6
ENDMDL
MODEL 6
REMARK VINA RESULT:      -6.9      2.772      7.151
REMARK  Name = 
REMARK  9 active torsions:
REMARK  status: ('A' for Active; 'I' for Inactive)
REMARK    1  A    between atoms: C_1  and  S_2
REMARK    2  A    between atoms: S_2  and  C_3
REMARK    3  A    between atoms: C_6  and  C_7
REMARK    4  A    between atoms: C_16  and  S_17
REMARK    5  A    between atoms: S_17  and  C_18
REMARK    6  A    between atoms: C_18  and  C_19
REMARK    7  A    between atoms: C_19  and  N_20
REMARK    8  A    between atoms: N_20  and  C_21
REMARK    9  A    between atoms: N_20  and  C_22
REMARK                            x       y       z     vdW  Elec       q    Type
REMARK                         _______ _______ _______ _____ _____    ______ ____
ROOT
ATOM      1  C   UNL     1       2.011   6.597  20.029  0.00  0.00    +0.000 A 
ATOM      2  C   UNL     1       1.386   5.502  20.624  0.00  0.00    +0.000 A 
ATOM      3  C   UNL     1       1.842   4.260  20.160  0.00  0.00    +0.000 A 
ATOM      4  C   UNL     1       1.034   3.425  19.386  0.00  0.00    +0.000 A 
ATOM      5  C   UNL     1       1.619   2.314  18.738  0.00  0.00    +0.000 A 
ATOM      6  C   UNL     1       2.946   1.942  19.042  0.00  0.00    +0.000 A 
ATOM      7  C   UNL     1       3.744   2.844  19.738  0.00  0.00    +0.000 A 
ATOM      8  C   UNL     1       3.205   4.124  19.967  0.00  0.00    +0.000 A 
ATOM      9  N   UNL     1       3.701   5.109  19.209  0.00  0.00    +0.000 NA
ATOM     10  C   UNL     1       3.062   6.319  19.093  0.00  0.00    +0.000 A 
ENDROOT
BRANCH   1  14
ATOM     11  C   UNL     1       0.469  10.494  20.948  0.00  0.00    +0.000 A 
ATOM     12  C   UNL     1       0.746  10.132  19.629  0.00  0.00    +0.000 A 
ATOM     13  C   UNL     1       1.322   8.875  19.358  0.00  0.00    +0.000 A 
ATOM     14  C   UNL     1       1.606   7.979  20.403  0.00  0.00    +0.000 A 
ATOM     15  C   UNL     1       1.342   8.378  21.719  0.00  0.00    +0.000 A 
ATOM     16  C   UNL     1       0.809   9.634  21.991  0.00  0.00    +0.000 A 
BRANCH  11  18
ATOM     17  C   UNL     1      -1.114  11.499  22.874  0.00  0.00    +0.000 C 
ATOM     18  S   UNL     1      -0.300  12.077  21.330  0.00  0.00    +0.000 S 
ENDBRANCH  11  18
ENDBRANCH   1  14
BRANCH  10  19
ATOM     19  S   UNL     1       3.403   7.460  17.698  0.00  0.00    +0.000 S 
BRANCH  19  20
ATOM     20  C   UNL     1       4.937   6.799  16.777  0.00  0.00    +0.000 C 
BRANCH  20  21
ATOM     21  C   UNL     1       6.431   6.774  17.323  0.00  0.00    +0.000 C 
BRANCH  21  22
ATOM     22  N   UNL     1       6.885   5.565  18.077  0.00  0.00    +0.000 NA
ATOM     23  C   UNL     1       7.463   4.520  17.221  0.00  0.00    +0.000 C 
ATOM     24  C   UNL     1       7.882   5.931  19.095  0.00  0.00    +0.000 C 
ENDBRANCH  21  22
ENDBRANCH  20  21
ENDBRANCH  19  20
ENDBRANCH  10  19
TORSDOF 6
ENDMDL
MODEL 7
REMARK VINA RESULT:      -6.9      2.599      6.576
REMARK  Name = 
REMARK  9 active torsions:
REMARK  status: ('A' for Active; 'I' for Inactive)
REMARK    1  A    between atoms: C_1  and  S_2
REMARK    2  A    between atoms: S_2  and  C_3
REMARK    3  A    between atoms: C_6  and  C_7
REMARK    4  A    between atoms: C_16  and  S_17
REMARK    5  A    between atoms: S_17  and  C_18
REMARK    6  A    between atoms: C_18  and  C_19
REMARK    7  A    between atoms: C_19  and  N_20
REMARK    8  A    between atoms: N_20  and  C_21
REMARK    9  A    between atoms: N_20  and  C_22
REMARK                            x       y       z     vdW  Elec       q    Type
REMARK                         _______ _______ _______ _____ _____    ______ ____
ROOT
ATOM      1  C   UNL     1       2.401   6.221  19.458  0.00  0.00    +0.000 A 
ATOM      2  C   UNL     1       1.646   5.127  19.881  0.00  0.00    +0.000 A 
ATOM      3  C   UNL     1       2.178   3.886  19.504  0.00  0.00    +0.000 A 
ATOM      4  C   UNL     1       1.550   3.076  18.556  0.00  0.00    +0.000 A 
ATOM      5  C   UNL     1       2.250   1.966  18.032  0.00  0.00    +0.000 A 
ATOM      6  C   UNL     1       3.472   1.569  18.613  0.00  0.00    +0.000 A 
ATOM      7  C   UNL     1       4.109   2.446  19.484  0.00  0.00    +0.000 A 
ATOM      8  C   UNL     1       3.548   3.731  19.613  0.00  0.00    +0.000 A 
ATOM      9  N   UNL     1       4.211   4.720  19.001  0.00  0.00    +0.000 NA
ATOM     10  C   UNL     1       3.629   5.941  18.771  0.00  0.00    +0.000 A 
ENDROOT
BRANCH   1  14
ATOM     11  C   UNL     1       0.724  10.115  20.122  0.00  0.00    +0.000 A 
ATOM     12  C   UNL     1       1.177   9.742  18.856  0.00  0.00    +0.000 A 
ATOM     13  C   UNL     1       1.792   8.487  18.677  0.00  0.00    +0.000 A 
ATOM     14  C   UNL     1       1.940   7.603  19.760  0.00  0.00    +0.000 A 
ATOM     15  C   UNL     1       1.500   8.013  21.025  0.00  0.00    +0.000 A 
ATOM     16  C   UNL     1       0.927   9.267  21.210  0.00  0.00    +0.000 A 
BRANCH  11  18
ATOM     17  C   UNL     1       0.568  12.483  18.860  0.00  0.00    +0.000 C 
ATOM     18  S   UNL     1      -0.099  11.695  20.381  0.00  0.00    +0.000 S 
ENDBRANCH  11  18
ENDBRANCH   1  14
BRANCH  10  19
ATOM     19  S   UNL     1       4.282   7.098  17.506  0.00  0.00    +0.000 S 
BRANCH  19  20
ATOM     20  C   UNL     1       5.421   6.100  16.348  0.00  0.00    +0.000 C 
BRANCH  20  21
ATOM     21  C   UNL     1       6.819   5.444  16.730  0.00  0.00    +0.000 C 
BRANCH  21  22
ATOM     22  N   UNL     1       7.756   6.233  17.588  0.00  0.00    +0.000 NA
ATOM     23  C   UNL     1       7.611   7.687  17.437  0.00  0.00    +0.000 C 
ATOM     24  C   UNL     1       7.572   5.896  19.008  0.00  0.00    +0.000 C 
ENDBRANCH  21  22
ENDBRANCH  20  21
ENDBRANCH  19  20
ENDBRANCH  10  19
TORSDOF 6
ENDMDL
MODEL 8
REMARK VINA RESULT:      -6.8      2.291      6.475
REMARK  Name = 
REMARK  9 active torsions:
REMARK  status: ('A' for Active; 'I' for Inactive)
REMARK    1  A    between atoms: C_1  and  S_2
REMARK    2  A    between atoms: S_2  and  C_3
REMARK    3  A    between atoms: C_6  and  C_7
REMARK    4  A    between atoms: C_16  and  S_17
REMARK    5  A    between atoms: S_17  and  C_18
REMARK    6  A    between atoms: C_18  and  C_19
REMARK    7  A    between atoms: C_19  and  N_20
REMARK    8  A    between atoms: N_20  and  C_21
REMARK    9  A    between atoms: N_20  and  C_22
REMARK                            x       y       z     vdW  Elec       q    Type
REMARK                         _______ _______ _______ _____ _____    ______ ____
ROOT
ATOM      1  C   UNL     1       2.592   6.213  18.824  0.00  0.00    +0.000 A 
ATOM      2  C   UNL     1       1.761   5.144  19.159  0.00  0.00    +0.000 A 
ATOM      3  C   UNL     1       2.383   3.891  19.083  0.00  0.00    +0.000 A 
ATOM      4  C   UNL     1       2.035   2.957  18.105  0.00  0.00    +0.000 A 
ATOM      5  C   UNL     1       2.857   1.823  17.916  0.00  0.00    +0.000 A 
ATOM      6  C   UNL     1       3.885   1.540  18.839  0.00  0.00    +0.000 A 
ATOM      7  C   UNL     1       4.262   2.533  19.738  0.00  0.00    +0.000 A 
ATOM      8  C   UNL     1       3.677   3.801  19.564  0.00  0.00    +0.000 A 
ATOM      9  N   UNL     1       4.470   4.741  19.035  0.00  0.00    +0.000 NA
ATOM     10  C   UNL     1       3.960   5.906  18.519  0.00  0.00    +0.000 A 
ENDROOT
BRANCH   1  14
ATOM     11  C   UNL     1       1.367  10.317  19.086  0.00  0.00    +0.000 A 
ATOM     12  C   UNL     1       1.232   9.463  20.181  0.00  0.00    +0.000 A 
ATOM     13  C   UNL     1       1.571   8.102  20.050  0.00  0.00    +0.000 A 
ATOM     14  C   UNL     1       2.056   7.601  18.830  0.00  0.00    +0.000 A 
ATOM     15  C   UNL     1       2.157   8.474  17.739  0.00  0.00    +0.000 A 
ATOM     16  C   UNL     1       1.786   9.810  17.857  0.00  0.00    +0.000 A 
BRANCH  11  18
ATOM     17  C   UNL     1       2.432  12.641  18.255  0.00  0.00    +0.000 C 
ATOM     18  S   UNL     1       0.978  12.070  19.226  0.00  0.00    +0.000 S 
ENDBRANCH  11  18
ENDBRANCH   1  14
BRANCH  10  19
ATOM     19  S   UNL     1       4.915   6.940  17.343  0.00  0.00    +0.000 S 
BRANCH  19  20
ATOM     20  C   UNL     1       6.718   6.322  17.368  0.00  0.00    +0.000 C 
BRANCH  20  21
ATOM     21  C   UNL     1       7.207   4.821  17.166  0.00  0.00    +0.000 C 
BRANCH  21  22
ATOM     22  N   UNL     1       6.856   4.133  15.885  0.00  0.00    +0.000 NA
ATOM     23  C   UNL     1       5.478   3.627  15.847  0.00  0.00    +0.000 C 
ATOM     24  C   UNL     1       7.049   5.035  14.740  0.00  0.00    +0.000 C 
ENDBRANCH  21  22
ENDBRANCH  20  21
ENDBRANCH  19  20
ENDBRANCH  10  19
TORSDOF 6
ENDMDL
MODEL 9
REMARK VINA RESULT:      -6.8      2.737      7.338
REMARK  Name = 
REMARK  9 active torsions:
REMARK  status: ('A' for Active; 'I' for Inactive)
REMARK    1  A    between atoms: C_1  and  S_2
REMARK    2  A    between atoms: S_2  and  C_3
REMARK    3  A    between atoms: C_6  and  C_7
REMARK    4  A    between atoms: C_16  and  S_17
REMARK    5  A    between atoms: S_17  and  C_18
REMARK    6  A    between atoms: C_18  and  C_19
REMARK    7  A    between atoms: C_19  and  N_20
REMARK    8  A    between atoms: N_20  and  C_21
REMARK    9  A    between atoms: N_20  and  C_22
REMARK                            x       y       z     vdW  Elec       q    Type
REMARK                         _______ _______ _______ _____ _____    ______ ____
ROOT
ATOM      1  C   UNL     1       3.084   7.236  18.074  0.00  0.00    +0.000 A 
ATOM      2  C   UNL     1       4.104   7.692  17.240  0.00  0.00    +0.000 A 
ATOM      3  C   UNL     1       5.081   6.729  16.954  0.00  0.00    +0.000 A 
ATOM      4  C   UNL     1       6.382   6.833  17.451  0.00  0.00    +0.000 A 
ATOM      5  C   UNL     1       7.248   5.721  17.344  0.00  0.00    +0.000 A 
ATOM      6  C   UNL     1       6.869   4.609  16.564  0.00  0.00    +0.000 A 
ATOM      7  C   UNL     1       5.540   4.500  16.166  0.00  0.00    +0.000 A 
ATOM      8  C   UNL     1       4.640   5.444  16.692  0.00  0.00    +0.000 A 
ATOM      9  N   UNL     1       3.820   4.996  17.651  0.00  0.00    +0.000 NA
ATOM     10  C   UNL     1       3.127   5.857  18.466  0.00  0.00    +0.000 A 
ENDROOT
BRANCH   1  14
ATOM     11  C   UNL     1       0.233  10.143  19.430  0.00  0.00    +0.000 A 
ATOM     12  C   UNL     1       0.889   9.313  20.339  0.00  0.00    +0.000 A 
ATOM     13  C   UNL     1       1.765   8.315  19.866  0.00  0.00    +0.000 A 
ATOM     14  C   UNL     1       1.993   8.160  18.488  0.00  0.00    +0.000 A 
ATOM     15  C   UNL     1       1.302   8.990  17.596  0.00  0.00    +0.000 A 
ATOM     16  C   UNL     1       0.408   9.950  18.060  0.00  0.00    +0.000 A 
BRANCH  11  18
ATOM     17  C   UNL     1      -1.318  12.033  18.313  0.00  0.00    +0.000 C 
ATOM     18  S   UNL     1      -0.865  11.452  19.998  0.00  0.00    +0.000 S 
ENDBRANCH  11  18
ENDBRANCH   1  14
BRANCH  10  19
ATOM     19  S   UNL     1       2.440   5.315  20.078  0.00  0.00    +0.000 S 
BRANCH  19  20
ATOM     20  C   UNL     1       1.322   3.807  19.748  0.00  0.00    +0.000 C 
BRANCH  20  21
ATOM     21  C   UNL     1       1.676   2.284  20.041  0.00  0.00    +0.000 C 
BRANCH  21  22
ATOM     22  N   UNL     1       2.787   1.657  19.260  0.00  0.00    +0.000 NA
ATOM     23  C   UNL     1       2.713   1.918  17.816  0.00  0.00    +0.000 C 
ATOM     24  C   UNL     1       4.094   2.125  19.748  0.00  0.00    +0.000 C 
ENDBRANCH  21  22
ENDBRANCH  20  21
ENDBRANCH  19  20
ENDBRANCH  10  19
TORSDOF 6
ENDMDL
