MODEL 1
REMARK VINA RESULT:      -8.4      0.000      0.000
REMARK  Name = 
REMARK  8 active torsions:
REMARK  status: ('A' for Active; 'I' for Inactive)
REMARK    1  A    between atoms: C_1  and  C_2
REMARK    2  A    between atoms: C_2  and  O_3
REMARK    3  A    between atoms: O_3  and  C_4
REMARK    4  A    between atoms: C_7  and  N_8
REMARK    5  A    between atoms: C_9  and  S_10
REMARK    6  A    between atoms: S_10  and  C_11
REMARK    7  A    between atoms: C_11  and  C_12
REMARK    8  A    between atoms: C_12  and  C_14
REMARK                            x       y       z     vdW  Elec       q    Type
REMARK                         _______ _______ _______ _____ _____    ______ ____
ROOT
ATOM      1  N   UNL     1       5.759   5.580  17.579  0.00  0.00    +0.000 N 
ATOM      2  C   UNL     1       6.555   5.037  18.583  0.00  0.00    +0.000 A 
ATOM      3  N   UNL     1       6.095   4.336  19.590  0.00  0.00    +0.000 NA
ATOM      4  C   UNL     1       4.679   4.481  19.679  0.00  0.00    +0.000 A 
ATOM      5  C   UNL     1       4.159   5.697  19.292  0.00  0.00    +0.000 A 
ATOM      6  N   UNL     1       2.898   5.686  19.833  0.00  0.00    +0.000 N 
ATOM      7  C   UNL     1       2.413   4.436  19.497  0.00  0.00    +0.000 A 
ATOM      8  C   UNL     1       1.103   4.044  19.224  0.00  0.00    +0.000 A 
ATOM      9  C   UNL     1       0.943   2.794  18.641  0.00  0.00    +0.000 A 
ATOM     10  C   UNL     1       2.041   1.950  18.456  0.00  0.00    +0.000 A 
ATOM     11  C   UNL     1       3.345   2.319  18.862  0.00  0.00    +0.000 A 
ATOM     12  C   UNL     1       3.557   3.617  19.374  0.00  0.00    +0.000 A 
ATOM     13  C   UNL     1       4.525   6.127  17.940  0.00  0.00    +0.000 A 
ATOM     14  O   UNL     1       3.761   6.758  17.215  0.00  0.00    +0.000 OA
ATOM     15  H   UNL     1       2.659   6.114  20.716  0.00  0.00    +0.000 HD
ENDROOT
BRANCH   1  19
ATOM     16  C   UNL     1       6.061   3.984  13.640  0.00  0.00    +0.000 A 
ATOM     17  C   UNL     1       6.965   4.960  14.070  0.00  0.00    +0.000 A 
ATOM     18  C   UNL     1       6.895   5.474  15.372  0.00  0.00    +0.000 A 
ATOM     19  C   UNL     1       5.922   5.017  16.259  0.00  0.00    +0.000 A 
ATOM     20  C   UNL     1       5.022   4.024  15.808  0.00  0.00    +0.000 A 
ATOM     21  C   UNL     1       5.082   3.520  14.509  0.00  0.00    +0.000 A 
BRANCH  16  22
ATOM     22  O   UNL     1       6.217   3.575  12.347  0.00  0.00    +0.000 OA
BRANCH  22  24
ATOM     23  C   UNL     1       4.180   3.259  11.189  0.00  0.00    +0.000 C 
ATOM     24  C   UNL     1       5.325   2.558  11.890  0.00  0.00    +0.000 C 
ENDBRANCH  22  24
ENDBRANCH  16  22
ENDBRANCH   1  19
BRANCH   2  25
ATOM     25  S   UNL     1       8.183   5.670  18.394  0.00  0.00    +0.000 S 
BRANCH  25  26
ATOM     26  C   UNL     1       8.250   7.300  19.115  0.00  0.00    +0.000 C 
BRANCH  26  27
ATOM     27  C   UNL     1       8.127   8.401  18.083  0.00  0.00    +0.000 C 
ATOM     28  O   UNL     1       7.663   8.236  16.956  0.00  0.00    +0.000 OA
BRANCH  27  29
ATOM     29  C   UNL     1       8.644   9.756  18.445  0.00  0.00    +0.000 A 
ATOM     30  C   UNL     1       8.366  10.808  17.563  0.00  0.00    +0.000 A 
ATOM     31  C   UNL     1       8.840  12.091  17.826  0.00  0.00    +0.000 A 
ATOM     32  C   UNL     1       9.586  12.340  18.975  0.00  0.00    +0.000 A 
ATOM     33  C   UNL     1       9.848  11.304  19.871  0.00  0.00    +0.000 A 
ATOM     34  C   UNL     1       9.379  10.012  19.610  0.00  0.00    +0.000 A 
ENDBRANCH  27  29
ENDBRANCH  26  27
ENDBRANCH  25  26
ENDBRANCH   2  25
TORSDOF 7
ENDMDL
MODEL 2
REMARK VINA RESULT:      -8.3      0.490      1.161
REMARK  Name = 
REMARK  8 active torsions:
REMARK  status: ('A' for Active; 'I' for Inactive)
REMARK    1  A    between atoms: C_1  and  C_2
REMARK    2  A    between atoms: C_2  and  O_3
REMARK    3  A    between atoms: O_3  and  C_4
REMARK    4  A    between atoms: C_7  and  N_8
REMARK    5  A    between atoms: C_9  and  S_10
REMARK    6  A    between atoms: S_10  and  C_11
REMARK    7  A    between atoms: C_11  and  C_12
REMARK    8  A    between atoms: C_12  and  C_14
REMARK                            x       y       z     vdW  Elec       q    Type
REMARK                         _______ _______ _______ _____ _____    ______ ____
ROOT
ATOM      1  N   UNL     1       5.518   5.532  17.774  0.00  0.00    +0.000 N 
ATOM      2  C   UNL     1       6.374   4.915  18.681  0.00  0.00    +0.000 A 
ATOM      3  N   UNL     1       5.976   4.148  19.665  0.00  0.00    +0.000 NA
ATOM      4  C   UNL     1       4.570   4.293  19.859  0.00  0.00    +0.000 A 
ATOM      5  C   UNL     1       4.037   5.535  19.593  0.00  0.00    +0.000 A 
ATOM      6  N   UNL     1       2.815   5.492  20.216  0.00  0.00    +0.000 N 
ATOM      7  C   UNL     1       2.296   4.271  19.826  0.00  0.00    +0.000 A 
ATOM      8  C   UNL     1       0.968   3.906  19.614  0.00  0.00    +0.000 A 
ATOM      9  C   UNL     1       0.757   2.700  18.957  0.00  0.00    +0.000 A 
ATOM     10  C   UNL     1       1.832   1.866  18.641  0.00  0.00    +0.000 A 
ATOM     11  C   UNL     1       3.164   2.200  18.984  0.00  0.00    +0.000 A 
ATOM     12  C   UNL     1       3.422   3.458  19.570  0.00  0.00    +0.000 A 
ATOM     13  C   UNL     1       4.316   6.058  18.254  0.00  0.00    +0.000 A 
ATOM     14  O   UNL     1       3.512   6.742  17.627  0.00  0.00    +0.000 OA
ATOM     15  H   UNL     1       2.639   5.857  21.141  0.00  0.00    +0.000 HD
ENDROOT
BRANCH   1  19
ATOM     16  C   UNL     1       5.892   4.251  13.727  0.00  0.00    +0.000 A 
ATOM     17  C   UNL     1       5.903   3.311  14.762  0.00  0.00    +0.000 A 
ATOM     18  C   UNL     1       5.753   3.715  16.096  0.00  0.00    +0.000 A 
ATOM     19  C   UNL     1       5.589   5.062  16.409  0.00  0.00    +0.000 A 
ATOM     20  C   UNL     1       5.572   5.997  15.349  0.00  0.00    +0.000 A 
ATOM     21  C   UNL     1       5.732   5.599  14.022  0.00  0.00    +0.000 A 
BRANCH  16  22
ATOM     22  O   UNL     1       6.065   3.739  12.474  0.00  0.00    +0.000 OA
BRANCH  22  24
ATOM     23  C   UNL     1       4.088   3.330  11.241  0.00  0.00    +0.000 C 
ATOM     24  C   UNL     1       5.173   2.693  12.086  0.00  0.00    +0.000 C 
ENDBRANCH  22  24
ENDBRANCH  16  22
ENDBRANCH   1  19
BRANCH   2  25
ATOM     25  S   UNL     1       7.992   5.553  18.429  0.00  0.00    +0.000 S 
BRANCH  25  26
ATOM     26  C   UNL     1       8.063   7.210  19.085  0.00  0.00    +0.000 C 
BRANCH  26  27
ATOM     27  C   UNL     1       8.015   8.269  18.003  0.00  0.00    +0.000 C 
ATOM     28  O   UNL     1       7.612   8.063  16.859  0.00  0.00    +0.000 OA
BRANCH  27  29
ATOM     29  C   UNL     1       8.531   9.630  18.337  0.00  0.00    +0.000 A 
ATOM     30  C   UNL     1       9.264   9.768  19.522  0.00  0.00    +0.000 A 
ATOM     31  C   UNL     1       9.753  11.015  19.907  0.00  0.00    +0.000 A 
ATOM     32  C   UNL     1       9.524  12.133  19.110  0.00  0.00    +0.000 A 
ATOM     33  C   UNL     1       8.815  12.002  17.916  0.00  0.00    +0.000 A 
ATOM     34  C   UNL     1       8.317  10.754  17.526  0.00  0.00    +0.000 A 
ENDBRANCH  27  29
ENDBRANCH  26  27
ENDBRANCH  25  26
ENDBRANCH   2  25
TORSDOF 7
ENDMDL
MODEL 3
REMARK VINA RESULT:      -8.3      3.290      6.911
REMARK  Name = 
REMARK  8 active torsions:
REMARK  status: ('A' for Active; 'I' for Inactive)
REMARK    1  A    between atoms: C_1  and  C_2
REMARK    2  A    between atoms: C_2  and  O_3
REMARK    3  A    between atoms: O_3  and  C_4
REMARK    4  A    between atoms: C_7  and  N_8
REMARK    5  A    between atoms: C_9  and  S_10
REMARK    6  A    between atoms: S_10  and  C_11
REMARK    7  A    between atoms: C_11  and  C_12
REMARK    8  A    between atoms: C_12  and  C_14
REMARK                            x       y       z     vdW  Elec       q    Type
REMARK                         _______ _______ _______ _____ _____    ______ ____
ROOT
ATOM      1  N   UNL     1       4.639   5.526  17.690  0.00  0.00    +0.000 N 
ATOM      2  C   UNL     1       4.520   4.693  16.582  0.00  0.00    +0.000 A 
ATOM      3  N   UNL     1       4.068   3.464  16.630  0.00  0.00    +0.000 NA
ATOM      4  C   UNL     1       4.022   3.013  17.982  0.00  0.00    +0.000 A 
ATOM      5  C   UNL     1       4.991   3.506  18.829  0.00  0.00    +0.000 A 
ATOM      6  N   UNL     1       4.946   2.642  19.894  0.00  0.00    +0.000 N 
ATOM      7  C   UNL     1       3.594   2.531  20.163  0.00  0.00    +0.000 A 
ATOM      8  C   UNL     1       2.954   2.324  21.383  0.00  0.00    +0.000 A 
ATOM      9  C   UNL     1       1.581   2.535  21.402  0.00  0.00    +0.000 A 
ATOM     10  C   UNL     1       0.890   2.824  20.223  0.00  0.00    +0.000 A 
ATOM     11  C   UNL     1       1.545   2.900  18.971  0.00  0.00    +0.000 A 
ATOM     12  C   UNL     1       2.952   2.781  18.931  0.00  0.00    +0.000 A 
ATOM     13  C   UNL     1       5.077   4.966  18.893  0.00  0.00    +0.000 A 
ATOM     14  O   UNL     1       5.360   5.570  19.923  0.00  0.00    +0.000 OA
ATOM     15  H   UNL     1       5.562   1.850  20.006  0.00  0.00    +0.000 HD
ENDROOT
BRANCH   1  19
ATOM     16  C   UNL     1       2.039   8.890  17.985  0.00  0.00    +0.000 A 
ATOM     17  C   UNL     1       3.322   9.042  17.451  0.00  0.00    +0.000 A 
ATOM     18  C   UNL     1       4.178   7.940  17.322  0.00  0.00    +0.000 A 
ATOM     19  C   UNL     1       3.760   6.673  17.723  0.00  0.00    +0.000 A 
ATOM     20  C   UNL     1       2.457   6.537  18.254  0.00  0.00    +0.000 A 
ATOM     21  C   UNL     1       1.608   7.635  18.394  0.00  0.00    +0.000 A 
BRANCH  16  22
ATOM     22  O   UNL     1       1.306  10.038  18.077  0.00  0.00    +0.000 OA
BRANCH  22  24
ATOM     23  C   UNL     1      -0.902  10.327  18.872  0.00  0.00    +0.000 C 
ATOM     24  C   UNL     1       0.554  10.217  19.277  0.00  0.00    +0.000 C 
ENDBRANCH  22  24
ENDBRANCH  16  22
ENDBRANCH   1  19
BRANCH   2  25
ATOM     25  S   UNL     1       5.308   5.475  15.221  0.00  0.00    +0.000 S 
BRANCH  25  26
ATOM     26  C   UNL     1       6.808   4.587  14.840  0.00  0.00    +0.000 C 
BRANCH  26  27
ATOM     27  C   UNL     1       7.172   4.660  13.371  0.00  0.00    +0.000 C 
ATOM     28  O   UNL     1       7.838   5.566  12.874  0.00  0.00    +0.000 OA
BRANCH  27  29
ATOM     29  C   UNL     1       6.651   3.588  12.471  0.00  0.00    +0.000 A 
ATOM     30  C   UNL     1       5.268   3.542  12.258  0.00  0.00    +0.000 A 
ATOM     31  C   UNL     1       4.712   2.552  11.450  0.00  0.00    +0.000 A 
ATOM     32  C   UNL     1       5.530   1.607  10.838  0.00  0.00    +0.000 A 
ATOM     33  C   UNL     1       6.911   1.658  11.025  0.00  0.00    +0.000 A 
ATOM     34  C   UNL     1       7.475   2.646  11.839  0.00  0.00    +0.000 A 
ENDBRANCH  27  29
ENDBRANCH  26  27
ENDBRANCH  25  26
ENDBRANCH   2  25
TORSDOF 7
ENDMDL
MODEL 4
REMARK VINA RESULT:      -8.1      0.823      1.068
REMARK  Name = 
REMARK  8 active torsions:
REMARK  status: ('A' for Active; 'I' for Inactive)
REMARK    1  A    between atoms: C_1  and  C_2
REMARK    2  A    between atoms: C_2  and  O_3
REMARK    3  A    between atoms: O_3  and  C_4
REMARK    4  A    between atoms: C_7  and  N_8
REMARK    5  A    between atoms: C_9  and  S_10
REMARK    6  A    between atoms: S_10  and  C_11
REMARK    7  A    between atoms: C_11  and  C_12
REMARK    8  A    between atoms: C_12  and  C_14
REMARK                            x       y       z     vdW  Elec       q    Type
REMARK                         _______ _______ _______ _____ _____    ______ ____
ROOT
ATOM      1  N   UNL     1       5.394   5.498  17.766  0.00  0.00    +0.000 N 
ATOM      2  C   UNL     1       6.287   4.876  18.633  0.00  0.00    +0.000 A 
ATOM      3  N   UNL     1       5.930   4.127  19.646  0.00  0.00    +0.000 NA
ATOM      4  C   UNL     1       4.539   4.299  19.914  0.00  0.00    +0.000 A 
ATOM      5  C   UNL     1       4.015   5.548  19.663  0.00  0.00    +0.000 A 
ATOM      6  N   UNL     1       2.827   5.534  20.351  0.00  0.00    +0.000 N 
ATOM      7  C   UNL     1       2.267   4.318  20.004  0.00  0.00    +0.000 A 
ATOM      8  C   UNL     1       0.923   3.975  19.870  0.00  0.00    +0.000 A 
ATOM      9  C   UNL     1       0.656   2.766  19.239  0.00  0.00    +0.000 A 
ATOM     10  C   UNL     1       1.698   1.909  18.875  0.00  0.00    +0.000 A 
ATOM     11  C   UNL     1       3.052   2.222  19.141  0.00  0.00    +0.000 A 
ATOM     12  C   UNL     1       3.363   3.482  19.698  0.00  0.00    +0.000 A 
ATOM     13  C   UNL     1       4.229   6.051  18.304  0.00  0.00    +0.000 A 
ATOM     14  O   UNL     1       3.404   6.742  17.713  0.00  0.00    +0.000 OA
ATOM     15  H   UNL     1       2.708   5.912  21.279  0.00  0.00    +0.000 HD
ENDROOT
BRANCH   1  19
ATOM     16  C   UNL     1       5.531   4.156  13.724  0.00  0.00    +0.000 A 
ATOM     17  C   UNL     1       5.509   3.227  14.769  0.00  0.00    +0.000 A 
ATOM     18  C   UNL     1       5.437   3.653  16.102  0.00  0.00    +0.000 A 
ATOM     19  C   UNL     1       5.382   5.012  16.405  0.00  0.00    +0.000 A 
ATOM     20  C   UNL     1       5.397   5.936  15.335  0.00  0.00    +0.000 A 
ATOM     21  C   UNL     1       5.481   5.514  14.008  0.00  0.00    +0.000 A 
BRANCH  16  22
ATOM     22  O   UNL     1       5.621   3.621  12.471  0.00  0.00    +0.000 OA
BRANCH  22  24
ATOM     23  C   UNL     1       6.954   2.067  11.287  0.00  0.00    +0.000 C 
ATOM     24  C   UNL     1       6.940   3.426  11.958  0.00  0.00    +0.000 C 
ENDBRANCH  22  24
ENDBRANCH  16  22
ENDBRANCH   1  19
BRANCH   2  25
ATOM     25  S   UNL     1       7.900   5.482  18.285  0.00  0.00    +0.000 S 
BRANCH  25  26
ATOM     26  C   UNL     1       8.067   7.107  19.000  0.00  0.00    +0.000 C 
BRANCH  26  27
ATOM     27  C   UNL     1       7.983   8.211  17.966  0.00  0.00    +0.000 C 
ATOM     28  O   UNL     1       7.536   8.054  16.830  0.00  0.00    +0.000 OA
BRANCH  27  29
ATOM     29  C   UNL     1       8.517   9.556  18.337  0.00  0.00    +0.000 A 
ATOM     30  C   UNL     1       8.169  10.636  17.518  0.00  0.00    +0.000 A 
ATOM     31  C   UNL     1       8.653  11.913  17.792  0.00  0.00    +0.000 A 
ATOM     32  C   UNL     1       9.481  12.127  18.891  0.00  0.00    +0.000 A 
ATOM     33  C   UNL     1       9.815  11.061  19.726  0.00  0.00    +0.000 A 
ATOM     34  C   UNL     1       9.336   9.776  19.454  0.00  0.00    +0.000 A 
ENDBRANCH  27  29
ENDBRANCH  26  27
ENDBRANCH  25  26
ENDBRANCH   2  25
TORSDOF 7
ENDMDL
MODEL 5
REMARK VINA RESULT:      -8.1      1.919      6.787
REMARK  Name = 
REMARK  8 active torsions:
REMARK  status: ('A' for Active; 'I' for Inactive)
REMARK    1  A    between atoms: C_1  and  C_2
REMARK    2  A    between atoms: C_2  and  O_3
REMARK    3  A    between atoms: O_3  and  C_4
REMARK    4  A    between atoms: C_7  and  N_8
REMARK    5  A    between atoms: C_9  and  S_10
REMARK    6  A    between atoms: S_10  and  C_11
REMARK    7  A    between atoms: C_11  and  C_12
REMARK    8  A    between atoms: C_12  and  C_14
REMARK                            x       y       z     vdW  Elec       q    Type
REMARK                         _______ _______ _______ _____ _____    ______ ____
ROOT
ATOM      1  N   UNL     1       5.684   4.327  17.682  0.00  0.00    +0.000 N 
ATOM      2  C   UNL     1       5.066   4.282  16.436  0.00  0.00    +0.000 A 
ATOM      3  N   UNL     1       3.781   4.446  16.244  0.00  0.00    +0.000 NA
ATOM      4  C   UNL     1       3.087   4.359  17.487  0.00  0.00    +0.000 A 
ATOM      5  C   UNL     1       3.617   3.506  18.430  0.00  0.00    +0.000 A 
ATOM      6  N   UNL     1       2.582   3.333  19.314  0.00  0.00    +0.000 N 
ATOM      7  C   UNL     1       2.122   4.618  19.530  0.00  0.00    +0.000 A 
ATOM      8  C   UNL     1       1.553   5.168  20.677  0.00  0.00    +0.000 A 
ATOM      9  C   UNL     1       1.443   6.553  20.707  0.00  0.00    +0.000 A 
ATOM     10  C   UNL     1       1.785   7.317  19.589  0.00  0.00    +0.000 A 
ATOM     11  C   UNL     1       2.239   6.724  18.387  0.00  0.00    +0.000 A 
ATOM     12  C   UNL     1       2.448   5.328  18.354  0.00  0.00    +0.000 A 
ATOM     13  C   UNL     1       5.022   3.748  18.767  0.00  0.00    +0.000 A 
ATOM     14  O   UNL     1       5.470   3.583  19.898  0.00  0.00    +0.000 OA
ATOM     15  H   UNL     1       1.942   2.552  19.287  0.00  0.00    +0.000 HD
ENDROOT
BRANCH   1  19
ATOM     16  C   UNL     1       8.166   7.710  18.429  0.00  0.00    +0.000 A 
ATOM     17  C   UNL     1       8.419   6.499  19.080  0.00  0.00    +0.000 A 
ATOM     18  C   UNL     1       7.628   5.370  18.824  0.00  0.00    +0.000 A 
ATOM     19  C   UNL     1       6.577   5.440  17.912  0.00  0.00    +0.000 A 
ATOM     20  C   UNL     1       6.341   6.670  17.257  0.00  0.00    +0.000 A 
ATOM     21  C   UNL     1       7.119   7.797  17.519  0.00  0.00    +0.000 A 
BRANCH  16  22
ATOM     22  O   UNL     1       8.991   8.741  18.774  0.00  0.00    +0.000 OA
BRANCH  22  24
ATOM     23  C   UNL     1       9.505  11.039  18.986  0.00  0.00    +0.000 C 
ATOM     24  C   UNL     1       8.657  10.025  18.247  0.00  0.00    +0.000 C 
ENDBRANCH  22  24
ENDBRANCH  16  22
ENDBRANCH   1  19
BRANCH   2  25
ATOM     25  S   UNL     1       6.246   3.720  15.261  0.00  0.00    +0.000 S 
BRANCH  25  26
ATOM     26  C   UNL     1       7.013   5.137  14.497  0.00  0.00    +0.000 C 
BRANCH  26  27
ATOM     27  C   UNL     1       7.337   4.909  13.035  0.00  0.00    +0.000 C 
ATOM     28  O   UNL     1       8.128   5.598  12.392  0.00  0.00    +0.000 OA
BRANCH  27  29
ATOM     29  C   UNL     1       6.618   3.808  12.326  0.00  0.00    +0.000 A 
ATOM     30  C   UNL     1       5.228   3.921  12.204  0.00  0.00    +0.000 A 
ATOM     31  C   UNL     1       4.492   2.918  11.577  0.00  0.00    +0.000 A 
ATOM     32  C   UNL     1       5.136   1.799  11.057  0.00  0.00    +0.000 A 
ATOM     33  C   UNL     1       6.522   1.688  11.152  0.00  0.00    +0.000 A 
ATOM     34  C   UNL     1       7.267   2.689  11.785  0.00  0.00    +0.000 A 
ENDBRANCH  27  29
ENDBRANCH  26  27
ENDBRANCH  25  26
ENDBRANCH   2  25
TORSDOF 7
ENDMDL
MODEL 6
REMARK VINA RESULT:      -7.9      1.901      6.946
REMARK  Name = 
REMARK  8 active torsions:
REMARK  status: ('A' for Active; 'I' for Inactive)
REMARK    1  A    between atoms: C_1  and  C_2
REMARK    2  A    between atoms: C_2  and  O_3
REMARK    3  A    between atoms: O_3  and  C_4
REMARK    4  A    between atoms: C_7  and  N_8
REMARK    5  A    between atoms: C_9  and  S_10
REMARK    6  A    between atoms: S_10  and  C_11
REMARK    7  A    between atoms: C_11  and  C_12
REMARK    8  A    between atoms: C_12  and  C_14
REMARK                            x       y       z     vdW  Elec       q    Type
REMARK                         _______ _______ _______ _____ _____    ______ ____
ROOT
ATOM      1  N   UNL     1       5.978   4.862  17.734  0.00  0.00    +0.000 N 
ATOM      2  C   UNL     1       5.322   4.565  16.544  0.00  0.00    +0.000 A 
ATOM      3  N   UNL     1       4.020   4.499  16.416  0.00  0.00    +0.000 NA
ATOM      4  C   UNL     1       3.405   4.459  17.703  0.00  0.00    +0.000 A 
ATOM      5  C   UNL     1       4.110   3.824  18.702  0.00  0.00    +0.000 A 
ATOM      6  N   UNL     1       3.157   3.601  19.665  0.00  0.00    +0.000 N 
ATOM      7  C   UNL     1       2.503   4.815  19.759  0.00  0.00    +0.000 A 
ATOM      8  C   UNL     1       1.902   5.407  20.869  0.00  0.00    +0.000 A 
ATOM      9  C   UNL     1       1.568   6.750  20.746  0.00  0.00    +0.000 A 
ATOM     10  C   UNL     1       1.730   7.414  19.527  0.00  0.00    +0.000 A 
ATOM     11  C   UNL     1       2.221   6.754  18.376  0.00  0.00    +0.000 A 
ATOM     12  C   UNL     1       2.654   5.416  18.490  0.00  0.00    +0.000 A 
ATOM     13  C   UNL     1       5.469   4.325  18.919  0.00  0.00    +0.000 A 
ATOM     14  O   UNL     1       5.988   4.376  20.031  0.00  0.00    +0.000 OA
ATOM     15  H   UNL     1       2.653   2.732  19.770  0.00  0.00    +0.000 HD
ENDROOT
BRANCH   1  19
ATOM     16  C   UNL     1       7.908   8.655  17.944  0.00  0.00    +0.000 A 
ATOM     17  C   UNL     1       8.456   7.554  18.608  0.00  0.00    +0.000 A 
ATOM     18  C   UNL     1       7.848   6.294  18.525  0.00  0.00    +0.000 A 
ATOM     19  C   UNL     1       6.686   6.121  17.776  0.00  0.00    +0.000 A 
ATOM     20  C   UNL     1       6.150   7.244  17.105  0.00  0.00    +0.000 A 
ATOM     21  C   UNL     1       6.748   8.501  17.196  0.00  0.00    +0.000 A 
BRANCH  16  22
ATOM     22  O   UNL     1       8.579   9.832  18.114  0.00  0.00    +0.000 OA
BRANCH  22  24
ATOM     23  C   UNL     1      10.033  11.302  19.262  0.00  0.00    +0.000 C 
ATOM     24  C   UNL     1       9.275   9.993  19.350  0.00  0.00    +0.000 C 
ENDBRANCH  22  24
ENDBRANCH  16  22
ENDBRANCH   1  19
BRANCH   2  25
ATOM     25  S   UNL     1       6.525   4.054  15.369  0.00  0.00    +0.000 S 
BRANCH  25  26
ATOM     26  C   UNL     1       6.746   5.358  14.172  0.00  0.00    +0.000 C 
BRANCH  26  27
ATOM     27  C   UNL     1       7.344   4.862  12.872  0.00  0.00    +0.000 C 
ATOM     28  O   UNL     1       8.286   5.407  12.299  0.00  0.00    +0.000 OA
BRANCH  27  29
ATOM     29  C   UNL     1       6.719   3.667  12.229  0.00  0.00    +0.000 A 
ATOM     30  C   UNL     1       7.578   2.686  11.719  0.00  0.00    +0.000 A 
ATOM     31  C   UNL     1       7.062   1.559  11.084  0.00  0.00    +0.000 A 
ATOM     32  C   UNL     1       5.685   1.394  10.960  0.00  0.00    +0.000 A 
ATOM     33  C   UNL     1       4.821   2.354  11.485  0.00  0.00    +0.000 A 
ATOM     34  C   UNL     1       5.332   3.491  12.120  0.00  0.00    +0.000 A 
ENDBRANCH  27  29
ENDBRANCH  26  27
ENDBRANCH  25  26
ENDBRANCH   2  25
TORSDOF 7
ENDMDL
MODEL 7
REMARK VINA RESULT:      -7.9      3.267      6.959
REMARK  Name = 
REMARK  8 active torsions:
REMARK  status: ('A' for Active; 'I' for Inactive)
REMARK    1  A    between atoms: C_1  and  C_2
REMARK    2  A    between atoms: C_2  and  O_3
REMARK    3  A    between atoms: O_3  and  C_4
REMARK    4  A    between atoms: C_7  and  N_8
REMARK    5  A    between atoms: C_9  and  S_10
REMARK    6  A    between atoms: S_10  and  C_11
REMARK    7  A    between atoms: C_11  and  C_12
REMARK    8  A    between atoms: C_12  and  C_14
REMARK                            x       y       z     vdW  Elec       q    Type
REMARK                         _______ _______ _______ _____ _____    ______ ____
ROOT
ATOM      1  N   UNL     1       4.641   5.469  17.783  0.00  0.00    +0.000 N 
ATOM      2  C   UNL     1       4.472   4.654  16.668  0.00  0.00    +0.000 A 
ATOM      3  N   UNL     1       3.995   3.434  16.712  0.00  0.00    +0.000 NA
ATOM      4  C   UNL     1       3.977   2.966  18.060  0.00  0.00    +0.000 A 
ATOM      5  C   UNL     1       4.980   3.426  18.885  0.00  0.00    +0.000 A 
ATOM      6  N   UNL     1       4.945   2.548  19.939  0.00  0.00    +0.000 N 
ATOM      7  C   UNL     1       3.600   2.463  20.245  0.00  0.00    +0.000 A 
ATOM      8  C   UNL     1       2.989   2.253  21.480  0.00  0.00    +0.000 A 
ATOM      9  C   UNL     1       1.622   2.493  21.540  0.00  0.00    +0.000 A 
ATOM     10  C   UNL     1       0.905   2.813  20.385  0.00  0.00    +0.000 A 
ATOM     11  C   UNL     1       1.527   2.892  19.116  0.00  0.00    +0.000 A 
ATOM     12  C   UNL     1       2.929   2.744  19.035  0.00  0.00    +0.000 A 
ATOM     13  C   UNL     1       5.099   4.883  18.966  0.00  0.00    +0.000 A 
ATOM     14  O   UNL     1       5.425   5.466  19.996  0.00  0.00    +0.000 OA
ATOM     15  H   UNL     1       5.547   1.742  20.023  0.00  0.00    +0.000 HD
ENDROOT
BRANCH   1  19
ATOM     16  C   UNL     1       2.145   8.923  17.804  0.00  0.00    +0.000 A 
ATOM     17  C   UNL     1       1.645   7.696  18.249  0.00  0.00    +0.000 A 
ATOM     18  C   UNL     1       2.462   6.557  18.274  0.00  0.00    +0.000 A 
ATOM     19  C   UNL     1       3.789   6.634  17.856  0.00  0.00    +0.000 A 
ATOM     20  C   UNL     1       4.279   7.885  17.416  0.00  0.00    +0.000 A 
ATOM     21  C   UNL     1       3.464   9.016  17.380  0.00  0.00    +0.000 A 
BRANCH  16  22
ATOM     22  O   UNL     1       1.250   9.953  17.809  0.00  0.00    +0.000 OA
BRANCH  22  24
ATOM     23  C   UNL     1       1.553  12.030  18.898  0.00  0.00    +0.000 C 
ATOM     24  C   UNL     1       1.046  10.612  19.059  0.00  0.00    +0.000 C 
ENDBRANCH  22  24
ENDBRANCH  16  22
ENDBRANCH   1  19
BRANCH   2  25
ATOM     25  S   UNL     1       5.240   5.438  15.295  0.00  0.00    +0.000 S 
BRANCH  25  26
ATOM     26  C   UNL     1       6.739   4.557  14.898  0.00  0.00    +0.000 C 
BRANCH  26  27
ATOM     27  C   UNL     1       7.102   4.656  13.431  0.00  0.00    +0.000 C 
ATOM     28  O   UNL     1       7.784   5.561  12.953  0.00  0.00    +0.000 OA
BRANCH  27  29
ATOM     29  C   UNL     1       6.561   3.614  12.507  0.00  0.00    +0.000 A 
ATOM     30  C   UNL     1       5.180   3.615  12.273  0.00  0.00    +0.000 A 
ATOM     31  C   UNL     1       4.606   2.655  11.443  0.00  0.00    +0.000 A 
ATOM     32  C   UNL     1       5.403   1.692  10.831  0.00  0.00    +0.000 A 
ATOM     33  C   UNL     1       6.781   1.696  11.039  0.00  0.00    +0.000 A 
ATOM     34  C   UNL     1       7.364   2.654  11.876  0.00  0.00    +0.000 A 
ENDBRANCH  27  29
ENDBRANCH  26  27
ENDBRANCH  25  26
ENDBRANCH   2  25
TORSDOF 7
ENDMDL
MODEL 8
REMARK VINA RESULT:      -7.8      1.881      6.918
REMARK  Name = 
REMARK  8 active torsions:
REMARK  status: ('A' for Active; 'I' for Inactive)
REMARK    1  A    between atoms: C_1  and  C_2
REMARK    2  A    between atoms: C_2  and  O_3
REMARK    3  A    between atoms: O_3  and  C_4
REMARK    4  A    between atoms: C_7  and  N_8
REMARK    5  A    between atoms: C_9  and  S_10
REMARK    6  A    between atoms: S_10  and  C_11
REMARK    7  A    between atoms: C_11  and  C_12
REMARK    8  A    between atoms: C_12  and  C_14
REMARK                            x       y       z     vdW  Elec       q    Type
REMARK                         _______ _______ _______ _____ _____    ______ ____
ROOT
ATOM      1  N   UNL     1       5.932   4.770  17.823  0.00  0.00    +0.000 N 
ATOM      2  C   UNL     1       5.298   4.510  16.612  0.00  0.00    +0.000 A 
ATOM      3  N   UNL     1       4.000   4.427  16.463  0.00  0.00    +0.000 NA
ATOM      4  C   UNL     1       3.368   4.324  17.738  0.00  0.00    +0.000 A 
ATOM      5  C   UNL     1       4.070   3.662  18.721  0.00  0.00    +0.000 A 
ATOM      6  N   UNL     1       3.108   3.384  19.659  0.00  0.00    +0.000 N 
ATOM      7  C   UNL     1       2.430   4.581  19.793  0.00  0.00    +0.000 A 
ATOM      8  C   UNL     1       1.804   5.117  20.917  0.00  0.00    +0.000 A 
ATOM      9  C   UNL     1       1.447   6.457  20.843  0.00  0.00    +0.000 A 
ATOM     10  C   UNL     1       1.614   7.173  19.655  0.00  0.00    +0.000 A 
ATOM     11  C   UNL     1       2.133   6.569  18.485  0.00  0.00    +0.000 A 
ATOM     12  C   UNL     1       2.589   5.235  18.552  0.00  0.00    +0.000 A 
ATOM     13  C   UNL     1       5.416   4.177  18.978  0.00  0.00    +0.000 A 
ATOM     14  O   UNL     1       5.919   4.192  20.098  0.00  0.00    +0.000 OA
ATOM     15  H   UNL     1       2.619   2.502  19.722  0.00  0.00    +0.000 HD
ENDROOT
BRANCH   1  19
ATOM     16  C   UNL     1       8.113   8.425  18.054  0.00  0.00    +0.000 A 
ATOM     17  C   UNL     1       6.975   8.339  17.246  0.00  0.00    +0.000 A 
ATOM     18  C   UNL     1       6.232   7.152  17.182  0.00  0.00    +0.000 A 
ATOM     19  C   UNL     1       6.617   6.039  17.926  0.00  0.00    +0.000 A 
ATOM     20  C   UNL     1       7.765   6.147  18.743  0.00  0.00    +0.000 A 
ATOM     21  C   UNL     1       8.513   7.323  18.800  0.00  0.00    +0.000 A 
BRANCH  16  22
ATOM     22  O   UNL     1       8.762   9.624  18.020  0.00  0.00    +0.000 OA
BRANCH  22  24
ATOM     23  C   UNL     1       9.487  11.600  19.099  0.00  0.00    +0.000 C 
ATOM     24  C   UNL     1       9.263  10.111  19.266  0.00  0.00    +0.000 C 
ENDBRANCH  22  24
ENDBRANCH  16  22
ENDBRANCH   1  19
BRANCH   2  25
ATOM     25  S   UNL     1       6.527   4.069  15.435  0.00  0.00    +0.000 S 
BRANCH  25  26
ATOM     26  C   UNL     1       6.566   5.311  14.155  0.00  0.00    +0.000 C 
BRANCH  26  27
ATOM     27  C   UNL     1       7.292   4.844  12.911  0.00  0.00    +0.000 C 
ATOM     28  O   UNL     1       8.259   5.426  12.422  0.00  0.00    +0.000 OA
BRANCH  27  29
ATOM     29  C   UNL     1       6.771   3.630  12.214  0.00  0.00    +0.000 A 
ATOM     30  C   UNL     1       5.381   3.504  12.091  0.00  0.00    +0.000 A 
ATOM     31  C   UNL     1       4.827   2.385  11.476  0.00  0.00    +0.000 A 
ATOM     32  C   UNL     1       5.652   1.384  10.968  0.00  0.00    +0.000 A 
ATOM     33  C   UNL     1       7.037   1.511  11.065  0.00  0.00    +0.000 A 
ATOM     34  C   UNL     1       7.601   2.630  11.686  0.00  0.00    +0.000 A 
ENDBRANCH  27  29
ENDBRANCH  26  27
ENDBRANCH  25  26
ENDBRANCH   2  25
TORSDOF 7
ENDMDL
MODEL 9
REMARK VINA RESULT:      -7.8      7.420     10.451
REMARK  Name = 
REMARK  8 active torsions:
REMARK  status: ('A' for Active; 'I' for Inactive)
REMARK    1  A    between atoms: C_1  and  C_2
REMARK    2  A    between atoms: C_2  and  O_3
REMARK    3  A    between atoms: O_3  and  C_4
REMARK    4  A    between atoms: C_7  and  N_8
REMARK    5  A    between atoms: C_9  and  S_10
REMARK    6  A    between atoms: S_10  and  C_11
REMARK    7  A    between atoms: C_11  and  C_12
REMARK    8  A    between atoms: C_12  and  C_14
REMARK                            x       y       z     vdW  Elec       q    Type
REMARK                         _______ _______ _______ _____ _____    ______ ____
ROOT
ATOM      1  N   UNL     1       0.559  11.968  20.103  0.00  0.00    +0.000 N 
ATOM      2  C   UNL     1       0.139  12.262  21.396  0.00  0.00    +0.000 A 
ATOM      3  N   UNL     1       0.159  13.462  21.923  0.00  0.00    +0.000 NA
ATOM      4  C   UNL     1       0.948  14.335  21.118  0.00  0.00    +0.000 A 
ATOM      5  C   UNL     1       2.020  13.769  20.464  0.00  0.00    +0.000 A 
ATOM      6  N   UNL     1       2.783  14.854  20.114  0.00  0.00    +0.000 N 
ATOM      7  C   UNL     1       1.864  15.737  19.580  0.00  0.00    +0.000 A 
ATOM      8  C   UNL     1       2.035  16.681  18.568  0.00  0.00    +0.000 A 
ATOM      9  C   UNL     1       0.875  17.234  18.040  0.00  0.00    +0.000 A 
ATOM     10  C   UNL     1      -0.372  16.930  18.590  0.00  0.00    +0.000 A 
ATOM     11  C   UNL     1      -0.509  16.069  19.704  0.00  0.00    +0.000 A 
ATOM     12  C   UNL     1       0.640  15.419  20.207  0.00  0.00    +0.000 A 
ATOM     13  C   UNL     1       1.694  12.621  19.614  0.00  0.00    +0.000 A 
ATOM     14  O   UNL     1       2.275  12.391  18.558  0.00  0.00    +0.000 OA
ATOM     15  H   UNL     1       3.570  15.188  20.652  0.00  0.00    +0.000 HD
ENDROOT
BRANCH   1  19
ATOM     16  C   UNL     1      -2.490  10.567  17.476  0.00  0.00    +0.000 A 
ATOM     17  C   UNL     1      -2.676  11.752  18.196  0.00  0.00    +0.000 A 
ATOM     18  C   UNL     1      -1.671  12.239  19.042  0.00  0.00    +0.000 A 
ATOM     19  C   UNL     1      -0.468  11.550  19.177  0.00  0.00    +0.000 A 
ATOM     20  C   UNL     1      -0.295  10.358  18.436  0.00  0.00    +0.000 A 
ATOM     21  C   UNL     1      -1.298   9.865  17.602  0.00  0.00    +0.000 A 
BRANCH  16  22
ATOM     22  O   UNL     1      -3.546  10.184  16.701  0.00  0.00    +0.000 OA
BRANCH  22  24
ATOM     23  C   UNL     1      -3.039  10.098  14.392  0.00  0.00    +0.000 C 
ATOM     24  C   UNL     1      -3.727  10.899  15.478  0.00  0.00    +0.000 C 
ENDBRANCH  22  24
ENDBRANCH  16  22
ENDBRANCH   1  19
BRANCH   2  25
ATOM     25  S   UNL     1      -0.154  10.746  22.235  0.00  0.00    +0.000 S 
BRANCH  25  26
ATOM     26  C   UNL     1       1.119   9.583  21.776  0.00  0.00    +0.000 C 
BRANCH  26  27
ATOM     27  C   UNL     1       0.558   8.250  21.329  0.00  0.00    +0.000 C 
ATOM     28  O   UNL     1      -0.557   7.835  21.642  0.00  0.00    +0.000 OA
BRANCH  27  29
ATOM     29  C   UNL     1       1.432   7.370  20.496  0.00  0.00    +0.000 A 
ATOM     30  C   UNL     1       2.050   7.947  19.380  0.00  0.00    +0.000 A 
ATOM     31  C   UNL     1       2.858   7.177  18.545  0.00  0.00    +0.000 A 
ATOM     32  C   UNL     1       3.065   5.828  18.822  0.00  0.00    +0.000 A 
ATOM     33  C   UNL     1       2.473   5.250  19.944  0.00  0.00    +0.000 A 
ATOM     34  C   UNL     1       1.657   6.016  20.783  0.00  0.00    +0.000 A 
ENDBRANCH  27  29
ENDBRANCH  26  27
ENDBRANCH  25  26
ENDBRANCH   2  25
TORSDOF 7
ENDMDL
