MODEL 1
REMARK VINA RESULT:      -8.6      0.000      0.000
REMARK  Name = 
REMARK  7 active torsions:
REMARK  status: ('A' for Active; 'I' for Inactive)
REMARK    1  A    between atoms: C_1  and  C_2
REMARK    2  A    between atoms: C_2  and  O_3
REMARK    3  A    between atoms: O_3  and  C_4
REMARK    4  A    between atoms: C_7  and  C_8
REMARK    5  A    between atoms: C_9  and  C_10
REMARK    6  A    between atoms: N_12  and  N_13
REMARK    7  A    between atoms: C_14  and  C_15
REMARK                            x       y       z     vdW  Elec       q    Type
REMARK                         _______ _______ _______ _____ _____    ______ ____
ROOT
ATOM      1  C   UNL     1       5.161   5.786  18.199  0.00  0.00    +0.000 A 
ATOM      2  C   UNL     1       6.523   6.069  18.009  0.00  0.00    +0.000 A 
ATOM      3  N   UNL     1       7.257   4.934  18.265  0.00  0.00    +0.000 NA
ATOM      4  N   UNL     1       6.428   3.959  18.584  0.00  0.00    +0.000 NA
ATOM      5  N   UNL     1       5.152   4.387  18.378  0.00  0.00    +0.000 N 
ATOM      6  C   UNL     1       4.050   3.493  18.434  0.00  0.00    +0.000 A 
ATOM      7  N   UNL     1       2.922   3.761  17.771  0.00  0.00    +0.000 NA
ATOM      8  O   UNL     1       2.080   2.698  18.093  0.00  0.00    +0.000 OA
ATOM      9  N   UNL     1       2.700   1.809  18.964  0.00  0.00    +0.000 NA
ATOM     10  C   UNL     1       3.924   2.297  19.164  0.00  0.00    +0.000 A 
ATOM     11  N   UNL     1       4.812   1.760  20.020  0.00  0.00    +0.000 N 
ATOM     12  H   UNL     1       4.504   1.023  20.646  0.00  0.00    +0.000 HD
ATOM     13  H   UNL     1       5.648   2.252  20.321  0.00  0.00    +0.000 HD
ENDROOT
BRANCH   1  17
ATOM     14  C   UNL     1       1.737   8.347  18.832  0.00  0.00    +0.000 A 
ATOM     15  C   UNL     1       2.496   8.459  17.673  0.00  0.00    +0.000 A 
ATOM     16  C   UNL     1       3.571   7.594  17.437  0.00  0.00    +0.000 A 
ATOM     17  C   UNL     1       3.976   6.657  18.390  0.00  0.00    +0.000 A 
ATOM     18  C   UNL     1       3.236   6.619  19.590  0.00  0.00    +0.000 A 
ATOM     19  C   UNL     1       2.108   7.422  19.796  0.00  0.00    +0.000 A 
BRANCH  14  20
ATOM     20  O   UNL     1       0.680   9.203  18.927  0.00  0.00    +0.000 OA
BRANCH  20  22
ATOM     21  C   UNL     1      -0.443  11.054  19.895  0.00  0.00    +0.000 C 
ATOM     22  C   UNL     1       0.650  10.020  20.096  0.00  0.00    +0.000 C 
ENDBRANCH  20  22
ENDBRANCH  14  20
ENDBRANCH   1  17
BRANCH   2  23
ATOM     23  C   UNL     1       7.208   7.329  17.688  0.00  0.00    +0.000 C 
ATOM     24  O   UNL     1       6.944   8.008  16.701  0.00  0.00    +0.000 OA
ATOM     25  N   UNL     1       8.207   7.679  18.596  0.00  0.00    +0.000 N 
ATOM     26  H   UNL     1       8.413   7.072  19.382  0.00  0.00    +0.000 HD
BRANCH  25  27
ATOM     27  N   UNL     1       8.915   8.834  18.390  0.00  0.00    +0.000 NA
ATOM     28  C   UNL     1       8.990   9.660  19.384  0.00  0.00    +0.000 C 
BRANCH  28  29
ATOM     29  C   UNL     1       9.744  10.924  19.277  0.00  0.00    +0.000 A 
ATOM     30  C   UNL     1      10.309  11.556  20.385  0.00  0.00    +0.000 A 
ATOM     31  C   UNL     1      10.987  12.758  20.214  0.00  0.00    +0.000 A 
ATOM     32  C   UNL     1      11.084  13.286  18.940  0.00  0.00    +0.000 A 
ATOM     33  N   UNL     1      10.554  12.696  17.840  0.00  0.00    +0.000 NA
ATOM     34  C   UNL     1       9.891  11.523  18.036  0.00  0.00    +0.000 A 
ENDBRANCH  28  29
ENDBRANCH  25  27
ENDBRANCH   2  23
TORSDOF 6
ENDMDL
MODEL 2
REMARK VINA RESULT:      -8.3      0.873      1.400
REMARK  Name = 
REMARK  7 active torsions:
REMARK  status: ('A' for Active; 'I' for Inactive)
REMARK    1  A    between atoms: C_1  and  C_2
REMARK    2  A    between atoms: C_2  and  O_3
REMARK    3  A    between atoms: O_3  and  C_4
REMARK    4  A    between atoms: C_7  and  C_8
REMARK    5  A    between atoms: C_9  and  C_10
REMARK    6  A    between atoms: N_12  and  N_13
REMARK    7  A    between atoms: C_14  and  C_15
REMARK                            x       y       z     vdW  Elec       q    Type
REMARK                         _______ _______ _______ _____ _____    ______ ____
ROOT
ATOM      1  C   UNL     1       4.653   5.898  17.979  0.00  0.00    +0.000 A 
ATOM      2  C   UNL     1       6.003   6.109  17.659  0.00  0.00    +0.000 A 
ATOM      3  N   UNL     1       6.659   4.900  17.659  0.00  0.00    +0.000 NA
ATOM      4  N   UNL     1       5.790   3.949  17.942  0.00  0.00    +0.000 NA
ATOM      5  N   UNL     1       4.540   4.492  17.961  0.00  0.00    +0.000 N 
ATOM      6  C   UNL     1       3.378   3.681  18.031  0.00  0.00    +0.000 A 
ATOM      7  N   UNL     1       2.209   4.123  17.561  0.00  0.00    +0.000 NA
ATOM      8  O   UNL     1       1.319   3.086  17.836  0.00  0.00    +0.000 OA
ATOM      9  N   UNL     1       1.954   2.036  18.489  0.00  0.00    +0.000 NA
ATOM     10  C   UNL     1       3.231   2.402  18.598  0.00  0.00    +0.000 A 
ATOM     11  N   UNL     1       4.161   1.681  19.251  0.00  0.00    +0.000 N 
ATOM     12  H   UNL     1       3.863   0.883  19.803  0.00  0.00    +0.000 HD
ATOM     13  H   UNL     1       5.067   2.063  19.510  0.00  0.00    +0.000 HD
ENDROOT
BRANCH   1  17
ATOM     14  C   UNL     1       1.483   8.549  19.247  0.00  0.00    +0.000 A 
ATOM     15  C   UNL     1       1.932   7.536  20.085  0.00  0.00    +0.000 A 
ATOM     16  C   UNL     1       2.996   6.711  19.702  0.00  0.00    +0.000 A 
ATOM     17  C   UNL     1       3.580   6.813  18.438  0.00  0.00    +0.000 A 
ATOM     18  C   UNL     1       3.052   7.798  17.578  0.00  0.00    +0.000 A 
ATOM     19  C   UNL     1       2.046   8.682  17.986  0.00  0.00    +0.000 A 
BRANCH  14  20
ATOM     20  O   UNL     1       0.481   9.326  19.748  0.00  0.00    +0.000 OA
BRANCH  20  22
ATOM     21  C   UNL     1      -1.084  10.703  18.618  0.00  0.00    +0.000 C 
ATOM     22  C   UNL     1       0.336  10.611  19.145  0.00  0.00    +0.000 C 
ENDBRANCH  20  22
ENDBRANCH  14  20
ENDBRANCH   1  17
BRANCH   2  23
ATOM     23  C   UNL     1       6.756   7.351  17.432  0.00  0.00    +0.000 C 
ATOM     24  O   UNL     1       6.450   8.180  16.580  0.00  0.00    +0.000 OA
ATOM     25  N   UNL     1       7.870   7.498  18.257  0.00  0.00    +0.000 N 
ATOM     26  H   UNL     1       8.104   6.773  18.926  0.00  0.00    +0.000 HD
BRANCH  25  27
ATOM     27  N   UNL     1       8.649   8.619  18.127  0.00  0.00    +0.000 NA
ATOM     28  C   UNL     1       8.760   9.378  19.169  0.00  0.00    +0.000 C 
BRANCH  28  29
ATOM     29  C   UNL     1       9.590  10.599  19.144  0.00  0.00    +0.000 A 
ATOM     30  C   UNL     1      10.122  11.120  17.965  0.00  0.00    +0.000 A 
ATOM     31  C   UNL     1      10.914  12.262  18.018  0.00  0.00    +0.000 A 
ATOM     32  C   UNL     1      11.143  12.849  19.249  0.00  0.00    +0.000 A 
ATOM     33  N   UNL     1      10.637  12.375  20.414  0.00  0.00    +0.000 NA
ATOM     34  C   UNL     1       9.869  11.253  20.333  0.00  0.00    +0.000 A 
ENDBRANCH  28  29
ENDBRANCH  25  27
ENDBRANCH   2  23
TORSDOF 6
ENDMDL
MODEL 3
REMARK VINA RESULT:      -8.3      1.571      1.870
REMARK  Name = 
REMARK  7 active torsions:
REMARK  status: ('A' for Active; 'I' for Inactive)
REMARK    1  A    between atoms: C_1  and  C_2
REMARK    2  A    between atoms: C_2  and  O_3
REMARK    3  A    between atoms: O_3  and  C_4
REMARK    4  A    between atoms: C_7  and  C_8
REMARK    5  A    between atoms: C_9  and  C_10
REMARK    6  A    between atoms: N_12  and  N_13
REMARK    7  A    between atoms: C_14  and  C_15
REMARK                            x       y       z     vdW  Elec       q    Type
REMARK                         _______ _______ _______ _____ _____    ______ ____
ROOT
ATOM      1  C   UNL     1       4.060   5.476  17.638  0.00  0.00    +0.000 A 
ATOM      2  C   UNL     1       5.281   5.661  16.971  0.00  0.00    +0.000 A 
ATOM      3  N   UNL     1       5.824   4.430  16.679  0.00  0.00    +0.000 NA
ATOM      4  N   UNL     1       5.001   3.494  17.110  0.00  0.00    +0.000 NA
ATOM      5  N   UNL     1       3.848   4.086  17.528  0.00  0.00    +0.000 N 
ATOM      6  C   UNL     1       2.695   3.322  17.850  0.00  0.00    +0.000 A 
ATOM      7  N   UNL     1       1.476   3.862  17.769  0.00  0.00    +0.000 NA
ATOM      8  O   UNL     1       0.625   2.842  18.190  0.00  0.00    +0.000 OA
ATOM      9  N   UNL     1       1.340   1.702  18.541  0.00  0.00    +0.000 NA
ATOM     10  C   UNL     1       2.620   1.998  18.319  0.00  0.00    +0.000 A 
ATOM     11  N   UNL     1       3.640   1.173  18.617  0.00  0.00    +0.000 N 
ATOM     12  H   UNL     1       3.450   0.335  19.157  0.00  0.00    +0.000 HD
ATOM     13  H   UNL     1       4.607   1.486  18.643  0.00  0.00    +0.000 HD
ENDROOT
BRANCH   1  17
ATOM     14  C   UNL     1       1.564   8.122  19.973  0.00  0.00    +0.000 A 
ATOM     15  C   UNL     1       2.024   6.927  20.514  0.00  0.00    +0.000 A 
ATOM     16  C   UNL     1       2.879   6.094  19.783  0.00  0.00    +0.000 A 
ATOM     17  C   UNL     1       3.223   6.383  18.460  0.00  0.00    +0.000 A 
ATOM     18  C   UNL     1       2.678   7.561  17.911  0.00  0.00    +0.000 A 
ATOM     19  C   UNL     1       1.893   8.441  18.665  0.00  0.00    +0.000 A 
BRANCH  14  20
ATOM     20  O   UNL     1       0.786   8.879  20.798  0.00  0.00    +0.000 OA
BRANCH  20  22
ATOM     21  C   UNL     1       0.079   9.448  22.988  0.00  0.00    +0.000 C 
ATOM     22  C   UNL     1       1.259   9.019  22.137  0.00  0.00    +0.000 C 
ENDBRANCH  20  22
ENDBRANCH  14  20
ENDBRANCH   1  17
BRANCH   2  23
ATOM     23  C   UNL     1       6.028   6.885  16.653  0.00  0.00    +0.000 C 
ATOM     24  O   UNL     1       5.811   7.569  15.657  0.00  0.00    +0.000 OA
ATOM     25  N   UNL     1       7.029   7.196  17.573  0.00  0.00    +0.000 N 
ATOM     26  H   UNL     1       7.195   6.586  18.366  0.00  0.00    +0.000 HD
BRANCH  25  27
ATOM     27  N   UNL     1       7.792   8.316  17.371  0.00  0.00    +0.000 NA
ATOM     28  C   UNL     1       8.016   9.066  18.402  0.00  0.00    +0.000 C 
BRANCH  28  29
ATOM     29  C   UNL     1       8.841  10.285  18.300  0.00  0.00    +0.000 A 
ATOM     30  C   UNL     1      10.083  10.404  18.924  0.00  0.00    +0.000 A 
ATOM     31  C   UNL     1      10.797  11.591  18.805  0.00  0.00    +0.000 A 
ATOM     32  C   UNL     1      10.249  12.619  18.060  0.00  0.00    +0.000 A 
ATOM     33  N   UNL     1       9.049  12.536  17.434  0.00  0.00    +0.000 NA
ATOM     34  C   UNL     1       8.369  11.365  17.571  0.00  0.00    +0.000 A 
ENDBRANCH  28  29
ENDBRANCH  25  27
ENDBRANCH   2  23
TORSDOF 6
ENDMDL
MODEL 4
REMARK VINA RESULT:      -8.3      0.790      1.009
REMARK  Name = 
REMARK  7 active torsions:
REMARK  status: ('A' for Active; 'I' for Inactive)
REMARK    1  A    between atoms: C_1  and  C_2
REMARK    2  A    between atoms: C_2  and  O_3
REMARK    3  A    between atoms: O_3  and  C_4
REMARK    4  A    between atoms: C_7  and  C_8
REMARK    5  A    between atoms: C_9  and  C_10
REMARK    6  A    between atoms: N_12  and  N_13
REMARK    7  A    between atoms: C_14  and  C_15
REMARK                            x       y       z     vdW  Elec       q    Type
REMARK                         _______ _______ _______ _____ _____    ______ ____
ROOT
ATOM      1  C   UNL     1       5.243   5.641  17.985  0.00  0.00    +0.000 A 
ATOM      2  C   UNL     1       6.603   5.865  17.722  0.00  0.00    +0.000 A 
ATOM      3  N   UNL     1       7.313   4.727  18.029  0.00  0.00    +0.000 NA
ATOM      4  N   UNL     1       6.469   3.804  18.448  0.00  0.00    +0.000 NA
ATOM      5  N   UNL     1       5.198   4.259  18.262  0.00  0.00    +0.000 N 
ATOM      6  C   UNL     1       4.073   3.408  18.424  0.00  0.00    +0.000 A 
ATOM      7  N   UNL     1       2.928   3.666  17.790  0.00  0.00    +0.000 NA
ATOM      8  O   UNL     1       2.068   2.656  18.219  0.00  0.00    +0.000 OA
ATOM      9  N   UNL     1       2.697   1.810  19.125  0.00  0.00    +0.000 NA
ATOM     10  C   UNL     1       3.942   2.270  19.242  0.00  0.00    +0.000 A 
ATOM     11  N   UNL     1       4.848   1.764  20.098  0.00  0.00    +0.000 N 
ATOM     12  H   UNL     1       4.544   1.083  20.786  0.00  0.00    +0.000 HD
ATOM     13  H   UNL     1       5.711   2.248  20.331  0.00  0.00    +0.000 HD
ENDROOT
BRANCH   1  17
ATOM     14  C   UNL     1       1.922   8.345  18.574  0.00  0.00    +0.000 A 
ATOM     15  C   UNL     1       2.717   8.443  17.439  0.00  0.00    +0.000 A 
ATOM     16  C   UNL     1       3.758   7.533  17.216  0.00  0.00    +0.000 A 
ATOM     17  C   UNL     1       4.094   6.562  18.161  0.00  0.00    +0.000 A 
ATOM     18  C   UNL     1       3.320   6.536  19.340  0.00  0.00    +0.000 A 
ATOM     19  C   UNL     1       2.224   7.387  19.530  0.00  0.00    +0.000 A 
BRANCH  14  20
ATOM     20  O   UNL     1       0.903   9.246  18.657  0.00  0.00    +0.000 OA
BRANCH  20  22
ATOM     21  C   UNL     1      -0.000  10.214  20.624  0.00  0.00    +0.000 C 
ATOM     22  C   UNL     1       1.097  10.316  19.582  0.00  0.00    +0.000 C 
ENDBRANCH  20  22
ENDBRANCH  14  20
ENDBRANCH   1  17
BRANCH   2  23
ATOM     23  C   UNL     1       7.312   7.076  17.286  0.00  0.00    +0.000 C 
ATOM     24  O   UNL     1       7.921   7.156  16.224  0.00  0.00    +0.000 OA
ATOM     25  N   UNL     1       7.254   8.128  18.199  0.00  0.00    +0.000 N 
ATOM     26  H   UNL     1       6.765   8.008  19.079  0.00  0.00    +0.000 HD
BRANCH  25  27
ATOM     27  N   UNL     1       7.886   9.305  17.897  0.00  0.00    +0.000 NA
ATOM     28  C   UNL     1       8.768   9.730  18.742  0.00  0.00    +0.000 C 
BRANCH  28  29
ATOM     29  C   UNL     1       9.523  10.977  18.505  0.00  0.00    +0.000 A 
ATOM     30  C   UNL     1       9.000  12.041  17.769  0.00  0.00    +0.000 A 
ATOM     31  C   UNL     1       9.775  13.177  17.565  0.00  0.00    +0.000 A 
ATOM     32  C   UNL     1      11.045  13.215  18.109  0.00  0.00    +0.000 A 
ATOM     33  N   UNL     1      11.583  12.204  18.835  0.00  0.00    +0.000 NA
ATOM     34  C   UNL     1      10.805  11.102  19.015  0.00  0.00    +0.000 A 
ENDBRANCH  28  29
ENDBRANCH  25  27
ENDBRANCH   2  23
TORSDOF 6
ENDMDL
MODEL 5
REMARK VINA RESULT:      -7.9      1.083      1.398
REMARK  Name = 
REMARK  7 active torsions:
REMARK  status: ('A' for Active; 'I' for Inactive)
REMARK    1  A    between atoms: C_1  and  C_2
REMARK    2  A    between atoms: C_2  and  O_3
REMARK    3  A    between atoms: O_3  and  C_4
REMARK    4  A    between atoms: C_7  and  C_8
REMARK    5  A    between atoms: C_9  and  C_10
REMARK    6  A    between atoms: N_12  and  N_13
REMARK    7  A    between atoms: C_14  and  C_15
REMARK                            x       y       z     vdW  Elec       q    Type
REMARK                         _______ _______ _______ _____ _____    ______ ____
ROOT
ATOM      1  C   UNL     1       5.238   5.571  18.089  0.00  0.00    +0.000 A 
ATOM      2  C   UNL     1       6.637   5.692  18.110  0.00  0.00    +0.000 A 
ATOM      3  N   UNL     1       7.195   4.435  18.155  0.00  0.00    +0.000 NA
ATOM      4  N   UNL     1       6.224   3.542  18.143  0.00  0.00    +0.000 NA
ATOM      5  N   UNL     1       5.044   4.184  17.921  0.00  0.00    +0.000 N 
ATOM      6  C   UNL     1       3.848   3.469  17.647  0.00  0.00    +0.000 A 
ATOM      7  N   UNL     1       2.856   4.039  16.960  0.00  0.00    +0.000 NA
ATOM      8  O   UNL     1       1.861   3.063  16.928  0.00  0.00    +0.000 OA
ATOM      9  N   UNL     1       2.255   1.920  17.615  0.00  0.00    +0.000 NA
ATOM     10  C   UNL     1       3.490   2.169  18.049  0.00  0.00    +0.000 A 
ATOM     11  N   UNL     1       4.190   1.329  18.833  0.00  0.00    +0.000 N 
ATOM     12  H   UNL     1       3.719   0.521  19.227  0.00  0.00    +0.000 HD
ATOM     13  H   UNL     1       5.031   1.614  19.327  0.00  0.00    +0.000 HD
ENDROOT
BRANCH   1  17
ATOM     14  C   UNL     1       2.028   8.371  18.823  0.00  0.00    +0.000 A 
ATOM     15  C   UNL     1       2.291   7.348  19.727  0.00  0.00    +0.000 A 
ATOM     16  C   UNL     1       3.366   6.474  19.522  0.00  0.00    +0.000 A 
ATOM     17  C   UNL     1       4.147   6.537  18.367  0.00  0.00    +0.000 A 
ATOM     18  C   UNL     1       3.808   7.534  17.430  0.00  0.00    +0.000 A 
ATOM     19  C   UNL     1       2.790   8.465  17.669  0.00  0.00    +0.000 A 
BRANCH  14  20
ATOM     20  O   UNL     1       0.995   9.196  19.155  0.00  0.00    +0.000 OA
BRANCH  20  22
ATOM     21  C   UNL     1       0.787  10.893  20.798  0.00  0.00    +0.000 C 
ATOM     22  C   UNL     1       0.787   9.395  20.553  0.00  0.00    +0.000 C 
ENDBRANCH  20  22
ENDBRANCH  14  20
ENDBRANCH   1  17
BRANCH   2  23
ATOM     23  C   UNL     1       7.500   6.879  18.175  0.00  0.00    +0.000 C 
ATOM     24  O   UNL     1       8.376   7.031  19.021  0.00  0.00    +0.000 OA
ATOM     25  N   UNL     1       7.222   7.837  17.200  0.00  0.00    +0.000 N 
ATOM     26  H   UNL     1       6.469   7.684  16.540  0.00  0.00    +0.000 HD
BRANCH  25  27
ATOM     27  N   UNL     1       7.964   8.989  17.171  0.00  0.00    +0.000 NA
ATOM     28  C   UNL     1       8.253   9.528  18.312  0.00  0.00    +0.000 C 
BRANCH  28  29
ATOM     29  C   UNL     1       9.063  10.760  18.396  0.00  0.00    +0.000 A 
ATOM     30  C   UNL     1      10.214  10.847  19.178  0.00  0.00    +0.000 A 
ATOM     31  C   UNL     1      10.917  12.046  19.229  0.00  0.00    +0.000 A 
ATOM     32  C   UNL     1      10.449  13.117  18.490  0.00  0.00    +0.000 A 
ATOM     33  N   UNL     1       9.338  13.066  17.714  0.00  0.00    +0.000 NA
ATOM     34  C   UNL     1       8.667  11.882  17.687  0.00  0.00    +0.000 A 
ENDBRANCH  28  29
ENDBRANCH  25  27
ENDBRANCH   2  23
TORSDOF 6
ENDMDL
MODEL 6
REMARK VINA RESULT:      -7.6      4.156      9.958
REMARK  Name = 
REMARK  7 active torsions:
REMARK  status: ('A' for Active; 'I' for Inactive)
REMARK    1  A    between atoms: C_1  and  C_2
REMARK    2  A    between atoms: C_2  and  O_3
REMARK    3  A    between atoms: O_3  and  C_4
REMARK    4  A    between atoms: C_7  and  C_8
REMARK    5  A    between atoms: C_9  and  C_10
REMARK    6  A    between atoms: N_12  and  N_13
REMARK    7  A    between atoms: C_14  and  C_15
REMARK                            x       y       z     vdW  Elec       q    Type
REMARK                         _______ _______ _______ _____ _____    ______ ____
ROOT
ATOM      1  C   UNL     1       9.625  13.710  18.920  0.00  0.00    +0.000 A 
ATOM      2  C   UNL     1      10.215  12.438  18.989  0.00  0.00    +0.000 A 
ATOM      3  N   UNL     1      11.502  12.515  18.508  0.00  0.00    +0.000 NA
ATOM      4  N   UNL     1      11.750  13.764  18.164  0.00  0.00    +0.000 NA
ATOM      5  N   UNL     1      10.708  14.542  18.567  0.00  0.00    +0.000 N 
ATOM      6  C   UNL     1      10.778  15.960  18.524  0.00  0.00    +0.000 A 
ATOM      7  N   UNL     1      10.027  16.704  19.339  0.00  0.00    +0.000 NA
ATOM      8  O   UNL     1      10.337  18.015  18.982  0.00  0.00    +0.000 OA
ATOM      9  N   UNL     1      11.257  18.050  17.940  0.00  0.00    +0.000 NA
ATOM     10  C   UNL     1      11.537  16.776  17.666  0.00  0.00    +0.000 A 
ATOM     11  N   UNL     1      12.333  16.388  16.653  0.00  0.00    +0.000 N 
ATOM     12  H   UNL     1      12.639  17.081  15.977  0.00  0.00    +0.000 HD
ATOM     13  H   UNL     1      12.370  15.427  16.324  0.00  0.00    +0.000 HD
ENDROOT
BRANCH   1  17
ATOM     14  C   UNL     1       5.534  15.091  19.131  0.00  0.00    +0.000 A 
ATOM     15  C   UNL     1       6.106  14.765  17.907  0.00  0.00    +0.000 A 
ATOM     16  C   UNL     1       7.411  14.263  17.839  0.00  0.00    +0.000 A 
ATOM     17  C   UNL     1       8.213  14.161  18.978  0.00  0.00    +0.000 A 
ATOM     18  C   UNL     1       7.635  14.574  20.195  0.00  0.00    +0.000 A 
ATOM     19  C   UNL     1       6.302  14.996  20.282  0.00  0.00    +0.000 A 
BRANCH  14  20
ATOM     20  O   UNL     1       4.239  15.514  19.081  0.00  0.00    +0.000 OA
BRANCH  20  22
ATOM     21  C   UNL     1       2.997  16.520  17.330  0.00  0.00    +0.000 C 
ATOM     22  C   UNL     1       4.021  16.761  18.422  0.00  0.00    +0.000 C 
ENDBRANCH  20  22
ENDBRANCH  14  20
ENDBRANCH   1  17
BRANCH   2  23
ATOM     23  C   UNL     1       9.658  11.139  19.387  0.00  0.00    +0.000 C 
ATOM     24  O   UNL     1       9.650  10.734  20.546  0.00  0.00    +0.000 OA
ATOM     25  N   UNL     1       9.154  10.388  18.327  0.00  0.00    +0.000 N 
ATOM     26  H   UNL     1       9.208  10.747  17.380  0.00  0.00    +0.000 HD
BRANCH  25  27
ATOM     27  N   UNL     1       8.613   9.155  18.584  0.00  0.00    +0.000 NA
ATOM     28  C   UNL     1       7.935   8.602  17.631  0.00  0.00    +0.000 C 
BRANCH  28  29
ATOM     29  C   UNL     1       7.327   7.267  17.795  0.00  0.00    +0.000 A 
ATOM     30  C   UNL     1       6.220   6.851  17.055  0.00  0.00    +0.000 A 
ATOM     31  C   UNL     1       5.684   5.588  17.277  0.00  0.00    +0.000 A 
ATOM     32  C   UNL     1       6.277   4.778  18.228  0.00  0.00    +0.000 A 
ATOM     33  N   UNL     1       7.357   5.145  18.961  0.00  0.00    +0.000 NA
ATOM     34  C   UNL     1       7.858   6.389  18.726  0.00  0.00    +0.000 A 
ENDBRANCH  28  29
ENDBRANCH  25  27
ENDBRANCH   2  23
TORSDOF 6
ENDMDL
MODEL 7
REMARK VINA RESULT:      -7.6      4.127     10.187
REMARK  Name = 
REMARK  7 active torsions:
REMARK  status: ('A' for Active; 'I' for Inactive)
REMARK    1  A    between atoms: C_1  and  C_2
REMARK    2  A    between atoms: C_2  and  O_3
REMARK    3  A    between atoms: O_3  and  C_4
REMARK    4  A    between atoms: C_7  and  C_8
REMARK    5  A    between atoms: C_9  and  C_10
REMARK    6  A    between atoms: N_12  and  N_13
REMARK    7  A    between atoms: C_14  and  C_15
REMARK                            x       y       z     vdW  Elec       q    Type
REMARK                         _______ _______ _______ _____ _____    ______ ____
ROOT
ATOM      1  C   UNL     1       9.807  13.273  19.232  0.00  0.00    +0.000 A 
ATOM      2  C   UNL     1       9.870  12.011  18.619  0.00  0.00    +0.000 A 
ATOM      3  N   UNL     1      10.429  12.147  17.369  0.00  0.00    +0.000 NA
ATOM      4  N   UNL     1      10.734  13.416  17.179  0.00  0.00    +0.000 NA
ATOM      5  N   UNL     1      10.542  14.090  18.347  0.00  0.00    +0.000 N 
ATOM      6  C   UNL     1      10.983  15.429  18.514  0.00  0.00    +0.000 A 
ATOM      7  N   UNL     1      11.256  15.909  19.729  0.00  0.00    +0.000 NA
ATOM      8  O   UNL     1      11.613  17.236  19.496  0.00  0.00    +0.000 OA
ATOM      9  N   UNL     1      11.533  17.551  18.144  0.00  0.00    +0.000 NA
ATOM     10  C   UNL     1      11.154  16.427  17.537  0.00  0.00    +0.000 A 
ATOM     11  N   UNL     1      10.883  16.343  16.221  0.00  0.00    +0.000 N 
ATOM     12  H   UNL     1      10.836  17.198  15.676  0.00  0.00    +0.000 HD
ATOM     13  H   UNL     1      10.397  15.551  15.812  0.00  0.00    +0.000 HD
ENDROOT
BRANCH   1  17
ATOM     14  C   UNL     1       7.486  14.731  22.574  0.00  0.00    +0.000 A 
ATOM     15  C   UNL     1       8.636  13.981  22.788  0.00  0.00    +0.000 A 
ATOM     16  C   UNL     1       9.422  13.555  21.711  0.00  0.00    +0.000 A 
ATOM     17  C   UNL     1       9.035  13.785  20.390  0.00  0.00    +0.000 A 
ATOM     18  C   UNL     1       7.823  14.480  20.200  0.00  0.00    +0.000 A 
ATOM     19  C   UNL     1       7.077  14.983  21.273  0.00  0.00    +0.000 A 
BRANCH  14  20
ATOM     20  O   UNL     1       6.833  15.141  23.698  0.00  0.00    +0.000 OA
BRANCH  20  22
ATOM     21  C   UNL     1       5.691  13.906  25.370  0.00  0.00    +0.000 C 
ATOM     22  C   UNL     1       7.052  14.347  24.863  0.00  0.00    +0.000 C 
ENDBRANCH  20  22
ENDBRANCH  14  20
ENDBRANCH   1  17
BRANCH   2  23
ATOM     23  C   UNL     1       9.378  10.700  19.063  0.00  0.00    +0.000 C 
ATOM     24  O   UNL     1       9.463  10.305  20.222  0.00  0.00    +0.000 OA
ATOM     25  N   UNL     1       8.822   9.927  18.045  0.00  0.00    +0.000 N 
ATOM     26  H   UNL     1       8.801  10.280  17.095  0.00  0.00    +0.000 HD
BRANCH  25  27
ATOM     27  N   UNL     1       8.336   8.681  18.347  0.00  0.00    +0.000 NA
ATOM     28  C   UNL     1       7.538   8.139  17.485  0.00  0.00    +0.000 C 
BRANCH  28  29
ATOM     29  C   UNL     1       6.973   6.793  17.702  0.00  0.00    +0.000 A 
ATOM     30  C   UNL     1       5.877   6.316  16.985  0.00  0.00    +0.000 A 
ATOM     31  C   UNL     1       5.381   5.045  17.256  0.00  0.00    +0.000 A 
ATOM     32  C   UNL     1       6.003   4.290  18.234  0.00  0.00    +0.000 A 
ATOM     33  N   UNL     1       7.075   4.718  18.946  0.00  0.00    +0.000 NA
ATOM     34  C   UNL     1       7.535   5.968  18.663  0.00  0.00    +0.000 A 
ENDBRANCH  28  29
ENDBRANCH  25  27
ENDBRANCH   2  23
TORSDOF 6
ENDMDL
MODEL 8
REMARK VINA RESULT:      -7.6      3.978      9.831
REMARK  Name = 
REMARK  7 active torsions:
REMARK  status: ('A' for Active; 'I' for Inactive)
REMARK    1  A    between atoms: C_1  and  C_2
REMARK    2  A    between atoms: C_2  and  O_3
REMARK    3  A    between atoms: O_3  and  C_4
REMARK    4  A    between atoms: C_7  and  C_8
REMARK    5  A    between atoms: C_9  and  C_10
REMARK    6  A    between atoms: N_12  and  N_13
REMARK    7  A    between atoms: C_14  and  C_15
REMARK                            x       y       z     vdW  Elec       q    Type
REMARK                         _______ _______ _______ _____ _____    ______ ____
ROOT
ATOM      1  C   UNL     1       9.292  13.841  18.839  0.00  0.00    +0.000 A 
ATOM      2  C   UNL     1       9.893  12.574  18.913  0.00  0.00    +0.000 A 
ATOM      3  N   UNL     1      11.172  12.654  18.413  0.00  0.00    +0.000 NA
ATOM      4  N   UNL     1      11.406  13.901  18.052  0.00  0.00    +0.000 NA
ATOM      5  N   UNL     1      10.364  14.677  18.461  0.00  0.00    +0.000 N 
ATOM      6  C   UNL     1      10.423  16.094  18.402  0.00  0.00    +0.000 A 
ATOM      7  N   UNL     1       9.679  16.841  19.220  0.00  0.00    +0.000 NA
ATOM      8  O   UNL     1       9.974  18.151  18.845  0.00  0.00    +0.000 OA
ATOM      9  N   UNL     1      10.879  18.181  17.790  0.00  0.00    +0.000 NA
ATOM     10  C   UNL     1      11.164  16.907  17.525  0.00  0.00    +0.000 A 
ATOM     11  N   UNL     1      11.949  16.513  16.505  0.00  0.00    +0.000 N 
ATOM     12  H   UNL     1      12.239  17.201  15.817  0.00  0.00    +0.000 HD
ATOM     13  H   UNL     1      11.988  15.550  16.185  0.00  0.00    +0.000 HD
ENDROOT
BRANCH   1  17
ATOM     14  C   UNL     1       5.148  15.060  19.009  0.00  0.00    +0.000 A 
ATOM     15  C   UNL     1       5.913  14.997  20.168  0.00  0.00    +0.000 A 
ATOM     16  C   UNL     1       7.270  14.658  20.111  0.00  0.00    +0.000 A 
ATOM     17  C   UNL     1       7.878  14.283  18.912  0.00  0.00    +0.000 A 
ATOM     18  C   UNL     1       7.059  14.280  17.764  0.00  0.00    +0.000 A 
ATOM     19  C   UNL     1       5.724  14.700  17.800  0.00  0.00    +0.000 A 
BRANCH  14  20
ATOM     20  O   UNL     1       3.856  15.458  19.178  0.00  0.00    +0.000 OA
BRANCH  20  22
ATOM     21  C   UNL     1       1.934  14.150  18.707  0.00  0.00    +0.000 C 
ATOM     22  C   UNL     1       2.981  14.487  19.753  0.00  0.00    +0.000 C 
ENDBRANCH  20  22
ENDBRANCH  14  20
ENDBRANCH   1  17
BRANCH   2  23
ATOM     23  C   UNL     1       9.350  11.275  19.333  0.00  0.00    +0.000 C 
ATOM     24  O   UNL     1       9.181  10.962  20.508  0.00  0.00    +0.000 OA
ATOM     25  N   UNL     1       9.061  10.412  18.277  0.00  0.00    +0.000 N 
ATOM     26  H   UNL     1       9.245  10.700  17.322  0.00  0.00    +0.000 HD
BRANCH  25  27
ATOM     27  N   UNL     1       8.555   9.169  18.555  0.00  0.00    +0.000 NA
ATOM     28  C   UNL     1       7.913   8.572  17.604  0.00  0.00    +0.000 C 
BRANCH  28  29
ATOM     29  C   UNL     1       7.343   7.222  17.790  0.00  0.00    +0.000 A 
ATOM     30  C   UNL     1       6.241   6.768  17.067  0.00  0.00    +0.000 A 
ATOM     31  C   UNL     1       5.742   5.493  17.309  0.00  0.00    +0.000 A 
ATOM     32  C   UNL     1       6.366   4.711  18.263  0.00  0.00    +0.000 A 
ATOM     33  N   UNL     1       7.444   5.117  18.980  0.00  0.00    +0.000 NA
ATOM     34  C   UNL     1       7.908   6.371  18.726  0.00  0.00    +0.000 A 
ENDBRANCH  28  29
ENDBRANCH  25  27
ENDBRANCH   2  23
TORSDOF 6
ENDMDL
MODEL 9
REMARK VINA RESULT:      -7.6      5.239      9.671
REMARK  Name = 
REMARK  7 active torsions:
REMARK  status: ('A' for Active; 'I' for Inactive)
REMARK    1  A    between atoms: C_1  and  C_2
REMARK    2  A    between atoms: C_2  and  O_3
REMARK    3  A    between atoms: O_3  and  C_4
REMARK    4  A    between atoms: C_7  and  C_8
REMARK    5  A    between atoms: C_9  and  C_10
REMARK    6  A    between atoms: N_12  and  N_13
REMARK    7  A    between atoms: C_14  and  C_15
REMARK                            x       y       z     vdW  Elec       q    Type
REMARK                         _______ _______ _______ _____ _____    ______ ____
ROOT
ATOM      1  C   UNL     1       1.280  12.036  19.831  0.00  0.00    +0.000 A 
ATOM      2  C   UNL     1       1.699  11.251  18.745  0.00  0.00    +0.000 A 
ATOM      3  N   UNL     1       2.512  12.007  17.932  0.00  0.00    +0.000 NA
ATOM      4  N   UNL     1       2.637  13.209  18.461  0.00  0.00    +0.000 NA
ATOM      5  N   UNL     1       2.059  13.204  19.694  0.00  0.00    +0.000 N 
ATOM      6  C   UNL     1       2.216  14.292  20.593  0.00  0.00    +0.000 A 
ATOM      7  N   UNL     1       2.102  14.109  21.910  0.00  0.00    +0.000 NA
ATOM      8  O   UNL     1       2.278  15.384  22.446  0.00  0.00    +0.000 OA
ATOM      9  N   UNL     1       2.474  16.329  21.445  0.00  0.00    +0.000 NA
ATOM     10  C   UNL     1       2.447  15.649  20.299  0.00  0.00    +0.000 A 
ATOM     11  N   UNL     1       2.520  16.226  19.086  0.00  0.00    +0.000 N 
ATOM     12  H   UNL     1       2.463  17.238  19.021  0.00  0.00    +0.000 HD
ATOM     13  H   UNL     1       2.287  15.731  18.230  0.00  0.00    +0.000 HD
ENDROOT
BRANCH   1  17
ATOM     14  C   UNL     1      -1.880  11.588  22.745  0.00  0.00    +0.000 A 
ATOM     15  C   UNL     1      -1.958  12.572  21.768  0.00  0.00    +0.000 A 
ATOM     16  C   UNL     1      -0.965  12.684  20.787  0.00  0.00    +0.000 A 
ATOM     17  C   UNL     1       0.177  11.881  20.810  0.00  0.00    +0.000 A 
ATOM     18  C   UNL     1       0.267  10.944  21.859  0.00  0.00    +0.000 A 
ATOM     19  C   UNL     1      -0.762  10.768  22.792  0.00  0.00    +0.000 A 
BRANCH  14  20
ATOM     20  O   UNL     1      -2.932  11.535  23.611  0.00  0.00    +0.000 OA
BRANCH  20  22
ATOM     21  C   UNL     1      -4.843  12.481  24.649  0.00  0.00    +0.000 C 
ATOM     22  C   UNL     1      -3.560  12.784  23.897  0.00  0.00    +0.000 C 
ENDBRANCH  20  22
ENDBRANCH  14  20
ENDBRANCH   1  17
BRANCH   2  23
ATOM     23  C   UNL     1       1.342   9.880  18.354  0.00  0.00    +0.000 C 
ATOM     24  O   UNL     1       0.250   9.575  17.883  0.00  0.00    +0.000 OA
ATOM     25  N   UNL     1       2.348   8.943  18.585  0.00  0.00    +0.000 N 
ATOM     26  H   UNL     1       3.224   9.234  19.005  0.00  0.00    +0.000 HD
BRANCH  25  27
ATOM     27  N   UNL     1       2.120   7.631  18.262  0.00  0.00    +0.000 NA
ATOM     28  C   UNL     1       2.401   6.748  19.165  0.00  0.00    +0.000 C 
BRANCH  28  29
ATOM     29  C   UNL     1       2.176   5.308  18.928  0.00  0.00    +0.000 A 
ATOM     30  C   UNL     1       2.475   4.693  17.713  0.00  0.00    +0.000 A 
ATOM     31  C   UNL     1       2.216   3.336  17.552  0.00  0.00    +0.000 A 
ATOM     32  C   UNL     1       1.672   2.638  18.614  0.00  0.00    +0.000 A 
ATOM     33  N   UNL     1       1.375   3.201  19.811  0.00  0.00    +0.000 NA
ATOM     34  C   UNL     1       1.634   4.531  19.940  0.00  0.00    +0.000 A 
ENDBRANCH  28  29
ENDBRANCH  25  27
ENDBRANCH   2  23
TORSDOF 6
ENDMDL
