MODEL 1
REMARK VINA RESULT:      -7.9      0.000      0.000
REMARK  Name = 
REMARK  3 active torsions:
REMARK  status: ('A' for Active; 'I' for Inactive)
REMARK    1  A    between atoms: C_2  and  C_3
REMARK    2  A    between atoms: C_6  and  N_7
REMARK    3  A    between atoms: N_10  and  C_11
REMARK                            x       y       z     vdW  Elec       q    Type
REMARK                         _______ _______ _______ _____ _____    ______ ____
ROOT
ATOM      1  N   UNL     1       1.459   7.926  21.392  0.00  0.00    +0.000 N 
ATOM      2  C   UNL     1       1.869   7.488  20.145  0.00  0.00    +0.000 C 
ATOM      3  O   UNL     1       1.868   8.118  19.100  0.00  0.00    +0.000 OA
ATOM      4  N   UNL     1       2.343   6.207  20.274  0.00  0.00    +0.000 N 
ATOM      5  H   UNL     1       1.846   7.399  22.162  0.00  0.00    +0.000 HD
ATOM      6  H   UNL     1       1.813   5.672  20.945  0.00  0.00    +0.000 HD
ENDROOT
BRANCH   4   7
ATOM      7  C   UNL     1       3.004   5.409  19.240  0.00  0.00    +0.000 C 
ATOM      8  C   UNL     1       3.953   4.306  19.783  0.00  0.00    +0.000 C 
ATOM      9  C   UNL     1       3.176   3.356  20.713  0.00  0.00    +0.000 C 
ATOM     10  C   UNL     1       2.001   2.716  19.950  0.00  0.00    +0.000 C 
ATOM     11  C   UNL     1       2.558   1.893  18.777  0.00  0.00    +0.000 C 
ATOM     12  C   UNL     1       3.365   2.802  17.831  0.00  0.00    +0.000 C 
ATOM     13  C   UNL     1       4.512   3.470  18.609  0.00  0.00    +0.000 C 
ATOM     14  C   UNL     1       2.455   3.907  17.275  0.00  0.00    +0.000 C 
ATOM     15  C   UNL     1       1.871   4.732  18.428  0.00  0.00    +0.000 C 
ATOM     16  C   UNL     1       1.074   3.798  19.371  0.00  0.00    +0.000 C 
ENDBRANCH   4   7
BRANCH   1  20
ATOM     17  C   UNL     1      -0.606  11.438  22.426  0.00  0.00    +0.000 A 
ATOM     18  C   UNL     1       0.263  11.449  21.331  0.00  0.00    +0.000 A 
ATOM     19  C   UNL     1       0.965  10.294  20.975  0.00  0.00    +0.000 A 
ATOM     20  C   UNL     1       0.806   9.123  21.712  0.00  0.00    +0.000 A 
ATOM     21  C   UNL     1      -0.071   9.109  22.805  0.00  0.00    +0.000 A 
ATOM     22  C   UNL     1      -0.771  10.264  23.166  0.00  0.00    +0.000 A 
BRANCH  17  24
ATOM     23  N   UNL     1      -1.915  13.579  23.073  0.00  0.00    +0.000 NA
ATOM     24  C   UNL     1      -1.325  12.624  22.784  0.00  0.00    +0.000 C 
ENDBRANCH  17  24
ENDBRANCH   1  20
TORSDOF 3
ENDMDL
MODEL 2
REMARK VINA RESULT:      -7.7      2.542      3.211
REMARK  Name = 
REMARK  3 active torsions:
REMARK  status: ('A' for Active; 'I' for Inactive)
REMARK    1  A    between atoms: C_2  and  C_3
REMARK    2  A    between atoms: C_6  and  N_7
REMARK    3  A    between atoms: N_10  and  C_11
REMARK                            x       y       z     vdW  Elec       q    Type
REMARK                         _______ _______ _______ _____ _____    ______ ____
ROOT
ATOM      1  N   UNL     1       1.854   8.616  18.262  0.00  0.00    +0.000 N 
ATOM      2  C   UNL     1       2.103   7.719  19.285  0.00  0.00    +0.000 C 
ATOM      3  O   UNL     1       1.805   7.835  20.464  0.00  0.00    +0.000 OA
ATOM      4  N   UNL     1       2.713   6.613  18.749  0.00  0.00    +0.000 N 
ATOM      5  H   UNL     1       1.866   8.203  17.341  0.00  0.00    +0.000 HD
ATOM      6  H   UNL     1       3.349   6.854  18.005  0.00  0.00    +0.000 HD
ENDROOT
BRANCH   4   7
ATOM      7  C   UNL     1       3.028   5.363  19.443  0.00  0.00    +0.000 C 
ATOM      8  C   UNL     1       1.868   4.329  19.470  0.00  0.00    +0.000 C 
ATOM      9  C   UNL     1       1.430   3.995  18.033  0.00  0.00    +0.000 C 
ATOM     10  C   UNL     1       2.621   3.434  17.235  0.00  0.00    +0.000 C 
ATOM     11  C   UNL     1       3.104   2.138  17.905  0.00  0.00    +0.000 C 
ATOM     12  C   UNL     1       3.532   2.422  19.357  0.00  0.00    +0.000 C 
ATOM     13  C   UNL     1       2.349   3.020  20.138  0.00  0.00    +0.000 C 
ATOM     14  C   UNL     1       4.679   3.443  19.367  0.00  0.00    +0.000 C 
ATOM     15  C   UNL     1       4.228   4.741  18.686  0.00  0.00    +0.000 C 
ATOM     16  C   UNL     1       3.793   4.430  17.234  0.00  0.00    +0.000 C 
ENDBRANCH   4   7
BRANCH   1  20
ATOM     17  C   UNL     1       0.490  12.577  18.604  0.00  0.00    +0.000 A 
ATOM     18  C   UNL     1      -0.424  11.524  18.705  0.00  0.00    +0.000 A 
ATOM     19  C   UNL     1       0.007  10.200  18.587  0.00  0.00    +0.000 A 
ATOM     20  C   UNL     1       1.353   9.920  18.363  0.00  0.00    +0.000 A 
ATOM     21  C   UNL     1       2.271  10.975  18.269  0.00  0.00    +0.000 A 
ATOM     22  C   UNL     1       1.842  12.300  18.383  0.00  0.00    +0.000 A 
BRANCH  17  24
ATOM     23  N   UNL     1      -0.316  15.029  18.838  0.00  0.00    +0.000 NA
ATOM     24  C   UNL     1       0.042  13.932  18.729  0.00  0.00    +0.000 C 
ENDBRANCH  17  24
ENDBRANCH   1  20
TORSDOF 3
ENDMDL
MODEL 3
REMARK VINA RESULT:      -7.7      0.136      1.037
REMARK  Name = 
REMARK  3 active torsions:
REMARK  status: ('A' for Active; 'I' for Inactive)
REMARK    1  A    between atoms: C_2  and  C_3
REMARK    2  A    between atoms: C_6  and  N_7
REMARK    3  A    between atoms: N_10  and  C_11
REMARK                            x       y       z     vdW  Elec       q    Type
REMARK                         _______ _______ _______ _____ _____    ______ ____
ROOT
ATOM      1  N   UNL     1       1.407   7.890  21.399  0.00  0.00    +0.000 N 
ATOM      2  C   UNL     1       1.831   7.465  20.153  0.00  0.00    +0.000 C 
ATOM      3  O   UNL     1       1.827   8.099  19.110  0.00  0.00    +0.000 OA
ATOM      4  N   UNL     1       2.323   6.190  20.278  0.00  0.00    +0.000 N 
ATOM      5  H   UNL     1       1.796   7.365  22.169  0.00  0.00    +0.000 HD
ATOM      6  H   UNL     1       1.797   5.644  20.944  0.00  0.00    +0.000 HD
ENDROOT
BRANCH   4   7
ATOM      7  C   UNL     1       3.002   5.407  19.245  0.00  0.00    +0.000 C 
ATOM      8  C   UNL     1       3.952   4.305  19.790  0.00  0.00    +0.000 C 
ATOM      9  C   UNL     1       3.172   3.341  20.700  0.00  0.00    +0.000 C 
ATOM     10  C   UNL     1       2.011   2.700  19.917  0.00  0.00    +0.000 C 
ATOM     11  C   UNL     1       2.587   1.893  18.743  0.00  0.00    +0.000 C 
ATOM     12  C   UNL     1       3.398   2.816  17.816  0.00  0.00    +0.000 C 
ATOM     13  C   UNL     1       4.532   3.485  18.614  0.00  0.00    +0.000 C 
ATOM     14  C   UNL     1       2.488   3.919  17.260  0.00  0.00    +0.000 C 
ATOM     15  C   UNL     1       1.884   4.729  18.414  0.00  0.00    +0.000 C 
ATOM     16  C   UNL     1       1.082   3.781  19.337  0.00  0.00    +0.000 C 
ENDBRANCH   4   7
BRANCH   1  20
ATOM     17  C   UNL     1      -0.502  11.528  22.291  0.00  0.00    +0.000 A 
ATOM     18  C   UNL     1      -0.777  10.399  23.068  0.00  0.00    +0.000 A 
ATOM     19  C   UNL     1      -0.159   9.178  22.784  0.00  0.00    +0.000 A 
ATOM     20  C   UNL     1       0.734   9.077  21.720  0.00  0.00    +0.000 A 
ATOM     21  C   UNL     1       1.017  10.210  20.945  0.00  0.00    +0.000 A 
ATOM     22  C   UNL     1       0.397  11.431  21.224  0.00  0.00    +0.000 A 
BRANCH  17  24
ATOM     23  N   UNL     1      -1.651  13.785  22.837  0.00  0.00    +0.000 NA
ATOM     24  C   UNL     1      -1.136  12.778  22.589  0.00  0.00    +0.000 C 
ENDBRANCH  17  24
ENDBRANCH   1  20
TORSDOF 3
ENDMDL
MODEL 4
REMARK VINA RESULT:      -7.7      2.522      3.103
REMARK  Name = 
REMARK  3 active torsions:
REMARK  status: ('A' for Active; 'I' for Inactive)
REMARK    1  A    between atoms: C_2  and  C_3
REMARK    2  A    between atoms: C_6  and  N_7
REMARK    3  A    between atoms: N_10  and  C_11
REMARK                            x       y       z     vdW  Elec       q    Type
REMARK                         _______ _______ _______ _____ _____    ______ ____
ROOT
ATOM      1  N   UNL     1       1.889   8.621  18.303  0.00  0.00    +0.000 N 
ATOM      2  C   UNL     1       2.114   7.714  19.323  0.00  0.00    +0.000 C 
ATOM      3  O   UNL     1       1.853   7.849  20.508  0.00  0.00    +0.000 OA
ATOM      4  N   UNL     1       2.647   6.574  18.775  0.00  0.00    +0.000 N 
ATOM      5  H   UNL     1       1.853   8.207  17.383  0.00  0.00    +0.000 HD
ATOM      6  H   UNL     1       3.276   6.779  18.013  0.00  0.00    +0.000 HD
ENDROOT
BRANCH   4   7
ATOM      7  C   UNL     1       2.909   5.310  19.464  0.00  0.00    +0.000 C 
ATOM      8  C   UNL     1       1.739   4.289  19.408  0.00  0.00    +0.000 C 
ATOM      9  C   UNL     1       1.378   3.983  17.944  0.00  0.00    +0.000 C 
ATOM     10  C   UNL     1       2.607   3.422  17.205  0.00  0.00    +0.000 C 
ATOM     11  C   UNL     1       3.038   2.109  17.879  0.00  0.00    +0.000 C 
ATOM     12  C   UNL     1       3.387   2.365  19.357  0.00  0.00    +0.000 C 
ATOM     13  C   UNL     1       2.167   2.964  20.080  0.00  0.00    +0.000 C 
ATOM     14  C   UNL     1       4.541   3.373  19.448  0.00  0.00    +0.000 C 
ATOM     15  C   UNL     1       4.143   4.687  18.765  0.00  0.00    +0.000 C 
ATOM     16  C   UNL     1       3.787   4.405  17.285  0.00  0.00    +0.000 C 
ENDBRANCH   4   7
BRANCH   1  20
ATOM     17  C   UNL     1       0.473  12.568  18.601  0.00  0.00    +0.000 A 
ATOM     18  C   UNL     1       1.831  12.341  18.362  0.00  0.00    +0.000 A 
ATOM     19  C   UNL     1       2.324  11.038  18.266  0.00  0.00    +0.000 A 
ATOM     20  C   UNL     1       1.464   9.952  18.413  0.00  0.00    +0.000 A 
ATOM     21  C   UNL     1       0.100  10.178  18.645  0.00  0.00    +0.000 A 
ATOM     22  C   UNL     1      -0.395  11.481  18.745  0.00  0.00    +0.000 A 
BRANCH  17  24
ATOM     23  N   UNL     1      -0.425  14.993  18.772  0.00  0.00    +0.000 NA
ATOM     24  C   UNL     1      -0.028  13.907  18.694  0.00  0.00    +0.000 C 
ENDBRANCH  17  24
ENDBRANCH   1  20
TORSDOF 3
ENDMDL
MODEL 5
REMARK VINA RESULT:      -7.6      2.139      2.994
REMARK  Name = 
REMARK  3 active torsions:
REMARK  status: ('A' for Active; 'I' for Inactive)
REMARK    1  A    between atoms: C_2  and  C_3
REMARK    2  A    between atoms: C_6  and  N_7
REMARK    3  A    between atoms: N_10  and  C_11
REMARK                            x       y       z     vdW  Elec       q    Type
REMARK                         _______ _______ _______ _____ _____    ______ ____
ROOT
ATOM      1  N   UNL     1       2.227   7.700  20.107  0.00  0.00    +0.000 N 
ATOM      2  C   UNL     1       2.365   7.390  18.766  0.00  0.00    +0.000 C 
ATOM      3  O   UNL     1       1.866   7.969  17.815  0.00  0.00    +0.000 OA
ATOM      4  N   UNL     1       3.221   6.323  18.657  0.00  0.00    +0.000 N 
ATOM      5  H   UNL     1       2.963   7.334  20.693  0.00  0.00    +0.000 HD
ATOM      6  H   UNL     1       3.101   5.662  19.409  0.00  0.00    +0.000 HD
ENDROOT
BRANCH   4   7
ATOM      7  C   UNL     1       3.759   5.754  17.421  0.00  0.00    +0.000 C 
ATOM      8  C   UNL     1       4.896   6.586  16.767  0.00  0.00    +0.000 C 
ATOM      9  C   UNL     1       6.053   6.769  17.765  0.00  0.00    +0.000 C 
ATOM     10  C   UNL     1       6.590   5.396  18.208  0.00  0.00    +0.000 C 
ATOM     11  C   UNL     1       7.129   4.650  16.977  0.00  0.00    +0.000 C 
ATOM     12  C   UNL     1       6.008   4.465  15.939  0.00  0.00    +0.000 C 
ATOM     13  C   UNL     1       5.448   5.839  15.531  0.00  0.00    +0.000 C 
ATOM     14  C   UNL     1       4.864   3.645  16.554  0.00  0.00    +0.000 C 
ATOM     15  C   UNL     1       4.320   4.359  17.797  0.00  0.00    +0.000 C 
ATOM     16  C   UNL     1       5.465   4.544  18.822  0.00  0.00    +0.000 C 
ENDBRANCH   4   7
BRANCH   1  20
ATOM     17  C   UNL     1      -0.375  10.424  21.972  0.00  0.00    +0.000 A 
ATOM     18  C   UNL     1      -0.185  10.492  20.589  0.00  0.00    +0.000 A 
ATOM     19  C   UNL     1       0.681   9.601  19.950  0.00  0.00    +0.000 A 
ATOM     20  C   UNL     1       1.365   8.639  20.689  0.00  0.00    +0.000 A 
ATOM     21  C   UNL     1       1.170   8.565  22.075  0.00  0.00    +0.000 A 
ATOM     22  C   UNL     1       0.307   9.458  22.717  0.00  0.00    +0.000 A 
BRANCH  17  24
ATOM     23  N   UNL     1      -1.991  12.072  23.151  0.00  0.00    +0.000 NA
ATOM     24  C   UNL     1      -1.267  11.339  22.621  0.00  0.00    +0.000 C 
ENDBRANCH  17  24
ENDBRANCH   1  20
TORSDOF 3
ENDMDL
MODEL 6
REMARK VINA RESULT:      -7.4      2.106      3.127
REMARK  Name = 
REMARK  3 active torsions:
REMARK  status: ('A' for Active; 'I' for Inactive)
REMARK    1  A    between atoms: C_2  and  C_3
REMARK    2  A    between atoms: C_6  and  N_7
REMARK    3  A    between atoms: N_10  and  C_11
REMARK                            x       y       z     vdW  Elec       q    Type
REMARK                         _______ _______ _______ _____ _____    ______ ____
ROOT
ATOM      1  N   UNL     1       2.206   7.626  20.160  0.00  0.00    +0.000 N 
ATOM      2  C   UNL     1       2.345   7.340  18.814  0.00  0.00    +0.000 C 
ATOM      3  O   UNL     1       1.838   7.930  17.873  0.00  0.00    +0.000 OA
ATOM      4  N   UNL     1       3.213   6.285  18.686  0.00  0.00    +0.000 N 
ATOM      5  H   UNL     1       2.947   7.259  20.739  0.00  0.00    +0.000 HD
ATOM      6  H   UNL     1       3.101   5.611  19.427  0.00  0.00    +0.000 HD
ENDROOT
BRANCH   4   7
ATOM      7  C   UNL     1       3.755   5.742  17.440  0.00  0.00    +0.000 C 
ATOM      8  C   UNL     1       4.892   6.590  16.806  0.00  0.00    +0.000 C 
ATOM      9  C   UNL     1       6.046   6.755  17.811  0.00  0.00    +0.000 C 
ATOM     10  C   UNL     1       6.584   5.373  18.227  0.00  0.00    +0.000 C 
ATOM     11  C   UNL     1       7.128   4.654  16.983  0.00  0.00    +0.000 C 
ATOM     12  C   UNL     1       6.010   4.488  15.938  0.00  0.00    +0.000 C 
ATOM     13  C   UNL     1       5.449   5.870  15.556  0.00  0.00    +0.000 C 
ATOM     14  C   UNL     1       4.867   3.654  16.533  0.00  0.00    +0.000 C 
ATOM     15  C   UNL     1       4.317   4.342  17.789  0.00  0.00    +0.000 C 
ATOM     16  C   UNL     1       5.460   4.507  18.820  0.00  0.00    +0.000 C 
ENDBRANCH   4   7
BRANCH   1  20
ATOM     17  C   UNL     1      -0.350  10.495  21.866  0.00  0.00    +0.000 A 
ATOM     18  C   UNL     1      -0.059   9.326  22.575  0.00  0.00    +0.000 A 
ATOM     19  C   UNL     1       0.782   8.357  22.023  0.00  0.00    +0.000 A 
ATOM     20  C   UNL     1       1.335   8.546  20.759  0.00  0.00    +0.000 A 
ATOM     21  C   UNL     1       1.049   9.722  20.050  0.00  0.00    +0.000 A 
ATOM     22  C   UNL     1       0.205  10.691  20.598  0.00  0.00    +0.000 A 
BRANCH  17  24
ATOM     23  N   UNL     1      -1.906  12.287  22.909  0.00  0.00    +0.000 NA
ATOM     24  C   UNL     1      -1.211  11.487  22.438  0.00  0.00    +0.000 C 
ENDBRANCH  17  24
ENDBRANCH   1  20
TORSDOF 3
ENDMDL
MODEL 7
REMARK VINA RESULT:      -7.3      1.390      1.747
REMARK  Name = 
REMARK  3 active torsions:
REMARK  status: ('A' for Active; 'I' for Inactive)
REMARK    1  A    between atoms: C_2  and  C_3
REMARK    2  A    between atoms: C_6  and  N_7
REMARK    3  A    between atoms: N_10  and  C_11
REMARK                            x       y       z     vdW  Elec       q    Type
REMARK                         _______ _______ _______ _____ _____    ______ ____
ROOT
ATOM      1  N   UNL     1       1.474   7.940  20.430  0.00  0.00    +0.000 N 
ATOM      2  C   UNL     1       2.300   7.219  19.587  0.00  0.00    +0.000 C 
ATOM      3  O   UNL     1       2.885   7.624  18.596  0.00  0.00    +0.000 OA
ATOM      4  N   UNL     1       2.409   5.943  20.080  0.00  0.00    +0.000 N 
ATOM      5  H   UNL     1       1.369   7.536  21.349  0.00  0.00    +0.000 HD
ATOM      6  H   UNL     1       1.545   5.617  20.484  0.00  0.00    +0.000 HD
ENDROOT
BRANCH   4   7
ATOM      7  C   UNL     1       3.291   4.885  19.586  0.00  0.00    +0.000 C 
ATOM      8  C   UNL     1       3.155   3.529  20.331  0.00  0.00    +0.000 C 
ATOM      9  C   UNL     1       1.701   3.031  20.252  0.00  0.00    +0.000 C 
ATOM     10  C   UNL     1       1.277   2.871  18.780  0.00  0.00    +0.000 C 
ATOM     11  C   UNL     1       2.182   1.824  18.112  0.00  0.00    +0.000 C 
ATOM     12  C   UNL     1       3.654   2.272  18.189  0.00  0.00    +0.000 C 
ATOM     13  C   UNL     1       4.058   2.468  19.661  0.00  0.00    +0.000 C 
ATOM     14  C   UNL     1       3.824   3.612  17.461  0.00  0.00    +0.000 C 
ATOM     15  C   UNL     1       2.917   4.672  18.098  0.00  0.00    +0.000 C 
ATOM     16  C   UNL     1       1.446   4.197  18.019  0.00  0.00    +0.000 C 
ENDBRANCH   4   7
BRANCH   1  20
ATOM     17  C   UNL     1      -0.014  11.853  20.050  0.00  0.00    +0.000 A 
ATOM     18  C   UNL     1       0.155  11.068  18.906  0.00  0.00    +0.000 A 
ATOM     19  C   UNL     1       0.654   9.767  19.009  0.00  0.00    +0.000 A 
ATOM     20  C   UNL     1       0.993   9.245  20.255  0.00  0.00    +0.000 A 
ATOM     21  C   UNL     1       0.817  10.028  21.404  0.00  0.00    +0.000 A 
ATOM     22  C   UNL     1       0.321  11.331  21.303  0.00  0.00    +0.000 A 
BRANCH  17  24
ATOM     23  N   UNL     1      -0.944  14.265  19.855  0.00  0.00    +0.000 NA
ATOM     24  C   UNL     1      -0.530  13.185  19.938  0.00  0.00    +0.000 C 
ENDBRANCH  17  24
ENDBRANCH   1  20
TORSDOF 3
ENDMDL
MODEL 8
REMARK VINA RESULT:      -7.2      1.568      2.468
REMARK  Name = 
REMARK  3 active torsions:
REMARK  status: ('A' for Active; 'I' for Inactive)
REMARK    1  A    between atoms: C_2  and  C_3
REMARK    2  A    between atoms: C_6  and  N_7
REMARK    3  A    between atoms: N_10  and  C_11
REMARK                            x       y       z     vdW  Elec       q    Type
REMARK                         _______ _______ _______ _____ _____    ______ ____
ROOT
ATOM      1  N   UNL     1       1.537   8.658  19.289  0.00  0.00    +0.000 N 
ATOM      2  C   UNL     1       1.783   7.553  20.084  0.00  0.00    +0.000 C 
ATOM      3  O   UNL     1       1.269   7.281  21.157  0.00  0.00    +0.000 OA
ATOM      4  N   UNL     1       2.688   6.750  19.437  0.00  0.00    +0.000 N 
ATOM      5  H   UNL     1       1.791   8.534  18.320  0.00  0.00    +0.000 HD
ATOM      6  H   UNL     1       3.380   7.287  18.936  0.00  0.00    +0.000 HD
ENDROOT
BRANCH   4   7
ATOM      7  C   UNL     1       3.126   5.415  19.846  0.00  0.00    +0.000 C 
ATOM      8  C   UNL     1       2.034   4.316  19.739  0.00  0.00    +0.000 C 
ATOM      9  C   UNL     1       1.508   4.237  18.295  0.00  0.00    +0.000 C 
ATOM     10  C   UNL     1       2.667   3.929  17.328  0.00  0.00    +0.000 C 
ATOM     11  C   UNL     1       3.273   2.565  17.695  0.00  0.00    +0.000 C 
ATOM     12  C   UNL     1       3.792   2.591  19.145  0.00  0.00    +0.000 C 
ATOM     13  C   UNL     1       2.638   2.939  20.102  0.00  0.00    +0.000 C 
ATOM     14  C   UNL     1       4.875   3.670  19.286  0.00  0.00    +0.000 C 
ATOM     15  C   UNL     1       4.300   5.040  18.907  0.00  0.00    +0.000 C 
ATOM     16  C   UNL     1       3.775   4.988  17.452  0.00  0.00    +0.000 C 
ENDBRANCH   4   7
BRANCH   1  20
ATOM     17  C   UNL     1      -0.798  12.064  20.078  0.00  0.00    +0.000 A 
ATOM     18  C   UNL     1       0.206  11.695  20.978  0.00  0.00    +0.000 A 
ATOM     19  C   UNL     1       0.989  10.563  20.738  0.00  0.00    +0.000 A 
ATOM     20  C   UNL     1       0.771   9.789  19.601  0.00  0.00    +0.000 A 
ATOM     21  C   UNL     1      -0.230  10.162  18.694  0.00  0.00    +0.000 A 
ATOM     22  C   UNL     1      -1.017  11.292  18.933  0.00  0.00    +0.000 A 
BRANCH  17  24
ATOM     23  N   UNL     1      -2.243  14.169  20.520  0.00  0.00    +0.000 NA
ATOM     24  C   UNL     1      -1.595  13.228  20.327  0.00  0.00    +0.000 C 
ENDBRANCH  17  24
ENDBRANCH   1  20
TORSDOF 3
ENDMDL
MODEL 9
REMARK VINA RESULT:      -7.2      0.990      1.354
REMARK  Name = 
REMARK  3 active torsions:
REMARK  status: ('A' for Active; 'I' for Inactive)
REMARK    1  A    between atoms: C_2  and  C_3
REMARK    2  A    between atoms: C_6  and  N_7
REMARK    3  A    between atoms: N_10  and  C_11
REMARK                            x       y       z     vdW  Elec       q    Type
REMARK                         _______ _______ _______ _____ _____    ______ ____
ROOT
ATOM      1  N   UNL     1       1.482   8.562  20.926  0.00  0.00    +0.000 N 
ATOM      2  C   UNL     1       1.554   8.151  19.607  0.00  0.00    +0.000 C 
ATOM      3  O   UNL     1       1.136   8.739  18.622  0.00  0.00    +0.000 OA
ATOM      4  N   UNL     1       2.239   6.963  19.563  0.00  0.00    +0.000 N 
ATOM      5  H   UNL     1       2.163   8.126  21.531  0.00  0.00    +0.000 HD
ATOM      6  H   UNL     1       2.031   6.376  20.356  0.00  0.00    +0.000 HD
ENDROOT
BRANCH   4   7
ATOM      7  C   UNL     1       2.669   6.243  18.363  0.00  0.00    +0.000 C 
ATOM      8  C   UNL     1       4.205   6.040  18.246  0.00  0.00    +0.000 C 
ATOM      9  C   UNL     1       4.731   5.290  19.483  0.00  0.00    +0.000 C 
ATOM     10  C   UNL     1       4.025   3.927  19.613  0.00  0.00    +0.000 C 
ATOM     11  C   UNL     1       4.338   3.082  18.367  0.00  0.00    +0.000 C 
ATOM     12  C   UNL     1       3.849   3.808  17.101  0.00  0.00    +0.000 C 
ATOM     13  C   UNL     1       4.527   5.186  16.998  0.00  0.00    +0.000 C 
ATOM     14  C   UNL     1       2.332   4.026  17.184  0.00  0.00    +0.000 C 
ATOM     15  C   UNL     1       1.990   4.852  18.430  0.00  0.00    +0.000 C 
ATOM     16  C   UNL     1       2.499   4.109  19.689  0.00  0.00    +0.000 C 
ENDBRANCH   4   7
BRANCH   1  20
ATOM     17  C   UNL     1      -0.727  11.744  22.556  0.00  0.00    +0.000 A 
ATOM     18  C   UNL     1       0.134  11.985  21.482  0.00  0.00    +0.000 A 
ATOM     19  C   UNL     1       0.883  10.943  20.930  0.00  0.00    +0.000 A 
ATOM     20  C   UNL     1       0.780   9.655  21.450  0.00  0.00    +0.000 A 
ATOM     21  C   UNL     1      -0.090   9.411  22.522  0.00  0.00    +0.000 A 
ATOM     22  C   UNL     1      -0.837  10.452  23.078  0.00  0.00    +0.000 A 
BRANCH  17  24
ATOM     23  N   UNL     1      -2.116  13.680  23.577  0.00  0.00    +0.000 NA
ATOM     24  C   UNL     1      -1.496  12.816  23.116  0.00  0.00    +0.000 C 
ENDBRANCH  17  24
ENDBRANCH   1  20
TORSDOF 3
ENDMDL
