MODEL 1
REMARK VINA RESULT:      -6.3      0.000      0.000
REMARK  Name = 
REMARK  9 active torsions:
REMARK  status: ('A' for Active; 'I' for Inactive)
REMARK    1  A    between atoms: C_1  and  C_2
REMARK    2  A    between atoms: C_2  and  O_3
REMARK    3  A    between atoms: O_3  and  P_4
REMARK    4  A    between atoms: P_4  and  O_6
REMARK    5  A    between atoms: P_4  and  C_9
REMARK    6  A    between atoms: O_6  and  C_7
REMARK    7  A    between atoms: C_7  and  C_8
REMARK    8  A    between atoms: C_9  and  C_10
REMARK    9  A    between atoms: C_12  and  C_13
REMARK                            x       y       z     vdW  Elec       q    Type
REMARK                         _______ _______ _______ _____ _____    ______ ____
ROOT
ATOM      1  C   UNL     1       5.310   4.332  16.993  0.00  0.00    +0.000 C 
ATOM      2  C   UNL     1       4.070   3.906  16.635  0.00  0.00    +0.000 C 
ENDROOT
BRANCH   2   3
ATOM      3  C   UNL     1       2.993   3.508  17.492  0.00  0.00    +0.000 A 
ATOM      4  C   UNL     1       1.959   4.280  18.092  0.00  0.00    +0.000 A 
ATOM      5  C   UNL     1       1.203   3.408  18.836  0.00  0.00    +0.000 A 
ATOM      6  O   UNL     1       1.672   2.143  18.703  0.00  0.00    +0.000 OA
ATOM      7  C   UNL     1       2.748   2.206  17.876  0.00  0.00    +0.000 A 
ENDBRANCH   2   3
BRANCH   1   8
ATOM      8  P   UNL     1       6.582   4.893  15.803  0.00  0.00    +0.000 P 
ATOM      9  O   UNL     1       7.744   4.418  16.706  0.00  0.00    +0.000 OA
BRANCH   8  10
ATOM     10  O   UNL     1       7.784   5.423  14.677  0.00  0.00    +0.000 OA
BRANCH  10  12
ATOM     11  C   UNL     1       6.572   4.076  13.191  0.00  0.00    +0.000 C 
ATOM     12  C   UNL     1       7.740   5.044  13.319  0.00  0.00    +0.000 C 
ENDBRANCH  10  12
ENDBRANCH   8  10
BRANCH   8  13
ATOM     13  O   UNL     1       6.233   6.477  16.150  0.00  0.00    +0.000 OA
BRANCH  13  14
ATOM     14  C   UNL     1       6.517   6.963  17.458  0.00  0.00    +0.000 C 
ATOM     15  C   UNL     1       7.649   7.970  17.381  0.00  0.00    +0.000 C 
ENDBRANCH  13  14
ENDBRANCH   8  13
ENDBRANCH   1   8
BRANCH   1  16
ATOM     16  C   UNL     1       5.616   4.319  18.482  0.00  0.00    +0.000 C 
ATOM     17  N   UNL     1       5.870   4.308  19.717  0.00  0.00    +0.000 NA
ENDBRANCH   1  16
TORSDOF 7
ENDMDL
MODEL 2
REMARK VINA RESULT:      -6.2      1.048      1.083
REMARK  Name = 
REMARK  9 active torsions:
REMARK  status: ('A' for Active; 'I' for Inactive)
REMARK    1  A    between atoms: C_1  and  C_2
REMARK    2  A    between atoms: C_2  and  O_3
REMARK    3  A    between atoms: O_3  and  P_4
REMARK    4  A    between atoms: P_4  and  O_6
REMARK    5  A    between atoms: P_4  and  C_9
REMARK    6  A    between atoms: O_6  and  C_7
REMARK    7  A    between atoms: C_7  and  C_8
REMARK    8  A    between atoms: C_9  and  C_10
REMARK    9  A    between atoms: C_12  and  C_13
REMARK                            x       y       z     vdW  Elec       q    Type
REMARK                         _______ _______ _______ _____ _____    ______ ____
ROOT
ATOM      1  C   UNL     1       5.426   4.216  17.109  0.00  0.00    +0.000 C 
ATOM      2  C   UNL     1       4.272   3.552  16.835  0.00  0.00    +0.000 C 
ENDROOT
BRANCH   2   3
ATOM      3  C   UNL     1       3.269   3.110  17.758  0.00  0.00    +0.000 A 
ATOM      4  C   UNL     1       2.122   3.783  18.264  0.00  0.00    +0.000 A 
ATOM      5  C   UNL     1       1.512   2.914  19.136  0.00  0.00    +0.000 A 
ATOM      6  O   UNL     1       2.179   1.733  19.170  0.00  0.00    +0.000 OA
ATOM      7  C   UNL     1       3.235   1.852  18.322  0.00  0.00    +0.000 A 
ENDBRANCH   2   3
BRANCH   1   8
ATOM      8  P   UNL     1       6.596   4.801  15.829  0.00  0.00    +0.000 P 
ATOM      9  O   UNL     1       7.830   4.358  16.650  0.00  0.00    +0.000 OA
BRANCH   8  10
ATOM     10  O   UNL     1       7.702   5.354  14.619  0.00  0.00    +0.000 OA
BRANCH  10  12
ATOM     11  C   UNL     1       6.437   3.955  13.229  0.00  0.00    +0.000 C 
ATOM     12  C   UNL     1       7.566   4.973  13.267  0.00  0.00    +0.000 C 
ENDBRANCH  10  12
ENDBRANCH   8  10
BRANCH   8  13
ATOM     13  O   UNL     1       6.235   6.378  16.195  0.00  0.00    +0.000 OA
BRANCH  13  14
ATOM     14  C   UNL     1       4.944   6.875  15.857  0.00  0.00    +0.000 C 
ATOM     15  C   UNL     1       4.241   7.335  17.120  0.00  0.00    +0.000 C 
ENDBRANCH  13  14
ENDBRANCH   8  13
ENDBRANCH   1   8
BRANCH   1  16
ATOM     16  C   UNL     1       5.722   4.461  18.579  0.00  0.00    +0.000 C 
ATOM     17  N   UNL     1       5.969   4.665  19.799  0.00  0.00    +0.000 NA
ENDBRANCH   1  16
TORSDOF 7
ENDMDL
MODEL 3
REMARK VINA RESULT:      -6.1      2.264      5.879
REMARK  Name = 
REMARK  9 active torsions:
REMARK  status: ('A' for Active; 'I' for Inactive)
REMARK    1  A    between atoms: C_1  and  C_2
REMARK    2  A    between atoms: C_2  and  O_3
REMARK    3  A    between atoms: O_3  and  P_4
REMARK    4  A    between atoms: P_4  and  O_6
REMARK    5  A    between atoms: P_4  and  C_9
REMARK    6  A    between atoms: O_6  and  C_7
REMARK    7  A    between atoms: C_7  and  C_8
REMARK    8  A    between atoms: C_9  and  C_10
REMARK    9  A    between atoms: C_12  and  C_13
REMARK                            x       y       z     vdW  Elec       q    Type
REMARK                         _______ _______ _______ _____ _____    ______ ____
ROOT
ATOM      1  C   UNL     1       3.980   4.051  17.934  0.00  0.00    +0.000 C 
ATOM      2  C   UNL     1       4.012   4.200  16.583  0.00  0.00    +0.000 C 
ENDROOT
BRANCH   2   3
ATOM      3  C   UNL     1       5.141   4.509  15.757  0.00  0.00    +0.000 A 
ATOM      4  C   UNL     1       6.051   3.648  15.083  0.00  0.00    +0.000 A 
ATOM      5  C   UNL     1       6.961   4.461  14.450  0.00  0.00    +0.000 A 
ATOM      6  O   UNL     1       6.649   5.765  14.651  0.00  0.00    +0.000 OA
ATOM      7  C   UNL     1       5.537   5.789  15.432  0.00  0.00    +0.000 A 
ENDBRANCH   2   3
BRANCH   1   8
ATOM      8  P   UNL     1       2.484   3.576  18.874  0.00  0.00    +0.000 P 
ATOM      9  O   UNL     1       1.967   2.665  17.736  0.00  0.00    +0.000 OA
BRANCH   8  10
ATOM     10  O   UNL     1       1.069   3.126  19.763  0.00  0.00    +0.000 OA
BRANCH  10  12
ATOM     11  C   UNL     1       2.606   2.865  21.513  0.00  0.00    +0.000 C 
ATOM     12  C   UNL     1       1.135   2.791  21.133  0.00  0.00    +0.000 C 
ENDBRANCH  10  12
ENDBRANCH   8  10
BRANCH   8  13
ATOM     13  O   UNL     1       1.857   5.099  18.681  0.00  0.00    +0.000 OA
BRANCH  13  14
ATOM     14  C   UNL     1       2.435   6.170  19.421  0.00  0.00    +0.000 C 
ATOM     15  C   UNL     1       2.482   7.410  18.549  0.00  0.00    +0.000 C 
ENDBRANCH  13  14
ENDBRANCH   8  13
ENDBRANCH   1   8
BRANCH   1  16
ATOM     16  C   UNL     1       5.287   4.310  18.666  0.00  0.00    +0.000 C 
ATOM     17  N   UNL     1       6.371   4.526  19.272  0.00  0.00    +0.000 NA
ENDBRANCH   1  16
TORSDOF 7
ENDMDL
MODEL 4
REMARK VINA RESULT:      -6.0      2.395      6.230
REMARK  Name = 
REMARK  9 active torsions:
REMARK  status: ('A' for Active; 'I' for Inactive)
REMARK    1  A    between atoms: C_1  and  C_2
REMARK    2  A    between atoms: C_2  and  O_3
REMARK    3  A    between atoms: O_3  and  P_4
REMARK    4  A    between atoms: P_4  and  O_6
REMARK    5  A    between atoms: P_4  and  C_9
REMARK    6  A    between atoms: O_6  and  C_7
REMARK    7  A    between atoms: C_7  and  C_8
REMARK    8  A    between atoms: C_9  and  C_10
REMARK    9  A    between atoms: C_12  and  C_13
REMARK                            x       y       z     vdW  Elec       q    Type
REMARK                         _______ _______ _______ _____ _____    ______ ____
ROOT
ATOM      1  C   UNL     1       4.617   4.297  18.016  0.00  0.00    +0.000 C 
ATOM      2  C   UNL     1       5.441   3.657  17.145  0.00  0.00    +0.000 C 
ENDROOT
BRANCH   2   3
ATOM      3  C   UNL     1       6.104   4.200  15.997  0.00  0.00    +0.000 A 
ATOM      4  C   UNL     1       5.793   4.085  14.613  0.00  0.00    +0.000 A 
ATOM      5  C   UNL     1       6.766   4.780  13.936  0.00  0.00    +0.000 A 
ATOM      6  O   UNL     1       7.632   5.353  14.808  0.00  0.00    +0.000 OA
ATOM      7  C   UNL     1       7.218   5.010  16.057  0.00  0.00    +0.000 A 
ENDBRANCH   2   3
BRANCH   1   8
ATOM      8  P   UNL     1       3.889   3.511  19.500  0.00  0.00    +0.000 P 
ATOM      9  O   UNL     1       5.235   2.868  19.911  0.00  0.00    +0.000 OA
BRANCH   8  10
ATOM     10  O   UNL     1       3.200   2.768  20.902  0.00  0.00    +0.000 OA
BRANCH  10  12
ATOM     11  C   UNL     1       2.053   4.804  21.084  0.00  0.00    +0.000 C 
ATOM     12  C   UNL     1       2.159   3.386  21.627  0.00  0.00    +0.000 C 
ENDBRANCH  10  12
ENDBRANCH   8  10
BRANCH   8  13
ATOM     13  O   UNL     1       3.046   2.449  18.544  0.00  0.00    +0.000 OA
BRANCH  13  14
ATOM     14  C   UNL     1       1.849   2.902  17.918  0.00  0.00    +0.000 C 
ATOM     15  C   UNL     1       0.654   2.309  18.640  0.00  0.00    +0.000 C 
ENDBRANCH  13  14
ENDBRANCH   8  13
ENDBRANCH   1   8
BRANCH   1  16
ATOM     16  C   UNL     1       4.306   5.750  17.696  0.00  0.00    +0.000 C 
ATOM     17  N   UNL     1       4.048   6.955  17.430  0.00  0.00    +0.000 NA
ENDBRANCH   1  16
TORSDOF 7
ENDMDL
MODEL 5
REMARK VINA RESULT:      -6.0      1.628      3.107
REMARK  Name = 
REMARK  9 active torsions:
REMARK  status: ('A' for Active; 'I' for Inactive)
REMARK    1  A    between atoms: C_1  and  C_2
REMARK    2  A    between atoms: C_2  and  O_3
REMARK    3  A    between atoms: O_3  and  P_4
REMARK    4  A    between atoms: P_4  and  O_6
REMARK    5  A    between atoms: P_4  and  C_9
REMARK    6  A    between atoms: O_6  and  C_7
REMARK    7  A    between atoms: C_7  and  C_8
REMARK    8  A    between atoms: C_9  and  C_10
REMARK    9  A    between atoms: C_12  and  C_13
REMARK                            x       y       z     vdW  Elec       q    Type
REMARK                         _______ _______ _______ _____ _____    ______ ____
ROOT
ATOM      1  C   UNL     1       4.243   4.846  18.306  0.00  0.00    +0.000 C 
ATOM      2  C   UNL     1       2.893   4.956  18.188  0.00  0.00    +0.000 C 
ENDROOT
BRANCH   2   3
ATOM      3  C   UNL     1       1.885   4.151  18.811  0.00  0.00    +0.000 A 
ATOM      4  C   UNL     1       1.310   4.237  20.110  0.00  0.00    +0.000 A 
ATOM      5  C   UNL     1       0.404   3.208  20.205  0.00  0.00    +0.000 A 
ATOM      6  O   UNL     1       0.349   2.518  19.039  0.00  0.00    +0.000 OA
ATOM      7  C   UNL     1       1.238   3.102  18.192  0.00  0.00    +0.000 A 
ENDBRANCH   2   3
BRANCH   1   8
ATOM      8  P   UNL     1       5.434   5.990  17.519  0.00  0.00    +0.000 P 
ATOM      9  O   UNL     1       4.311   6.908  16.980  0.00  0.00    +0.000 OA
BRANCH   8  10
ATOM     10  O   UNL     1       6.561   7.072  16.775  0.00  0.00    +0.000 OA
BRANCH  10  12
ATOM     11  C   UNL     1       7.973   6.678  18.603  0.00  0.00    +0.000 C 
ATOM     12  C   UNL     1       7.603   7.673  17.513  0.00  0.00    +0.000 C 
ENDBRANCH  10  12
ENDBRANCH   8  10
BRANCH   8  13
ATOM     13  O   UNL     1       5.801   4.848  16.374  0.00  0.00    +0.000 OA
BRANCH  13  14
ATOM     14  C   UNL     1       5.651   5.191  15.000  0.00  0.00    +0.000 C 
ATOM     15  C   UNL     1       6.120   4.032  14.142  0.00  0.00    +0.000 C 
ENDBRANCH  13  14
ENDBRANCH   8  13
ENDBRANCH   1   8
BRANCH   1  16
ATOM     16  C   UNL     1       4.747   3.684  19.147  0.00  0.00    +0.000 C 
ATOM     17  N   UNL     1       5.165   2.720  19.844  0.00  0.00    +0.000 NA
ENDBRANCH   1  16
TORSDOF 7
ENDMDL
MODEL 6
REMARK VINA RESULT:      -6.0      1.900      2.037
REMARK  Name = 
REMARK  9 active torsions:
REMARK  status: ('A' for Active; 'I' for Inactive)
REMARK    1  A    between atoms: C_1  and  C_2
REMARK    2  A    between atoms: C_2  and  O_3
REMARK    3  A    between atoms: O_3  and  P_4
REMARK    4  A    between atoms: P_4  and  O_6
REMARK    5  A    between atoms: P_4  and  C_9
REMARK    6  A    between atoms: O_6  and  C_7
REMARK    7  A    between atoms: C_7  and  C_8
REMARK    8  A    between atoms: C_9  and  C_10
REMARK    9  A    between atoms: C_12  and  C_13
REMARK                            x       y       z     vdW  Elec       q    Type
REMARK                         _______ _______ _______ _____ _____    ______ ____
ROOT
ATOM      1  C   UNL     1       4.284   5.394  17.645  0.00  0.00    +0.000 C 
ATOM      2  C   UNL     1       3.894   4.257  18.282  0.00  0.00    +0.000 C 
ENDROOT
BRANCH   2   3
ATOM      3  C   UNL     1       2.742   4.062  19.110  0.00  0.00    +0.000 A 
ATOM      4  C   UNL     1       2.531   4.370  20.483  0.00  0.00    +0.000 A 
ATOM      5  C   UNL     1       1.256   3.956  20.785  0.00  0.00    +0.000 A 
ATOM      6  O   UNL     1       0.649   3.452  19.682  0.00  0.00    +0.000 OA
ATOM      7  C   UNL     1       1.548   3.532  18.666  0.00  0.00    +0.000 A 
ENDBRANCH   2   3
BRANCH   1   8
ATOM      8  P   UNL     1       5.742   5.499  16.544  0.00  0.00    +0.000 P 
ATOM      9  O   UNL     1       6.478   4.359  17.286  0.00  0.00    +0.000 OA
BRANCH   8  10
ATOM     10  O   UNL     1       7.119   5.599  15.502  0.00  0.00    +0.000 OA
BRANCH  10  12
ATOM     11  C   UNL     1       5.816   4.244  14.104  0.00  0.00    +0.000 C 
ATOM     12  C   UNL     1       7.196   4.852  14.308  0.00  0.00    +0.000 C 
ENDBRANCH  10  12
ENDBRANCH   8  10
BRANCH   8  13
ATOM     13  O   UNL     1       6.168   6.953  17.218  0.00  0.00    +0.000 OA
BRANCH  13  14
ATOM     14  C   UNL     1       7.461   7.078  17.801  0.00  0.00    +0.000 C 
ATOM     15  C   UNL     1       7.928   8.516  17.676  0.00  0.00    +0.000 C 
ENDBRANCH  13  14
ENDBRANCH   8  13
ENDBRANCH   1   8
BRANCH   1  16
ATOM     16  C   UNL     1       3.432   6.626  17.898  0.00  0.00    +0.000 C 
ATOM     17  N   UNL     1       2.724   7.649  18.107  0.00  0.00    +0.000 NA
ENDBRANCH   1  16
TORSDOF 7
ENDMDL
MODEL 7
REMARK VINA RESULT:      -5.9      2.248      6.160
REMARK  Name = 
REMARK  9 active torsions:
REMARK  status: ('A' for Active; 'I' for Inactive)
REMARK    1  A    between atoms: C_1  and  C_2
REMARK    2  A    between atoms: C_2  and  O_3
REMARK    3  A    between atoms: O_3  and  P_4
REMARK    4  A    between atoms: P_4  and  O_6
REMARK    5  A    between atoms: P_4  and  C_9
REMARK    6  A    between atoms: O_6  and  C_7
REMARK    7  A    between atoms: C_7  and  C_8
REMARK    8  A    between atoms: C_9  and  C_10
REMARK    9  A    between atoms: C_12  and  C_13
REMARK                            x       y       z     vdW  Elec       q    Type
REMARK                         _______ _______ _______ _____ _____    ______ ____
ROOT
ATOM      1  C   UNL     1       4.906   3.944  18.437  0.00  0.00    +0.000 C 
ATOM      2  C   UNL     1       4.609   3.911  17.111  0.00  0.00    +0.000 C 
ENDROOT
BRANCH   2   3
ATOM      3  C   UNL     1       5.389   4.415  16.020  0.00  0.00    +0.000 A 
ATOM      4  C   UNL     1       6.244   3.737  15.107  0.00  0.00    +0.000 A 
ATOM      5  C   UNL     1       6.765   4.696  14.273  0.00  0.00    +0.000 A 
ATOM      6  O   UNL     1       6.258   5.915  14.581  0.00  0.00    +0.000 OA
ATOM      7  C   UNL     1       5.413   5.738  15.631  0.00  0.00    +0.000 A 
ENDBRANCH   2   3
BRANCH   1   8
ATOM      8  P   UNL     1       3.861   3.191  19.737  0.00  0.00    +0.000 P 
ATOM      9  O   UNL     1       4.998   2.258  20.215  0.00  0.00    +0.000 OA
BRANCH   8  10
ATOM     10  O   UNL     1       2.873   2.479  20.966  0.00  0.00    +0.000 OA
BRANCH  10  12
ATOM     11  C   UNL     1       2.133   4.685  21.249  0.00  0.00    +0.000 C 
ATOM     12  C   UNL     1       2.043   3.267  21.792  0.00  0.00    +0.000 C 
ENDBRANCH  10  12
ENDBRANCH   8  10
BRANCH   8  13
ATOM     13  O   UNL     1       2.961   2.408  18.584  0.00  0.00    +0.000 OA
BRANCH  13  14
ATOM     14  C   UNL     1       1.752   3.015  18.140  0.00  0.00    +0.000 C 
ATOM     15  C   UNL     1       0.573   2.211  18.654  0.00  0.00    +0.000 C 
ENDBRANCH  13  14
ENDBRANCH   8  13
ENDBRANCH   1   8
BRANCH   1  16
ATOM     16  C   UNL     1       6.189   4.665  18.816  0.00  0.00    +0.000 C 
ATOM     17  N   UNL     1       7.253   5.264  19.131  0.00  0.00    +0.000 NA
ENDBRANCH   1  16
TORSDOF 7
ENDMDL
MODEL 8
REMARK VINA RESULT:      -5.9      1.832      2.118
REMARK  Name = 
REMARK  9 active torsions:
REMARK  status: ('A' for Active; 'I' for Inactive)
REMARK    1  A    between atoms: C_1  and  C_2
REMARK    2  A    between atoms: C_2  and  O_3
REMARK    3  A    between atoms: O_3  and  P_4
REMARK    4  A    between atoms: P_4  and  O_6
REMARK    5  A    between atoms: P_4  and  C_9
REMARK    6  A    between atoms: O_6  and  C_7
REMARK    7  A    between atoms: C_7  and  C_8
REMARK    8  A    between atoms: C_9  and  C_10
REMARK    9  A    between atoms: C_12  and  C_13
REMARK                            x       y       z     vdW  Elec       q    Type
REMARK                         _______ _______ _______ _____ _____    ______ ____
ROOT
ATOM      1  C   UNL     1       4.900   5.109  17.678  0.00  0.00    +0.000 C 
ATOM      2  C   UNL     1       3.779   5.864  17.825  0.00  0.00    +0.000 C 
ENDROOT
BRANCH   2   3
ATOM      3  C   UNL     1       2.807   5.803  18.876  0.00  0.00    +0.000 A 
ATOM      4  C   UNL     1       1.959   4.737  19.287  0.00  0.00    +0.000 A 
ATOM      5  C   UNL     1       1.205   5.218  20.330  0.00  0.00    +0.000 A 
ATOM      6  O   UNL     1       1.559   6.494  20.620  0.00  0.00    +0.000 OA
ATOM      7  C   UNL     1       2.540   6.840  19.746  0.00  0.00    +0.000 A 
ENDBRANCH   2   3
BRANCH   1   8
ATOM      8  P   UNL     1       6.113   5.334  16.327  0.00  0.00    +0.000 P 
ATOM      9  O   UNL     1       7.138   4.382  16.988  0.00  0.00    +0.000 OA
BRANCH   8  10
ATOM     10  O   UNL     1       7.261   5.547  15.050  0.00  0.00    +0.000 OA
BRANCH  10  12
ATOM     11  C   UNL     1       5.832   4.094  13.894  0.00  0.00    +0.000 C 
ATOM     12  C   UNL     1       7.175   4.808  13.851  0.00  0.00    +0.000 C 
ENDBRANCH  10  12
ENDBRANCH   8  10
BRANCH   8  13
ATOM     13  O   UNL     1       6.409   6.887  16.829  0.00  0.00    +0.000 OA
BRANCH  13  14
ATOM     14  C   UNL     1       7.517   7.121  17.694  0.00  0.00    +0.000 C 
ATOM     15  C   UNL     1       7.862   8.598  17.673  0.00  0.00    +0.000 C 
ENDBRANCH  13  14
ENDBRANCH   8  13
ENDBRANCH   1   8
BRANCH   1  16
ATOM     16  C   UNL     1       5.113   4.021  18.718  0.00  0.00    +0.000 C 
ATOM     17  N   UNL     1       5.290   3.118  19.580  0.00  0.00    +0.000 NA
ENDBRANCH   1  16
TORSDOF 7
ENDMDL
MODEL 9
REMARK VINA RESULT:      -5.9      1.566      1.602
REMARK  Name = 
REMARK  9 active torsions:
REMARK  status: ('A' for Active; 'I' for Inactive)
REMARK    1  A    between atoms: C_1  and  C_2
REMARK    2  A    between atoms: C_2  and  O_3
REMARK    3  A    between atoms: O_3  and  P_4
REMARK    4  A    between atoms: P_4  and  O_6
REMARK    5  A    between atoms: P_4  and  C_9
REMARK    6  A    between atoms: O_6  and  C_7
REMARK    7  A    between atoms: C_7  and  C_8
REMARK    8  A    between atoms: C_9  and  C_10
REMARK    9  A    between atoms: C_12  and  C_13
REMARK                            x       y       z     vdW  Elec       q    Type
REMARK                         _______ _______ _______ _____ _____    ______ ____
ROOT
ATOM      1  C   UNL     1       4.581   4.874  17.266  0.00  0.00    +0.000 C 
ATOM      2  C   UNL     1       4.166   3.650  17.688  0.00  0.00    +0.000 C 
ENDROOT
BRANCH   2   3
ATOM      3  C   UNL     1       3.030   3.337  18.504  0.00  0.00    +0.000 A 
ATOM      4  C   UNL     1       1.658   3.196  18.157  0.00  0.00    +0.000 A 
ATOM      5  C   UNL     1       0.987   2.914  19.323  0.00  0.00    +0.000 A 
ATOM      6  O   UNL     1       1.857   2.829  20.359  0.00  0.00    +0.000 OA
ATOM      7  C   UNL     1       3.096   3.072  19.856  0.00  0.00    +0.000 A 
ENDBRANCH   2   3
BRANCH   1   8
ATOM      8  P   UNL     1       6.010   5.140  16.155  0.00  0.00    +0.000 P 
ATOM      9  O   UNL     1       6.917   4.188  16.971  0.00  0.00    +0.000 OA
BRANCH   8  10
ATOM     10  O   UNL     1       7.362   5.392  15.104  0.00  0.00    +0.000 OA
BRANCH  10  12
ATOM     11  C   UNL     1       6.199   3.962  13.657  0.00  0.00    +0.000 C 
ATOM     12  C   UNL     1       7.340   4.963  13.760  0.00  0.00    +0.000 C 
ENDBRANCH  10  12
ENDBRANCH   8  10
BRANCH   8  13
ATOM     13  O   UNL     1       6.189   6.687  16.727  0.00  0.00    +0.000 OA
BRANCH  13  14
ATOM     14  C   UNL     1       7.502   7.159  17.011  0.00  0.00    +0.000 C 
ATOM     15  C   UNL     1       7.829   6.878  18.465  0.00  0.00    +0.000 C 
ENDBRANCH  13  14
ENDBRANCH   8  13
ENDBRANCH   1   8
BRANCH   1  16
ATOM     16  C   UNL     1       3.784   6.062  17.777  0.00  0.00    +0.000 C 
ATOM     17  N   UNL     1       3.123   7.049  18.202  0.00  0.00    +0.000 NA
ENDBRANCH   1  16
TORSDOF 7
ENDMDL
