MODEL 1
REMARK VINA RESULT:      -7.4      0.000      0.000
REMARK  Name = 
REMARK  3 active torsions:
REMARK  status: ('A' for Active; 'I' for Inactive)
REMARK    1  A    between atoms: C_1  and  N_2
REMARK    2  A    between atoms: C_10  and  C_11
REMARK    3  A    between atoms: N_13  and  C_14
REMARK                            x       y       z     vdW  Elec       q    Type
REMARK                         _______ _______ _______ _____ _____    ______ ____
ROOT
ATOM      1  C   UNL     1       5.141   4.043  16.092  0.00  0.00    +0.000 C 
ATOM      2  N   UNL     1       6.224   4.711  16.805  0.00  0.00    +0.000 NA
ATOM      3  C   UNL     1       6.412   6.097  16.313  0.00  0.00    +0.000 C 
ATOM      4  C   UNL     1       7.333   6.859  17.216  0.00  0.00    +0.000 A 
ATOM      5  N   UNL     1       7.673   8.177  17.052  0.00  0.00    +0.000 NA
ATOM      6  C   UNL     1       8.326   8.505  18.147  0.00  0.00    +0.000 A 
ATOM      7  N   UNL     1       8.408   7.458  19.029  0.00  0.00    +0.000 N 
ATOM      8  C   UNL     1       7.750   6.415  18.451  0.00  0.00    +0.000 A 
ATOM      9  C   UNL     1       7.384   5.103  19.042  0.00  0.00    +0.000 C 
ATOM     10  C   UNL     1       6.141   4.530  18.294  0.00  0.00    +0.000 C 
ATOM     11  H   UNL     1       8.819   7.489  19.951  0.00  0.00    +0.000 HD
ENDROOT
BRANCH  10  12
ATOM     12  C   UNL     1       4.810   5.049  18.916  0.00  0.00    +0.000 C 
ATOM     13  O   UNL     1       4.507   6.236  18.887  0.00  0.00    +0.000 OA
ATOM     14  N   UNL     1       4.024   4.092  19.514  0.00  0.00    +0.000 N 
ATOM     15  H   UNL     1       4.338   3.135  19.461  0.00  0.00    +0.000 HD
BRANCH  14  16
ATOM     16  C   UNL     1       2.786   4.302  20.252  0.00  0.00    +0.000 C 
ATOM     17  C   UNL     1       1.728   4.875  19.290  0.00  0.00    +0.000 C 
ATOM     18  C   UNL     1       1.347   3.873  18.193  0.00  0.00    +0.000 C 
ATOM     19  C   UNL     1       0.930   2.516  18.759  0.00  0.00    +0.000 C 
ATOM     20  C   UNL     1       1.891   1.973  19.813  0.00  0.00    +0.000 C 
ATOM     21  C   UNL     1       2.241   3.013  20.876  0.00  0.00    +0.000 C 
ENDBRANCH  14  16
ENDBRANCH  10  12
TORSDOF 2
ENDMDL
MODEL 2
REMARK VINA RESULT:      -7.3      0.823      1.418
REMARK  Name = 
REMARK  3 active torsions:
REMARK  status: ('A' for Active; 'I' for Inactive)
REMARK    1  A    between atoms: C_1  and  N_2
REMARK    2  A    between atoms: C_10  and  C_11
REMARK    3  A    between atoms: N_13  and  C_14
REMARK                            x       y       z     vdW  Elec       q    Type
REMARK                         _______ _______ _______ _____ _____    ______ ____
ROOT
ATOM      1  C   UNL     1       4.992   3.951  15.382  0.00  0.00    +0.000 C 
ATOM      2  N   UNL     1       5.971   4.462  16.336  0.00  0.00    +0.000 NA
ATOM      3  C   UNL     1       6.453   5.806  15.939  0.00  0.00    +0.000 C 
ATOM      4  C   UNL     1       7.246   6.433  17.044  0.00  0.00    +0.000 A 
ATOM      5  N   UNL     1       7.791   7.690  16.998  0.00  0.00    +0.000 NA
ATOM      6  C   UNL     1       8.223   7.925  18.219  0.00  0.00    +0.000 A 
ATOM      7  N   UNL     1       7.962   6.880  19.067  0.00  0.00    +0.000 N 
ATOM      8  C   UNL     1       7.312   5.938  18.327  0.00  0.00    +0.000 A 
ATOM      9  C   UNL     1       6.647   4.692  18.785  0.00  0.00    +0.000 C 
ATOM     10  C   UNL     1       5.534   4.298  17.764  0.00  0.00    +0.000 C 
ATOM     11  H   UNL     1       8.157   6.855  20.058  0.00  0.00    +0.000 HD
ENDROOT
BRANCH  10  12
ATOM     12  C   UNL     1       4.183   5.000  18.092  0.00  0.00    +0.000 C 
ATOM     13  O   UNL     1       4.028   6.205  17.930  0.00  0.00    +0.000 OA
ATOM     14  N   UNL     1       3.197   4.182  18.593  0.00  0.00    +0.000 N 
ATOM     15  H   UNL     1       3.403   3.197  18.663  0.00  0.00    +0.000 HD
BRANCH  14  16
ATOM     16  C   UNL     1       1.880   4.579  19.072  0.00  0.00    +0.000 C 
ATOM     17  C   UNL     1       0.937   3.363  18.988  0.00  0.00    +0.000 C 
ATOM     18  C   UNL     1       1.363   2.240  19.943  0.00  0.00    +0.000 C 
ATOM     19  C   UNL     1       1.540   2.729  21.379  0.00  0.00    +0.000 C 
ATOM     20  C   UNL     1       2.364   4.008  21.492  0.00  0.00    +0.000 C 
ATOM     21  C   UNL     1       1.902   5.089  20.517  0.00  0.00    +0.000 C 
ENDBRANCH  14  16
ENDBRANCH  10  12
TORSDOF 2
ENDMDL
MODEL 3
REMARK VINA RESULT:      -7.2      1.785      3.080
REMARK  Name = 
REMARK  3 active torsions:
REMARK  status: ('A' for Active; 'I' for Inactive)
REMARK    1  A    between atoms: C_1  and  N_2
REMARK    2  A    between atoms: C_10  and  C_11
REMARK    3  A    between atoms: N_13  and  C_14
REMARK                            x       y       z     vdW  Elec       q    Type
REMARK                         _______ _______ _______ _____ _____    ______ ____
ROOT
ATOM      1  C   UNL     1       7.482   5.748  19.860  0.00  0.00    +0.000 C 
ATOM      2  N   UNL     1       6.846   5.874  18.553  0.00  0.00    +0.000 NA
ATOM      3  C   UNL     1       7.626   5.169  17.508  0.00  0.00    +0.000 C 
ATOM      4  C   UNL     1       6.844   5.074  16.235  0.00  0.00    +0.000 A 
ATOM      5  N   UNL     1       7.278   4.445  15.097  0.00  0.00    +0.000 NA
ATOM      6  C   UNL     1       6.233   4.418  14.296  0.00  0.00    +0.000 A 
ATOM      7  N   UNL     1       5.127   4.986  14.875  0.00  0.00    +0.000 N 
ATOM      8  C   UNL     1       5.506   5.380  16.123  0.00  0.00    +0.000 A 
ATOM      9  C   UNL     1       4.662   5.888  17.235  0.00  0.00    +0.000 C 
ATOM     10  C   UNL     1       5.370   5.594  18.594  0.00  0.00    +0.000 C 
ATOM     11  H   UNL     1       4.203   5.035  14.470  0.00  0.00    +0.000 HD
ENDROOT
BRANCH  10  12
ATOM     12  C   UNL     1       5.014   4.175  19.129  0.00  0.00    +0.000 C 
ATOM     13  O   UNL     1       5.756   3.216  18.950  0.00  0.00    +0.000 OA
ATOM     14  N   UNL     1       3.811   4.076  19.787  0.00  0.00    +0.000 N 
ATOM     15  H   UNL     1       3.281   4.924  19.916  0.00  0.00    +0.000 HD
BRANCH  14  16
ATOM     16  C   UNL     1       3.184   2.866  20.304  0.00  0.00    +0.000 C 
ATOM     17  C   UNL     1       1.952   3.265  21.138  0.00  0.00    +0.000 C 
ATOM     18  C   UNL     1       0.862   3.915  20.277  0.00  0.00    +0.000 C 
ATOM     19  C   UNL     1       0.483   3.060  19.069  0.00  0.00    +0.000 C 
ATOM     20  C   UNL     1       1.686   2.538  18.288  0.00  0.00    +0.000 C 
ATOM     21  C   UNL     1       2.741   1.907  19.194  0.00  0.00    +0.000 C 
ENDBRANCH  14  16
ENDBRANCH  10  12
TORSDOF 2
ENDMDL
MODEL 4
REMARK VINA RESULT:      -6.6      2.017      3.281
REMARK  Name = 
REMARK  3 active torsions:
REMARK  status: ('A' for Active; 'I' for Inactive)
REMARK    1  A    between atoms: C_1  and  N_2
REMARK    2  A    between atoms: C_10  and  C_11
REMARK    3  A    between atoms: N_13  and  C_14
REMARK                            x       y       z     vdW  Elec       q    Type
REMARK                         _______ _______ _______ _____ _____    ______ ____
ROOT
ATOM      1  C   UNL     1       6.311   5.266  19.605  0.00  0.00    +0.000 C 
ATOM      2  N   UNL     1       6.246   5.673  18.205  0.00  0.00    +0.000 NA
ATOM      3  C   UNL     1       7.287   4.991  17.401  0.00  0.00    +0.000 C 
ATOM      4  C   UNL     1       7.051   5.203  15.938  0.00  0.00    +0.000 A 
ATOM      5  N   UNL     1       7.819   4.666  14.937  0.00  0.00    +0.000 NA
ATOM      6  C   UNL     1       7.168   4.927  13.823  0.00  0.00    +0.000 A 
ATOM      7  N   UNL     1       5.993   5.594  14.059  0.00  0.00    +0.000 N 
ATOM      8  C   UNL     1       5.902   5.746  15.409  0.00  0.00    +0.000 A 
ATOM      9  C   UNL     1       4.755   6.239  16.215  0.00  0.00    +0.000 C 
ATOM     10  C   UNL     1       4.848   5.649  17.656  0.00  0.00    +0.000 C 
ATOM     11  H   UNL     1       5.308   5.855  13.364  0.00  0.00    +0.000 HD
ENDROOT
BRANCH  10  12
ATOM     12  C   UNL     1       4.160   4.254  17.748  0.00  0.00    +0.000 C 
ATOM     13  O   UNL     1       4.611   3.275  17.162  0.00  0.00    +0.000 OA
ATOM     14  N   UNL     1       3.013   4.208  18.505  0.00  0.00    +0.000 N 
ATOM     15  H   UNL     1       2.735   5.054  18.977  0.00  0.00    +0.000 HD
BRANCH  14  16
ATOM     16  C   UNL     1       2.120   3.071  18.686  0.00  0.00    +0.000 C 
ATOM     17  C   UNL     1       2.818   2.032  19.583  0.00  0.00    +0.000 C 
ATOM     18  C   UNL     1       3.046   2.562  21.004  0.00  0.00    +0.000 C 
ATOM     19  C   UNL     1       1.765   3.099  21.641  0.00  0.00    +0.000 C 
ATOM     20  C   UNL     1       0.977   4.036  20.730  0.00  0.00    +0.000 C 
ATOM     21  C   UNL     1       0.785   3.462  19.327  0.00  0.00    +0.000 C 
ENDBRANCH  14  16
ENDBRANCH  10  12
TORSDOF 2
ENDMDL
MODEL 5
REMARK VINA RESULT:      -6.6      1.821      6.241
REMARK  Name = 
REMARK  3 active torsions:
REMARK  status: ('A' for Active; 'I' for Inactive)
REMARK    1  A    between atoms: C_1  and  N_2
REMARK    2  A    between atoms: C_10  and  C_11
REMARK    3  A    between atoms: N_13  and  C_14
REMARK                            x       y       z     vdW  Elec       q    Type
REMARK                         _______ _______ _______ _____ _____    ______ ____
ROOT
ATOM      1  C   UNL     1       3.314   6.991  17.848  0.00  0.00    +0.000 C 
ATOM      2  N   UNL     1       2.581   6.026  18.660  0.00  0.00    +0.000 NA
ATOM      3  C   UNL     1       1.937   4.994  17.813  0.00  0.00    +0.000 C 
ATOM      4  C   UNL     1       1.416   3.868  18.653  0.00  0.00    +0.000 A 
ATOM      5  N   UNL     1       0.805   2.745  18.159  0.00  0.00    +0.000 NA
ATOM      6  C   UNL     1       0.684   1.936  19.190  0.00  0.00    +0.000 A 
ATOM      7  N   UNL     1       1.212   2.478  20.334  0.00  0.00    +0.000 N 
ATOM      8  C   UNL     1       1.706   3.699  19.988  0.00  0.00    +0.000 A 
ATOM      9  C   UNL     1       2.537   4.630  20.794  0.00  0.00    +0.000 C 
ATOM     10  C   UNL     1       3.375   5.532  19.836  0.00  0.00    +0.000 C 
ATOM     11  H   UNL     1       1.276   2.022  21.233  0.00  0.00    +0.000 HD
ENDROOT
BRANCH  10  12
ATOM     12  C   UNL     1       4.723   4.855  19.445  0.00  0.00    +0.000 C 
ATOM     13  O   UNL     1       4.838   3.636  19.392  0.00  0.00    +0.000 OA
ATOM     14  N   UNL     1       5.765   5.716  19.191  0.00  0.00    +0.000 N 
ATOM     15  H   UNL     1       5.570   6.704  19.227  0.00  0.00    +0.000 HD
BRANCH  14  16
ATOM     16  C   UNL     1       7.149   5.364  18.901  0.00  0.00    +0.000 C 
ATOM     17  C   UNL     1       7.205   4.671  17.526  0.00  0.00    +0.000 C 
ATOM     18  C   UNL     1       6.811   5.621  16.389  0.00  0.00    +0.000 C 
ATOM     19  C   UNL     1       7.614   6.921  16.407  0.00  0.00    +0.000 C 
ATOM     20  C   UNL     1       7.689   7.573  17.785  0.00  0.00    +0.000 C 
ATOM     21  C   UNL     1       8.079   6.581  18.880  0.00  0.00    +0.000 C 
ENDBRANCH  14  16
ENDBRANCH  10  12
TORSDOF 2
ENDMDL
MODEL 6
REMARK VINA RESULT:      -6.6      2.057      3.138
REMARK  Name = 
REMARK  3 active torsions:
REMARK  status: ('A' for Active; 'I' for Inactive)
REMARK    1  A    between atoms: C_1  and  N_2
REMARK    2  A    between atoms: C_10  and  C_11
REMARK    3  A    between atoms: N_13  and  C_14
REMARK                            x       y       z     vdW  Elec       q    Type
REMARK                         _______ _______ _______ _____ _____    ______ ____
ROOT
ATOM      1  C   UNL     1       2.609   6.407  19.005  0.00  0.00    +0.000 C 
ATOM      2  N   UNL     1       3.873   6.223  18.301  0.00  0.00    +0.000 NA
ATOM      3  C   UNL     1       4.967   5.889  19.243  0.00  0.00    +0.000 C 
ATOM      4  C   UNL     1       6.189   5.445  18.501  0.00  0.00    +0.000 A 
ATOM      5  N   UNL     1       7.354   5.031  19.093  0.00  0.00    +0.000 NA
ATOM      6  C   UNL     1       8.089   4.549  18.113  0.00  0.00    +0.000 A 
ATOM      7  N   UNL     1       7.440   4.612  16.906  0.00  0.00    +0.000 N 
ATOM      8  C   UNL     1       6.216   5.157  17.155  0.00  0.00    +0.000 A 
ATOM      9  C   UNL     1       5.053   5.288  16.242  0.00  0.00    +0.000 C 
ATOM     10  C   UNL     1       3.742   5.350  17.085  0.00  0.00    +0.000 C 
ATOM     11  H   UNL     1       7.787   4.258  16.025  0.00  0.00    +0.000 HD
ENDROOT
BRANCH  10  12
ATOM     12  C   UNL     1       3.190   3.926  17.392  0.00  0.00    +0.000 C 
ATOM     13  O   UNL     1       2.481   3.325  16.591  0.00  0.00    +0.000 OA
ATOM     14  N   UNL     1       3.534   3.409  18.619  0.00  0.00    +0.000 N 
ATOM     15  H   UNL     1       4.147   3.961  19.199  0.00  0.00    +0.000 HD
BRANCH  14  16
ATOM     16  C   UNL     1       3.085   2.153  19.205  0.00  0.00    +0.000 C 
ATOM     17  C   UNL     1       3.447   2.149  20.702  0.00  0.00    +0.000 C 
ATOM     18  C   UNL     1       2.678   3.224  21.481  0.00  0.00    +0.000 C 
ATOM     19  C   UNL     1       1.169   3.142  21.257  0.00  0.00    +0.000 C 
ATOM     20  C   UNL     1       0.775   3.016  19.788  0.00  0.00    +0.000 C 
ATOM     21  C   UNL     1       1.575   1.936  19.060  0.00  0.00    +0.000 C 
ENDBRANCH  14  16
ENDBRANCH  10  12
TORSDOF 2
ENDMDL
MODEL 7
REMARK VINA RESULT:      -6.4      2.288      5.467
REMARK  Name = 
REMARK  3 active torsions:
REMARK  status: ('A' for Active; 'I' for Inactive)
REMARK    1  A    between atoms: C_1  and  N_2
REMARK    2  A    between atoms: C_10  and  C_11
REMARK    3  A    between atoms: N_13  and  C_14
REMARK                            x       y       z     vdW  Elec       q    Type
REMARK                         _______ _______ _______ _____ _____    ______ ____
ROOT
ATOM      1  C   UNL     1       2.595   2.580  21.410  0.00  0.00    +0.000 C 
ATOM      2  N   UNL     1       2.215   3.555  20.393  0.00  0.00    +0.000 NA
ATOM      3  C   UNL     1       2.307   4.938  20.918  0.00  0.00    +0.000 C 
ATOM      4  C   UNL     1       2.176   5.936  19.809  0.00  0.00    +0.000 A 
ATOM      5  N   UNL     1       2.259   7.294  19.968  0.00  0.00    +0.000 NA
ATOM      6  C   UNL     1       2.290   7.785  18.747  0.00  0.00    +0.000 A 
ATOM      7  N   UNL     1       2.252   6.798  17.796  0.00  0.00    +0.000 N 
ATOM      8  C   UNL     1       2.209   5.615  18.471  0.00  0.00    +0.000 A 
ATOM      9  C   UNL     1       2.333   4.234  17.938  0.00  0.00    +0.000 C 
ATOM     10  C   UNL     1       2.865   3.295  19.064  0.00  0.00    +0.000 C 
ATOM     11  H   UNL     1       2.314   6.932  16.796  0.00  0.00    +0.000 HD
ENDROOT
BRANCH  10  12
ATOM     12  C   UNL     1       4.422   3.288  19.116  0.00  0.00    +0.000 C 
ATOM     13  O   UNL     1       5.033   2.651  19.967  0.00  0.00    +0.000 OA
ATOM     14  N   UNL     1       5.049   4.058  18.166  0.00  0.00    +0.000 N 
ATOM     15  H   UNL     1       4.466   4.522  17.486  0.00  0.00    +0.000 HD
BRANCH  14  16
ATOM     16  C   UNL     1       6.478   4.314  18.039  0.00  0.00    +0.000 C 
ATOM     17  C   UNL     1       6.861   4.248  16.548  0.00  0.00    +0.000 C 
ATOM     18  C   UNL     1       6.204   5.372  15.737  0.00  0.00    +0.000 C 
ATOM     19  C   UNL     1       6.464   6.754  16.335  0.00  0.00    +0.000 C 
ATOM     20  C   UNL     1       6.218   6.826  17.839  0.00  0.00    +0.000 C 
ATOM     21  C   UNL     1       6.888   5.680  18.596  0.00  0.00    +0.000 C 
ENDBRANCH  14  16
ENDBRANCH  10  12
TORSDOF 2
ENDMDL
MODEL 8
REMARK VINA RESULT:      -6.3      2.430      6.179
REMARK  Name = 
REMARK  3 active torsions:
REMARK  status: ('A' for Active; 'I' for Inactive)
REMARK    1  A    between atoms: C_1  and  N_2
REMARK    2  A    between atoms: C_10  and  C_11
REMARK    3  A    between atoms: N_13  and  C_14
REMARK                            x       y       z     vdW  Elec       q    Type
REMARK                         _______ _______ _______ _____ _____    ______ ____
ROOT
ATOM      1  C   UNL     1       4.457   2.170  17.058  0.00  0.00    +0.000 C 
ATOM      2  N   UNL     1       3.340   2.166  17.997  0.00  0.00    +0.000 NA
ATOM      3  C   UNL     1       3.820   2.111  19.398  0.00  0.00    +0.000 C 
ATOM      4  C   UNL     1       2.697   2.373  20.354  0.00  0.00    +0.000 A 
ATOM      5  N   UNL     1       2.829   2.429  21.717  0.00  0.00    +0.000 NA
ATOM      6  C   UNL     1       1.670   2.870  22.159  0.00  0.00    +0.000 A 
ATOM      7  N   UNL     1       0.794   3.126  21.136  0.00  0.00    +0.000 N 
ATOM      8  C   UNL     1       1.455   2.837  19.981  0.00  0.00    +0.000 A 
ATOM      9  C   UNL     1       1.040   3.100  18.580  0.00  0.00    +0.000 C 
ATOM     10  C   UNL     1       2.309   3.211  17.679  0.00  0.00    +0.000 C 
ATOM     11  H   UNL     1      -0.134   3.516  21.232  0.00  0.00    +0.000 HD
ENDROOT
BRANCH  10  12
ATOM     12  C   UNL     1       2.871   4.664  17.660  0.00  0.00    +0.000 C 
ATOM     13  O   UNL     1       2.188   5.622  18.006  0.00  0.00    +0.000 OA
ATOM     14  N   UNL     1       4.164   4.792  17.210  0.00  0.00    +0.000 N 
ATOM     15  H   UNL     1       4.660   3.946  16.977  0.00  0.00    +0.000 HD
BRANCH  14  16
ATOM     16  C   UNL     1       4.906   6.028  16.996  0.00  0.00    +0.000 C 
ATOM     17  C   UNL     1       6.257   5.926  17.728  0.00  0.00    +0.000 C 
ATOM     18  C   UNL     1       7.155   4.839  17.126  0.00  0.00    +0.000 C 
ATOM     19  C   UNL     1       7.333   4.996  15.617  0.00  0.00    +0.000 C 
ATOM     20  C   UNL     1       6.023   5.228  14.868  0.00  0.00    +0.000 C 
ATOM     21  C   UNL     1       5.166   6.315  15.514  0.00  0.00    +0.000 C 
ENDBRANCH  14  16
ENDBRANCH  10  12
TORSDOF 2
ENDMDL
MODEL 9
REMARK VINA RESULT:      -6.3      1.657      3.082
REMARK  Name = 
REMARK  3 active torsions:
REMARK  status: ('A' for Active; 'I' for Inactive)
REMARK    1  A    between atoms: C_1  and  N_2
REMARK    2  A    between atoms: C_10  and  C_11
REMARK    3  A    between atoms: N_13  and  C_14
REMARK                            x       y       z     vdW  Elec       q    Type
REMARK                         _______ _______ _______ _____ _____    ______ ____
ROOT
ATOM      1  C   UNL     1       7.894   5.815  19.468  0.00  0.00    +0.000 C 
ATOM      2  N   UNL     1       7.168   5.892  18.205  0.00  0.00    +0.000 NA
ATOM      3  C   UNL     1       7.652   4.871  17.247  0.00  0.00    +0.000 C 
ATOM      4  C   UNL     1       6.737   4.777  16.064  0.00  0.00    +0.000 A 
ATOM      5  N   UNL     1       6.893   3.897  15.025  0.00  0.00    +0.000 NA
ATOM      6  C   UNL     1       5.790   4.003  14.313  0.00  0.00    +0.000 A 
ATOM      7  N   UNL     1       4.911   4.903  14.860  0.00  0.00    +0.000 N 
ATOM      8  C   UNL     1       5.500   5.377  15.993  0.00  0.00    +0.000 A 
ATOM      9  C   UNL     1       4.918   6.236  17.055  0.00  0.00    +0.000 C 
ATOM     10  C   UNL     1       5.680   5.987  18.393  0.00  0.00    +0.000 C 
ATOM     11  H   UNL     1       3.985   5.112  14.515  0.00  0.00    +0.000 HD
ENDROOT
BRANCH  10  12
ATOM     12  C   UNL     1       5.069   4.795  19.187  0.00  0.00    +0.000 C 
ATOM     13  O   UNL     1       5.735   3.805  19.474  0.00  0.00    +0.000 OA
ATOM     14  N   UNL     1       3.740   4.922  19.517  0.00  0.00    +0.000 N 
ATOM     15  H   UNL     1       3.281   5.784  19.268  0.00  0.00    +0.000 HD
BRANCH  14  16
ATOM     16  C   UNL     1       2.894   3.930  20.167  0.00  0.00    +0.000 C 
ATOM     17  C   UNL     1       1.441   4.137  19.698  0.00  0.00    +0.000 C 
ATOM     18  C   UNL     1       1.275   3.851  18.200  0.00  0.00    +0.000 C 
ATOM     19  C   UNL     1       1.813   2.478  17.804  0.00  0.00    +0.000 C 
ATOM     20  C   UNL     1       3.204   2.183  18.359  0.00  0.00    +0.000 C 
ATOM     21  C   UNL     1       3.315   2.491  19.851  0.00  0.00    +0.000 C 
ENDBRANCH  14  16
ENDBRANCH  10  12
TORSDOF 2
ENDMDL
