MODEL 1
REMARK VINA RESULT:      -8.6      0.000      0.000
REMARK  Name = 
REMARK  3 active torsions:
REMARK  status: ('A' for Active; 'I' for Inactive)
REMARK    1  A    between atoms: C_1  and  S_2
REMARK    2  A    between atoms: S_2  and  C_5
REMARK    3  A    between atoms: C_8  and  C_9
REMARK                            x       y       z     vdW  Elec       q    Type
REMARK                         _______ _______ _______ _____ _____    ______ ____
ROOT
ATOM      1  C   UNL     1       3.643   6.504  18.300  0.00  0.00    +0.000 C 
ATOM      2  C   UNL     1       4.365   6.786  16.956  0.00  0.00    +0.000 C 
ATOM      3  N   UNL     1       5.552   5.935  16.700  0.00  0.00    +0.000 NA
ATOM      4  C   UNL     1       6.787   6.507  17.251  0.00  0.00    +0.000 C 
ATOM      5  C   UNL     1       6.959   5.925  18.640  0.00  0.00    +0.000 C 
ATOM      6  C   UNL     1       6.307   4.553  18.550  0.00  0.00    +0.000 C 
ATOM      7  C   UNL     1       5.426   4.573  17.281  0.00  0.00    +0.000 C 
ATOM      8  C   UNL     1       3.997   4.148  17.593  0.00  0.00    +0.000 A 
ATOM      9  C   UNL     1       3.538   2.859  17.309  0.00  0.00    +0.000 A 
ATOM     10  C   UNL     1       2.255   2.474  17.699  0.00  0.00    +0.000 A 
ATOM     11  C   UNL     1       1.446   3.355  18.415  0.00  0.00    +0.000 A 
ATOM     12  C   UNL     1       1.883   4.651  18.684  0.00  0.00    +0.000 A 
ATOM     13  C   UNL     1       3.131   5.074  18.220  0.00  0.00    +0.000 A 
ENDROOT
BRANCH   1  17
ATOM     14  C   UNL     1       0.830   9.639  19.232  0.00  0.00    +0.000 A 
ATOM     15  C   UNL     1       1.177   8.727  20.231  0.00  0.00    +0.000 A 
ATOM     16  C   UNL     1       2.082   7.701  19.948  0.00  0.00    +0.000 A 
ATOM     17  C   UNL     1       2.647   7.590  18.667  0.00  0.00    +0.000 A 
ATOM     18  C   UNL     1       2.269   8.512  17.674  0.00  0.00    +0.000 A 
ATOM     19  C   UNL     1       1.361   9.531  17.949  0.00  0.00    +0.000 A 
BRANCH  14  21
ATOM     20  C   UNL     1      -1.727  10.496  18.498  0.00  0.00    +0.000 C 
ATOM     21  S   UNL     1      -0.371  10.908  19.562  0.00  0.00    +0.000 S 
ATOM     22  O   UNL     1       0.193  12.168  19.109  0.00  0.00    +0.000 OA
ATOM     23  O   UNL     1      -0.812  10.745  20.934  0.00  0.00    +0.000 OA
ENDBRANCH  14  21
ENDBRANCH   1  17
TORSDOF 2
ENDMDL
MODEL 2
REMARK VINA RESULT:      -8.5      0.763      1.397
REMARK  Name = 
REMARK  3 active torsions:
REMARK  status: ('A' for Active; 'I' for Inactive)
REMARK    1  A    between atoms: C_1  and  S_2
REMARK    2  A    between atoms: S_2  and  C_5
REMARK    3  A    between atoms: C_8  and  C_9
REMARK                            x       y       z     vdW  Elec       q    Type
REMARK                         _______ _______ _______ _____ _____    ______ ____
ROOT
ATOM      1  C   UNL     1       3.611   6.517  18.278  0.00  0.00    +0.000 C 
ATOM      2  C   UNL     1       4.351   6.805  16.945  0.00  0.00    +0.000 C 
ATOM      3  N   UNL     1       5.548   5.962  16.707  0.00  0.00    +0.000 NA
ATOM      4  C   UNL     1       6.770   6.542  17.277  0.00  0.00    +0.000 C 
ATOM      5  C   UNL     1       6.925   5.961  18.669  0.00  0.00    +0.000 C 
ATOM      6  C   UNL     1       6.284   4.585  18.568  0.00  0.00    +0.000 C 
ATOM      7  C   UNL     1       5.422   4.598  17.285  0.00  0.00    +0.000 C 
ATOM      8  C   UNL     1       3.992   4.164  17.576  0.00  0.00    +0.000 A 
ATOM      9  C   UNL     1       3.546   2.871  17.284  0.00  0.00    +0.000 A 
ATOM     10  C   UNL     1       2.260   2.478  17.654  0.00  0.00    +0.000 A 
ATOM     11  C   UNL     1       1.434   3.352  18.358  0.00  0.00    +0.000 A 
ATOM     12  C   UNL     1       1.858   4.652  18.634  0.00  0.00    +0.000 A 
ATOM     13  C   UNL     1       3.110   5.083  18.190  0.00  0.00    +0.000 A 
ENDROOT
BRANCH   1  17
ATOM     14  C   UNL     1       0.731   9.531  19.387  0.00  0.00    +0.000 A 
ATOM     15  C   UNL     1       1.201   9.501  18.072  0.00  0.00    +0.000 A 
ATOM     16  C   UNL     1       2.138   8.535  17.694  0.00  0.00    +0.000 A 
ATOM     17  C   UNL     1       2.601   7.596  18.630  0.00  0.00    +0.000 A 
ATOM     18  C   UNL     1       2.123   7.658  19.951  0.00  0.00    +0.000 A 
ATOM     19  C   UNL     1       1.196   8.623  20.335  0.00  0.00    +0.000 A 
BRANCH  14  21
ATOM     20  C   UNL     1       0.453  12.307  19.561  0.00  0.00    +0.000 C 
ATOM     21  S   UNL     1      -0.412  10.796  19.895  0.00  0.00    +0.000 S 
ATOM     22  O   UNL     1      -0.578  10.678  21.334  0.00  0.00    +0.000 OA
ATOM     23  O   UNL     1      -1.558  10.730  19.008  0.00  0.00    +0.000 OA
ENDBRANCH  14  21
ENDBRANCH   1  17
TORSDOF 2
ENDMDL
MODEL 3
REMARK VINA RESULT:      -8.4      1.463      3.452
REMARK  Name = 
REMARK  3 active torsions:
REMARK  status: ('A' for Active; 'I' for Inactive)
REMARK    1  A    between atoms: C_1  and  S_2
REMARK    2  A    between atoms: S_2  and  C_5
REMARK    3  A    between atoms: C_8  and  C_9
REMARK                            x       y       z     vdW  Elec       q    Type
REMARK                         _______ _______ _______ _____ _____    ______ ____
ROOT
ATOM      1  C   UNL     1       2.862   5.873  18.691  0.00  0.00    +0.000 C 
ATOM      2  C   UNL     1       3.036   5.042  19.991  0.00  0.00    +0.000 C 
ATOM      3  N   UNL     1       3.326   3.604  19.771  0.00  0.00    +0.000 NA
ATOM      4  C   UNL     1       2.108   2.793  19.656  0.00  0.00    +0.000 C 
ATOM      5  C   UNL     1       1.772   2.711  18.180  0.00  0.00    +0.000 C 
ATOM      6  C   UNL     1       3.124   2.799  17.488  0.00  0.00    +0.000 C 
ATOM      7  C   UNL     1       4.115   3.352  18.537  0.00  0.00    +0.000 C 
ATOM      8  C   UNL     1       4.862   4.568  18.005  0.00  0.00    +0.000 A 
ATOM      9  C   UNL     1       6.172   4.470  17.525  0.00  0.00    +0.000 A 
ATOM     10  C   UNL     1       6.789   5.583  16.954  0.00  0.00    +0.000 A 
ATOM     11  C   UNL     1       6.089   6.780  16.814  0.00  0.00    +0.000 A 
ATOM     12  C   UNL     1       4.791   6.897  17.310  0.00  0.00    +0.000 A 
ATOM     13  C   UNL     1       4.196   5.815  17.963  0.00  0.00    +0.000 A 
ENDROOT
BRANCH   1  17
ATOM     14  C   UNL     1       1.130   9.730  19.545  0.00  0.00    +0.000 A 
ATOM     15  C   UNL     1       1.507   9.438  18.233  0.00  0.00    +0.000 A 
ATOM     16  C   UNL     1       2.076   8.196  17.936  0.00  0.00    +0.000 A 
ATOM     17  C   UNL     1       2.260   7.243  18.951  0.00  0.00    +0.000 A 
ATOM     18  C   UNL     1       1.885   7.568  20.267  0.00  0.00    +0.000 A 
ATOM     19  C   UNL     1       1.327   8.808  20.570  0.00  0.00    +0.000 A 
BRANCH  14  21
ATOM     20  C   UNL     1       1.320  12.430  18.846  0.00  0.00    +0.000 C 
ATOM     21  S   UNL     1       0.468  11.332  19.945  0.00  0.00    +0.000 S 
ATOM     22  O   UNL     1       0.878  11.644  21.304  0.00  0.00    +0.000 OA
ATOM     23  O   UNL     1      -0.935  11.328  19.577  0.00  0.00    +0.000 OA
ENDBRANCH  14  21
ENDBRANCH   1  17
TORSDOF 2
ENDMDL
MODEL 4
REMARK VINA RESULT:      -8.4      1.257      3.358
REMARK  Name = 
REMARK  3 active torsions:
REMARK  status: ('A' for Active; 'I' for Inactive)
REMARK    1  A    between atoms: C_1  and  S_2
REMARK    2  A    between atoms: S_2  and  C_5
REMARK    3  A    between atoms: C_8  and  C_9
REMARK                            x       y       z     vdW  Elec       q    Type
REMARK                         _______ _______ _______ _____ _____    ______ ____
ROOT
ATOM      1  C   UNL     1       3.086   5.901  18.641  0.00  0.00    +0.000 C 
ATOM      2  C   UNL     1       3.113   5.073  19.953  0.00  0.00    +0.000 C 
ATOM      3  N   UNL     1       3.493   3.650  19.779  0.00  0.00    +0.000 NA
ATOM      4  C   UNL     1       2.340   2.787  19.496  0.00  0.00    +0.000 C 
ATOM      5  C   UNL     1       2.219   2.697  17.987  0.00  0.00    +0.000 C 
ATOM      6  C   UNL     1       3.649   2.847  17.491  0.00  0.00    +0.000 C 
ATOM      7  C   UNL     1       4.458   3.438  18.668  0.00  0.00    +0.000 C 
ATOM      8  C   UNL     1       5.218   4.688  18.244  0.00  0.00    +0.000 A 
ATOM      9  C   UNL     1       6.585   4.650  17.953  0.00  0.00    +0.000 A 
ATOM     10  C   UNL     1       7.227   5.791  17.472  0.00  0.00    +0.000 A 
ATOM     11  C   UNL     1       6.501   6.957  17.234  0.00  0.00    +0.000 A 
ATOM     12  C   UNL     1       5.143   7.015  17.542  0.00  0.00    +0.000 A 
ATOM     13  C   UNL     1       4.510   5.904  18.107  0.00  0.00    +0.000 A 
ENDROOT
BRANCH   1  17
ATOM     14  C   UNL     1       1.095   9.680  19.242  0.00  0.00    +0.000 A 
ATOM     15  C   UNL     1       1.544   9.352  17.960  0.00  0.00    +0.000 A 
ATOM     16  C   UNL     1       2.196   8.135  17.746  0.00  0.00    +0.000 A 
ATOM     17  C   UNL     1       2.394   7.242  18.812  0.00  0.00    +0.000 A 
ATOM     18  C   UNL     1       1.945   7.603  20.095  0.00  0.00    +0.000 A 
ATOM     19  C   UNL     1       1.303   8.819  20.316  0.00  0.00    +0.000 A 
BRANCH  14  21
ATOM     20  C   UNL     1      -1.370  10.990  19.087  0.00  0.00    +0.000 C 
ATOM     21  S   UNL     1       0.323  11.255  19.539  0.00  0.00    +0.000 S 
ATOM     22  O   UNL     1       0.898  12.204  18.601  0.00  0.00    +0.000 OA
ATOM     23  O   UNL     1       0.372  11.503  20.967  0.00  0.00    +0.000 OA
ENDBRANCH  14  21
ENDBRANCH   1  17
TORSDOF 2
ENDMDL
MODEL 5
REMARK VINA RESULT:      -8.3      1.361      1.679
REMARK  Name = 
REMARK  3 active torsions:
REMARK  status: ('A' for Active; 'I' for Inactive)
REMARK    1  A    between atoms: C_1  and  S_2
REMARK    2  A    between atoms: S_2  and  C_5
REMARK    3  A    between atoms: C_8  and  C_9
REMARK                            x       y       z     vdW  Elec       q    Type
REMARK                         _______ _______ _______ _____ _____    ______ ____
ROOT
ATOM      1  C   UNL     1       2.996   6.256  19.098  0.00  0.00    +0.000 C 
ATOM      2  C   UNL     1       3.345   6.495  17.605  0.00  0.00    +0.000 C 
ATOM      3  N   UNL     1       4.361   5.567  17.052  0.00  0.00    +0.000 NA
ATOM      4  C   UNL     1       5.733   6.052  17.241  0.00  0.00    +0.000 C 
ATOM      5  C   UNL     1       6.235   5.455  18.542  0.00  0.00    +0.000 C 
ATOM      6  C   UNL     1       5.494   4.131  18.651  0.00  0.00    +0.000 C 
ATOM      7  C   UNL     1       4.307   4.214  17.665  0.00  0.00    +0.000 C 
ATOM      8  C   UNL     1       2.990   3.885  18.357  0.00  0.00    +0.000 A 
ATOM      9  C   UNL     1       2.388   2.630  18.226  0.00  0.00    +0.000 A 
ATOM     10  C   UNL     1       1.235   2.332  18.952  0.00  0.00    +0.000 A 
ATOM     11  C   UNL     1       0.708   3.262  19.847  0.00  0.00    +0.000 A 
ATOM     12  C   UNL     1       1.286   4.525  19.969  0.00  0.00    +0.000 A 
ATOM     13  C   UNL     1       2.388   4.865  19.180  0.00  0.00    +0.000 A 
ENDROOT
BRANCH   1  17
ATOM     14  C   UNL     1       0.770   9.581  20.711  0.00  0.00    +0.000 A 
ATOM     15  C   UNL     1       1.117   8.528  21.561  0.00  0.00    +0.000 A 
ATOM     16  C   UNL     1       1.833   7.439  21.056  0.00  0.00    +0.000 A 
ATOM     17  C   UNL     1       2.208   7.406  19.704  0.00  0.00    +0.000 A 
ATOM     18  C   UNL     1       1.834   8.472  18.866  0.00  0.00    +0.000 A 
ATOM     19  C   UNL     1       1.112   9.555  19.362  0.00  0.00    +0.000 A 
BRANCH  14  21
ATOM     20  C   UNL     1      -0.794  10.360  22.894  0.00  0.00    +0.000 C 
ATOM     21  S   UNL     1      -0.199  10.939  21.328  0.00  0.00    +0.000 S 
ATOM     22  O   UNL     1      -1.340  11.097  20.441  0.00  0.00    +0.000 OA
ATOM     23  O   UNL     1       0.707  12.045  21.573  0.00  0.00    +0.000 OA
ENDBRANCH  14  21
ENDBRANCH   1  17
TORSDOF 2
ENDMDL
MODEL 6
REMARK VINA RESULT:      -8.3      1.342      1.929
REMARK  Name = 
REMARK  3 active torsions:
REMARK  status: ('A' for Active; 'I' for Inactive)
REMARK    1  A    between atoms: C_1  and  S_2
REMARK    2  A    between atoms: S_2  and  C_5
REMARK    3  A    between atoms: C_8  and  C_9
REMARK                            x       y       z     vdW  Elec       q    Type
REMARK                         _______ _______ _______ _____ _____    ______ ____
ROOT
ATOM      1  C   UNL     1       3.014   6.328  19.070  0.00  0.00    +0.000 C 
ATOM      2  C   UNL     1       3.448   6.502  17.590  0.00  0.00    +0.000 C 
ATOM      3  N   UNL     1       4.487   5.547  17.134  0.00  0.00    +0.000 NA
ATOM      4  C   UNL     1       5.850   6.035  17.380  0.00  0.00    +0.000 C 
ATOM      5  C   UNL     1       6.274   5.491  18.730  0.00  0.00    +0.000 C 
ATOM      6  C   UNL     1       5.520   4.176  18.853  0.00  0.00    +0.000 C 
ATOM      7  C   UNL     1       4.390   4.222  17.800  0.00  0.00    +0.000 C 
ATOM      8  C   UNL     1       3.035   3.928  18.430  0.00  0.00    +0.000 A 
ATOM      9  C   UNL     1       2.433   2.671  18.318  0.00  0.00    +0.000 A 
ATOM     10  C   UNL     1       1.240   2.408  18.991  0.00  0.00    +0.000 A 
ATOM     11  C   UNL     1       0.670   3.378  19.815  0.00  0.00    +0.000 A 
ATOM     12  C   UNL     1       1.248   4.642  19.915  0.00  0.00    +0.000 A 
ATOM     13  C   UNL     1       2.394   4.944  19.176  0.00  0.00    +0.000 A 
ENDROOT
BRANCH   1  17
ATOM     14  C   UNL     1       0.696   9.615  20.631  0.00  0.00    +0.000 A 
ATOM     15  C   UNL     1       1.043   9.619  19.277  0.00  0.00    +0.000 A 
ATOM     16  C   UNL     1       1.798   8.566  18.754  0.00  0.00    +0.000 A 
ATOM     17  C   UNL     1       2.202   7.506  19.582  0.00  0.00    +0.000 A 
ATOM     18  C   UNL     1       1.852   7.534  20.944  0.00  0.00    +0.000 A 
ATOM     19  C   UNL     1       1.108   8.585  21.472  0.00  0.00    +0.000 A 
BRANCH  14  21
ATOM     20  C   UNL     1      -0.790  10.364  22.876  0.00  0.00    +0.000 C 
ATOM     21  S   UNL     1      -0.207  10.983  21.321  0.00  0.00    +0.000 S 
ATOM     22  O   UNL     1      -1.360  11.217  20.467  0.00  0.00    +0.000 OA
ATOM     23  O   UNL     1       0.744  12.044  21.589  0.00  0.00    +0.000 OA
ENDBRANCH  14  21
ENDBRANCH   1  17
TORSDOF 2
ENDMDL
MODEL 7
REMARK VINA RESULT:      -8.3      1.429      3.356
REMARK  Name = 
REMARK  3 active torsions:
REMARK  status: ('A' for Active; 'I' for Inactive)
REMARK    1  A    between atoms: C_1  and  S_2
REMARK    2  A    between atoms: S_2  and  C_5
REMARK    3  A    between atoms: C_8  and  C_9
REMARK                            x       y       z     vdW  Elec       q    Type
REMARK                         _______ _______ _______ _____ _____    ______ ____
ROOT
ATOM      1  C   UNL     1       3.039   5.883  18.699  0.00  0.00    +0.000 C 
ATOM      2  C   UNL     1       3.096   5.036  19.998  0.00  0.00    +0.000 C 
ATOM      3  N   UNL     1       3.471   3.616  19.795  0.00  0.00    +0.000 NA
ATOM      4  C   UNL     1       2.310   2.758  19.526  0.00  0.00    +0.000 C 
ATOM      5  C   UNL     1       2.154   2.689  18.019  0.00  0.00    +0.000 C 
ATOM      6  C   UNL     1       3.572   2.846  17.493  0.00  0.00    +0.000 C 
ATOM      7  C   UNL     1       4.409   3.419  18.659  0.00  0.00    +0.000 C 
ATOM      8  C   UNL     1       5.161   4.675  18.235  0.00  0.00    +0.000 A 
ATOM      9  C   UNL     1       6.520   4.640  17.912  0.00  0.00    +0.000 A 
ATOM     10  C   UNL     1       7.152   5.787  17.433  0.00  0.00    +0.000 A 
ATOM     11  C   UNL     1       6.422   6.957  17.228  0.00  0.00    +0.000 A 
ATOM     12  C   UNL     1       5.071   7.011  17.569  0.00  0.00    +0.000 A 
ATOM     13  C   UNL     1       4.451   5.893  18.132  0.00  0.00    +0.000 A 
ENDROOT
BRANCH   1  17
ATOM     14  C   UNL     1       1.113   9.714  19.167  0.00  0.00    +0.000 A 
ATOM     15  C   UNL     1       1.279   8.902  20.292  0.00  0.00    +0.000 A 
ATOM     16  C   UNL     1       1.895   7.655  20.160  0.00  0.00    +0.000 A 
ATOM     17  C   UNL     1       2.353   7.222  18.905  0.00  0.00    +0.000 A 
ATOM     18  C   UNL     1       2.160   8.053  17.786  0.00  0.00    +0.000 A 
ATOM     19  C   UNL     1       1.538   9.292  17.911  0.00  0.00    +0.000 A 
BRANCH  14  21
ATOM     20  C   UNL     1       0.356  11.643  21.043  0.00  0.00    +0.000 C 
ATOM     21  S   UNL     1       0.270  11.274  19.312  0.00  0.00    +0.000 S 
ATOM     22  O   UNL     1      -1.123  11.048  18.967  0.00  0.00    +0.000 OA
ATOM     23  O   UNL     1       1.058  12.264  18.603  0.00  0.00    +0.000 OA
ENDBRANCH  14  21
ENDBRANCH   1  17
TORSDOF 2
ENDMDL
MODEL 8
REMARK VINA RESULT:      -8.2      1.582      3.296
REMARK  Name = 
REMARK  3 active torsions:
REMARK  status: ('A' for Active; 'I' for Inactive)
REMARK    1  A    between atoms: C_1  and  S_2
REMARK    2  A    between atoms: S_2  and  C_5
REMARK    3  A    between atoms: C_8  and  C_9
REMARK                            x       y       z     vdW  Elec       q    Type
REMARK                         _______ _______ _______ _____ _____    ______ ____
ROOT
ATOM      1  C   UNL     1       2.648   5.697  18.748  0.00  0.00    +0.000 C 
ATOM      2  C   UNL     1       3.062   4.856  19.985  0.00  0.00    +0.000 C 
ATOM      3  N   UNL     1       3.280   3.415  19.709  0.00  0.00    +0.000 NA
ATOM      4  C   UNL     1       2.051   2.623  19.833  0.00  0.00    +0.000 C 
ATOM      5  C   UNL     1       1.430   2.555  18.452  0.00  0.00    +0.000 C 
ATOM      6  C   UNL     1       2.620   2.627  17.507  0.00  0.00    +0.000 C 
ATOM      7  C   UNL     1       3.807   3.159  18.342  0.00  0.00    +0.000 C 
ATOM      8  C   UNL     1       4.453   4.368  17.677  0.00  0.00    +0.000 A 
ATOM      9  C   UNL     1       5.641   4.254  16.949  0.00  0.00    +0.000 A 
ATOM     10  C   UNL     1       6.151   5.361  16.271  0.00  0.00    +0.000 A 
ATOM     11  C   UNL     1       5.455   6.569  16.275  0.00  0.00    +0.000 A 
ATOM     12  C   UNL     1       4.283   6.702  17.018  0.00  0.00    +0.000 A 
ATOM     13  C   UNL     1       3.811   5.624  17.771  0.00  0.00    +0.000 A 
ENDROOT
BRANCH   1  17
ATOM     14  C   UNL     1       1.198   9.645  19.707  0.00  0.00    +0.000 A 
ATOM     15  C   UNL     1       1.334   8.710  20.736  0.00  0.00    +0.000 A 
ATOM     16  C   UNL     1       1.797   7.423  20.445  0.00  0.00    +0.000 A 
ATOM     17  C   UNL     1       2.130   7.074  19.127  0.00  0.00    +0.000 A 
ATOM     18  C   UNL     1       1.969   8.030  18.107  0.00  0.00    +0.000 A 
ATOM     19  C   UNL     1       1.500   9.310  18.390  0.00  0.00    +0.000 A 
BRANCH  14  21
ATOM     20  C   UNL     1       1.445  12.327  18.960  0.00  0.00    +0.000 C 
ATOM     21  S   UNL     1       0.547  11.263  20.056  0.00  0.00    +0.000 S 
ATOM     22  O   UNL     1       0.922  11.597  21.420  0.00  0.00    +0.000 OA
ATOM     23  O   UNL     1      -0.845  11.271  19.647  0.00  0.00    +0.000 OA
ENDBRANCH  14  21
ENDBRANCH   1  17
TORSDOF 2
ENDMDL
