MODEL 1
REMARK VINA RESULT:      -7.1      0.000      0.000
REMARK  Name = 
REMARK  3 active torsions:
REMARK  status: ('A' for Active; 'I' for Inactive)
REMARK    1  A    between atoms: C_2  and  C_3
REMARK    2  A    between atoms: C_3  and  C_4
REMARK    3  A    between atoms: C_4  and  N_5
REMARK                            x       y       z     vdW  Elec       q    Type
REMARK                         _______ _______ _______ _____ _____    ______ ____
ROOT
ATOM      1  O   UNL     1       2.157   3.452  16.536  0.00  0.00    +0.000 OA
ATOM      2  C   UNL     1       3.018   3.508  17.414  0.00  0.00    +0.000 C 
ATOM      3  N   UNL     1       2.736   3.917  18.722  0.00  0.00    +0.000 N 
ATOM      4  C   UNL     1       3.742   4.051  19.776  0.00  0.00    +0.000 C 
ATOM      5  C   UNL     1       3.833   2.794  20.638  0.00  0.00    +0.000 C 
ATOM      6  C   UNL     1       2.672   2.612  21.611  0.00  0.00    +0.000 C 
ATOM      7  C   UNL     1       1.277   2.654  20.981  0.00  0.00    +0.000 C 
ATOM      8  C   UNL     1       0.900   4.040  20.459  0.00  0.00    +0.000 C 
ATOM      9  C   UNL     1       1.363   4.310  19.028  0.00  0.00    +0.000 C 
ENDROOT
BRANCH   2  10
ATOM     10  C   UNL     1       4.456   3.123  17.125  0.00  0.00    +0.000 C 
BRANCH  10  11
ATOM     11  C   UNL     1       5.111   4.069  16.125  0.00  0.00    +0.000 C 
BRANCH  11  12
ATOM     12  N   UNL     1       6.012   5.007  16.801  0.00  0.00    +0.000 N 
ATOM     13  C   UNL     1       6.848   4.543  17.805  0.00  0.00    +0.000 A 
ATOM     14  C   UNL     1       7.644   5.377  18.486  0.00  0.00    +0.000 A 
ATOM     15  C   UNL     1       7.638   6.785  18.183  0.00  0.00    +0.000 A 
ATOM     16  C   UNL     1       6.844   7.270  17.220  0.00  0.00    +0.000 A 
ATOM     17  C   UNL     1       5.941   6.360  16.463  0.00  0.00    +0.000 A 
ATOM     18  O   UNL     1       5.186   6.834  15.618  0.00  0.00    +0.000 OA
ENDBRANCH  11  12
ENDBRANCH  10  11
ENDBRANCH   2  10
TORSDOF 3
ENDMDL
MODEL 2
REMARK VINA RESULT:      -7.1      2.190      2.980
REMARK  Name = 
REMARK  3 active torsions:
REMARK  status: ('A' for Active; 'I' for Inactive)
REMARK    1  A    between atoms: C_2  and  C_3
REMARK    2  A    between atoms: C_3  and  C_4
REMARK    3  A    between atoms: C_4  and  N_5
REMARK                            x       y       z     vdW  Elec       q    Type
REMARK                         _______ _______ _______ _____ _____    ______ ____
ROOT
ATOM      1  O   UNL     1       2.428   7.237  19.974  0.00  0.00    +0.000 OA
ATOM      2  C   UNL     1       2.737   6.342  19.186  0.00  0.00    +0.000 C 
ATOM      3  N   UNL     1       2.739   4.990  19.543  0.00  0.00    +0.000 N 
ATOM      4  C   UNL     1       3.155   3.905  18.653  0.00  0.00    +0.000 C 
ATOM      5  C   UNL     1       1.965   3.278  17.929  0.00  0.00    +0.000 C 
ATOM      6  C   UNL     1       1.096   2.380  18.804  0.00  0.00    +0.000 C 
ATOM      7  C   UNL     1       0.579   3.025  20.093  0.00  0.00    +0.000 C 
ATOM      8  C   UNL     1       1.687   3.302  21.108  0.00  0.00    +0.000 C 
ATOM      9  C   UNL     1       2.379   4.651  20.918  0.00  0.00    +0.000 C 
ENDROOT
BRANCH   2  10
ATOM     10  C   UNL     1       3.132   6.661  17.757  0.00  0.00    +0.000 C 
BRANCH  10  11
ATOM     11  C   UNL     1       4.548   7.220  17.665  0.00  0.00    +0.000 C 
BRANCH  11  12
ATOM     12  N   UNL     1       5.446   6.269  17.005  0.00  0.00    +0.000 N 
ATOM     13  C   UNL     1       5.329   6.059  15.639  0.00  0.00    +0.000 A 
ATOM     14  C   UNL     1       6.091   5.158  15.008  0.00  0.00    +0.000 A 
ATOM     15  C   UNL     1       7.053   4.383  15.750  0.00  0.00    +0.000 A 
ATOM     16  C   UNL     1       7.195   4.559  17.069  0.00  0.00    +0.000 A 
ATOM     17  C   UNL     1       6.344   5.545  17.791  0.00  0.00    +0.000 A 
ATOM     18  O   UNL     1       6.458   5.654  19.009  0.00  0.00    +0.000 OA
ENDBRANCH  11  12
ENDBRANCH  10  11
ENDBRANCH   2  10
TORSDOF 3
ENDMDL
MODEL 3
REMARK VINA RESULT:      -7.0      1.647      5.666
REMARK  Name = 
REMARK  3 active torsions:
REMARK  status: ('A' for Active; 'I' for Inactive)
REMARK    1  A    between atoms: C_2  and  C_3
REMARK    2  A    between atoms: C_3  and  C_4
REMARK    3  A    between atoms: C_4  and  N_5
REMARK                            x       y       z     vdW  Elec       q    Type
REMARK                         _______ _______ _______ _____ _____    ______ ____
ROOT
ATOM      1  O   UNL     1       2.849   5.736  18.413  0.00  0.00    +0.000 OA
ATOM      2  C   UNL     1       3.401   5.136  17.490  0.00  0.00    +0.000 C 
ATOM      3  N   UNL     1       4.578   5.594  16.890  0.00  0.00    +0.000 N 
ATOM      4  C   UNL     1       5.230   4.940  15.755  0.00  0.00    +0.000 C 
ATOM      5  C   UNL     1       6.332   3.982  16.207  0.00  0.00    +0.000 C 
ATOM      6  C   UNL     1       7.605   4.670  16.689  0.00  0.00    +0.000 C 
ATOM      7  C   UNL     1       7.408   5.718  17.789  0.00  0.00    +0.000 C 
ATOM      8  C   UNL     1       6.667   6.962  17.301  0.00  0.00    +0.000 C 
ATOM      9  C   UNL     1       5.145   6.848  17.379  0.00  0.00    +0.000 C 
ENDROOT
BRANCH   2  10
ATOM     10  C   UNL     1       2.829   3.840  16.948  0.00  0.00    +0.000 C 
BRANCH  10  11
ATOM     11  C   UNL     1       3.268   2.633  17.771  0.00  0.00    +0.000 C 
BRANCH  11  12
ATOM     12  N   UNL     1       2.655   2.653  19.103  0.00  0.00    +0.000 N 
ATOM     13  C   UNL     1       1.291   2.870  19.219  0.00  0.00    +0.000 A 
ATOM     14  C   UNL     1       0.701   2.953  20.419  0.00  0.00    +0.000 A 
ATOM     15  C   UNL     1       1.489   2.819  21.617  0.00  0.00    +0.000 A 
ATOM     16  C   UNL     1       2.809   2.608  21.544  0.00  0.00    +0.000 A 
ATOM     17  C   UNL     1       3.484   2.530  20.219  0.00  0.00    +0.000 A 
ATOM     18  O   UNL     1       4.703   2.385  20.177  0.00  0.00    +0.000 OA
ENDBRANCH  11  12
ENDBRANCH  10  11
ENDBRANCH   2  10
TORSDOF 3
ENDMDL
MODEL 4
REMARK VINA RESULT:      -6.9      2.606      3.886
REMARK  Name = 
REMARK  3 active torsions:
REMARK  status: ('A' for Active; 'I' for Inactive)
REMARK    1  A    between atoms: C_2  and  C_3
REMARK    2  A    between atoms: C_3  and  C_4
REMARK    3  A    between atoms: C_4  and  N_5
REMARK                            x       y       z     vdW  Elec       q    Type
REMARK                         _______ _______ _______ _____ _____    ______ ____
ROOT
ATOM      1  O   UNL     1       6.670   4.384  18.501  0.00  0.00    +0.000 OA
ATOM      2  C   UNL     1       5.617   4.451  17.866  0.00  0.00    +0.000 C 
ATOM      3  N   UNL     1       4.451   3.792  18.270  0.00  0.00    +0.000 N 
ATOM      4  C   UNL     1       3.198   3.802  17.514  0.00  0.00    +0.000 C 
ATOM      5  C   UNL     1       2.247   4.893  18.002  0.00  0.00    +0.000 C 
ATOM      6  C   UNL     1       1.573   4.589  19.336  0.00  0.00    +0.000 C 
ATOM      7  C   UNL     1       2.522   4.239  20.485  0.00  0.00    +0.000 C 
ATOM      8  C   UNL     1       3.222   2.895  20.293  0.00  0.00    +0.000 C 
ATOM      9  C   UNL     1       4.515   2.981  19.483  0.00  0.00    +0.000 C 
ENDROOT
BRANCH   2  10
ATOM     10  C   UNL     1       5.521   5.272  16.595  0.00  0.00    +0.000 C 
BRANCH  10  11
ATOM     11  C   UNL     1       6.843   5.308  15.836  0.00  0.00    +0.000 C 
BRANCH  11  12
ATOM     12  N   UNL     1       6.683   4.789  14.475  0.00  0.00    +0.000 N 
ATOM     13  C   UNL     1       5.643   3.914  14.199  0.00  0.00    +0.000 A 
ATOM     14  C   UNL     1       5.496   3.372  12.984  0.00  0.00    +0.000 A 
ATOM     15  C   UNL     1       6.430   3.695  11.935  0.00  0.00    +0.000 A 
ATOM     16  C   UNL     1       7.446   4.536  12.164  0.00  0.00    +0.000 A 
ATOM     17  C   UNL     1       7.634   5.135  13.514  0.00  0.00    +0.000 A 
ATOM     18  O   UNL     1       8.601   5.866  13.714  0.00  0.00    +0.000 OA
ENDBRANCH  11  12
ENDBRANCH  10  11
ENDBRANCH   2  10
TORSDOF 3
ENDMDL
MODEL 5
REMARK VINA RESULT:      -6.9      1.967      2.540
REMARK  Name = 
REMARK  3 active torsions:
REMARK  status: ('A' for Active; 'I' for Inactive)
REMARK    1  A    between atoms: C_2  and  C_3
REMARK    2  A    between atoms: C_3  and  C_4
REMARK    3  A    between atoms: C_4  and  N_5
REMARK                            x       y       z     vdW  Elec       q    Type
REMARK                         _______ _______ _______ _____ _____    ______ ____
ROOT
ATOM      1  O   UNL     1       2.347   7.248  19.921  0.00  0.00    +0.000 OA
ATOM      2  C   UNL     1       2.672   6.336  19.160  0.00  0.00    +0.000 C 
ATOM      3  N   UNL     1       2.687   4.994  19.553  0.00  0.00    +0.000 N 
ATOM      4  C   UNL     1       3.120   3.890  18.696  0.00  0.00    +0.000 C 
ATOM      5  C   UNL     1       1.942   3.230  17.981  0.00  0.00    +0.000 C 
ATOM      6  C   UNL     1       1.078   2.346  18.875  0.00  0.00    +0.000 C 
ATOM      7  C   UNL     1       0.545   3.020  20.143  0.00  0.00    +0.000 C 
ATOM      8  C   UNL     1       1.643   3.337  21.157  0.00  0.00    +0.000 C 
ATOM      9  C   UNL     1       2.320   4.688  20.934  0.00  0.00    +0.000 C 
ENDROOT
BRANCH   2  10
ATOM     10  C   UNL     1       3.072   6.621  17.725  0.00  0.00    +0.000 C 
BRANCH  10  11
ATOM     11  C   UNL     1       4.439   7.290  17.635  0.00  0.00    +0.000 C 
BRANCH  11  12
ATOM     12  N   UNL     1       5.495   6.301  17.403  0.00  0.00    +0.000 N 
ATOM     13  C   UNL     1       6.204   5.798  18.484  0.00  0.00    +0.000 A 
ATOM     14  C   UNL     1       7.214   4.936  18.310  0.00  0.00    +0.000 A 
ATOM     15  C   UNL     1       7.583   4.518  16.982  0.00  0.00    +0.000 A 
ATOM     16  C   UNL     1       6.921   4.983  15.915  0.00  0.00    +0.000 A 
ATOM     17  C   UNL     1       5.806   5.954  16.087  0.00  0.00    +0.000 A 
ATOM     18  O   UNL     1       5.245   6.403  15.091  0.00  0.00    +0.000 OA
ENDBRANCH  11  12
ENDBRANCH  10  11
ENDBRANCH   2  10
TORSDOF 3
ENDMDL
MODEL 6
REMARK VINA RESULT:      -6.8      2.236      3.341
REMARK  Name = 
REMARK  3 active torsions:
REMARK  status: ('A' for Active; 'I' for Inactive)
REMARK    1  A    between atoms: C_2  and  C_3
REMARK    2  A    between atoms: C_3  and  C_4
REMARK    3  A    between atoms: C_4  and  N_5
REMARK                            x       y       z     vdW  Elec       q    Type
REMARK                         _______ _______ _______ _____ _____    ______ ____
ROOT
ATOM      1  O   UNL     1       5.796   3.807  18.642  0.00  0.00    +0.000 OA
ATOM      2  C   UNL     1       4.685   3.538  18.186  0.00  0.00    +0.000 C 
ATOM      3  N   UNL     1       3.686   2.922  18.948  0.00  0.00    +0.000 N 
ATOM      4  C   UNL     1       2.374   2.536  18.426  0.00  0.00    +0.000 C 
ATOM      5  C   UNL     1       1.321   3.611  18.684  0.00  0.00    +0.000 C 
ATOM      6  C   UNL     1       0.847   3.694  20.132  0.00  0.00    +0.000 C 
ATOM      7  C   UNL     1       1.956   3.858  21.175  0.00  0.00    +0.000 C 
ATOM      8  C   UNL     1       2.835   2.615  21.312  0.00  0.00    +0.000 C 
ATOM      9  C   UNL     1       4.005   2.574  20.330  0.00  0.00    +0.000 C 
ENDROOT
BRANCH   2  10
ATOM     10  C   UNL     1       4.326   3.872  16.751  0.00  0.00    +0.000 C 
BRANCH  10  11
ATOM     11  C   UNL     1       5.102   5.079  16.234  0.00  0.00    +0.000 C 
BRANCH  11  12
ATOM     12  N   UNL     1       5.735   4.785  14.945  0.00  0.00    +0.000 N 
ATOM     13  C   UNL     1       5.077   3.973  14.034  0.00  0.00    +0.000 A 
ATOM     14  C   UNL     1       5.645   3.633  12.870  0.00  0.00    +0.000 A 
ATOM     15  C   UNL     1       6.965   4.111  12.548  0.00  0.00    +0.000 A 
ATOM     16  C   UNL     1       7.631   4.898  13.403  0.00  0.00    +0.000 A 
ATOM     17  C   UNL     1       7.022   5.272  14.708  0.00  0.00    +0.000 A 
ATOM     18  O   UNL     1       7.671   5.954  15.497  0.00  0.00    +0.000 OA
ENDBRANCH  11  12
ENDBRANCH  10  11
ENDBRANCH   2  10
TORSDOF 3
ENDMDL
MODEL 7
REMARK VINA RESULT:      -6.8      2.414      3.345
REMARK  Name = 
REMARK  3 active torsions:
REMARK  status: ('A' for Active; 'I' for Inactive)
REMARK    1  A    between atoms: C_2  and  C_3
REMARK    2  A    between atoms: C_3  and  C_4
REMARK    3  A    between atoms: C_4  and  N_5
REMARK                            x       y       z     vdW  Elec       q    Type
REMARK                         _______ _______ _______ _____ _____    ______ ____
ROOT
ATOM      1  O   UNL     1       4.180   6.138  17.309  0.00  0.00    +0.000 OA
ATOM      2  C   UNL     1       4.084   4.912  17.373  0.00  0.00    +0.000 C 
ATOM      3  N   UNL     1       3.675   4.246  18.534  0.00  0.00    +0.000 N 
ATOM      4  C   UNL     1       3.604   2.791  18.665  0.00  0.00    +0.000 C 
ATOM      5  C   UNL     1       2.201   2.262  18.374  0.00  0.00    +0.000 C 
ATOM      6  C   UNL     1       1.186   2.526  19.483  0.00  0.00    +0.000 C 
ATOM      7  C   UNL     1       1.060   3.988  19.920  0.00  0.00    +0.000 C 
ATOM      8  C   UNL     1       2.303   4.503  20.645  0.00  0.00    +0.000 C 
ATOM      9  C   UNL     1       3.378   5.058  19.712  0.00  0.00    +0.000 C 
ENDROOT
BRANCH   2  10
ATOM     10  C   UNL     1       4.400   4.039  16.173  0.00  0.00    +0.000 C 
BRANCH  10  11
ATOM     11  C   UNL     1       5.901   3.848  15.985  0.00  0.00    +0.000 C 
BRANCH  11  12
ATOM     12  N   UNL     1       6.288   4.071  14.589  0.00  0.00    +0.000 N 
ATOM     13  C   UNL     1       5.774   3.245  13.601  0.00  0.00    +0.000 A 
ATOM     14  C   UNL     1       6.147   3.378  12.322  0.00  0.00    +0.000 A 
ATOM     15  C   UNL     1       7.101   4.392  11.953  0.00  0.00    +0.000 A 
ATOM     16  C   UNL     1       7.619   5.208  12.880  0.00  0.00    +0.000 A 
ATOM     17  C   UNL     1       7.228   5.064  14.309  0.00  0.00    +0.000 A 
ATOM     18  O   UNL     1       7.752   5.792  15.148  0.00  0.00    +0.000 OA
ENDBRANCH  11  12
ENDBRANCH  10  11
ENDBRANCH   2  10
TORSDOF 3
ENDMDL
MODEL 8
REMARK VINA RESULT:      -6.8      1.953      2.834
REMARK  Name = 
REMARK  3 active torsions:
REMARK  status: ('A' for Active; 'I' for Inactive)
REMARK    1  A    between atoms: C_2  and  C_3
REMARK    2  A    between atoms: C_3  and  C_4
REMARK    3  A    between atoms: C_4  and  N_5
REMARK                            x       y       z     vdW  Elec       q    Type
REMARK                         _______ _______ _______ _____ _____    ______ ____
ROOT
ATOM      1  O   UNL     1       2.996   6.607  19.757  0.00  0.00    +0.000 OA
ATOM      2  C   UNL     1       3.614   5.549  19.643  0.00  0.00    +0.000 C 
ATOM      3  N   UNL     1       3.076   4.315  20.025  0.00  0.00    +0.000 N 
ATOM      4  C   UNL     1       3.801   3.046  19.958  0.00  0.00    +0.000 C 
ATOM      5  C   UNL     1       3.511   2.294  18.661  0.00  0.00    +0.000 C 
ATOM      6  C   UNL     1       2.133   1.641  18.606  0.00  0.00    +0.000 C 
ATOM      7  C   UNL     1       0.953   2.577  18.885  0.00  0.00    +0.000 C 
ATOM      8  C   UNL     1       0.902   3.057  20.334  0.00  0.00    +0.000 C 
ATOM      9  C   UNL     1       1.734   4.311  20.602  0.00  0.00    +0.000 C 
ENDROOT
BRANCH   2  10
ATOM     10  C   UNL     1       5.015   5.521  19.063  0.00  0.00    +0.000 C 
BRANCH  10  11
ATOM     11  C   UNL     1       5.134   6.383  17.811  0.00  0.00    +0.000 C 
BRANCH  11  12
ATOM     12  N   UNL     1       5.544   5.580  16.656  0.00  0.00    +0.000 N 
ATOM     13  C   UNL     1       4.680   4.618  16.155  0.00  0.00    +0.000 A 
ATOM     14  C   UNL     1       5.039   3.825  15.138  0.00  0.00    +0.000 A 
ATOM     15  C   UNL     1       6.346   3.961  14.547  0.00  0.00    +0.000 A 
ATOM     16  C   UNL     1       7.207   4.879  15.003  0.00  0.00    +0.000 A 
ATOM     17  C   UNL     1       6.831   5.759  16.144  0.00  0.00    +0.000 A 
ATOM     18  O   UNL     1       7.654   6.560  16.577  0.00  0.00    +0.000 OA
ENDBRANCH  11  12
ENDBRANCH  10  11
ENDBRANCH   2  10
TORSDOF 3
ENDMDL
MODEL 9
REMARK VINA RESULT:      -6.8      1.885      5.884
REMARK  Name = 
REMARK  3 active torsions:
REMARK  status: ('A' for Active; 'I' for Inactive)
REMARK    1  A    between atoms: C_2  and  C_3
REMARK    2  A    between atoms: C_3  and  C_4
REMARK    3  A    between atoms: C_4  and  N_5
REMARK                            x       y       z     vdW  Elec       q    Type
REMARK                         _______ _______ _______ _____ _____    ______ ____
ROOT
ATOM      1  O   UNL     1       4.911   4.750  19.897  0.00  0.00    +0.000 OA
ATOM      2  C   UNL     1       4.800   5.577  18.991  0.00  0.00    +0.000 C 
ATOM      3  N   UNL     1       5.765   5.733  17.990  0.00  0.00    +0.000 N 
ATOM      4  C   UNL     1       5.696   6.742  16.933  0.00  0.00    +0.000 C 
ATOM      5  C   UNL     1       5.070   6.186  15.656  0.00  0.00    +0.000 C 
ATOM      6  C   UNL     1       5.979   5.252  14.863  0.00  0.00    +0.000 C 
ATOM      7  C   UNL     1       6.562   4.078  15.655  0.00  0.00    +0.000 C 
ATOM      8  C   UNL     1       7.577   4.515  16.710  0.00  0.00    +0.000 C 
ATOM      9  C   UNL     1       6.952   4.885  18.055  0.00  0.00    +0.000 C 
ENDROOT
BRANCH   2  10
ATOM     10  C   UNL     1       3.588   6.484  18.904  0.00  0.00    +0.000 C 
BRANCH  10  11
ATOM     11  C   UNL     1       2.451   5.844  18.114  0.00  0.00    +0.000 C 
BRANCH  11  12
ATOM     12  N   UNL     1       1.922   4.668  18.811  0.00  0.00    +0.000 N 
ATOM     13  C   UNL     1       1.586   4.768  20.152  0.00  0.00    +0.000 A 
ATOM     14  C   UNL     1       1.154   3.703  20.840  0.00  0.00    +0.000 A 
ATOM     15  C   UNL     1       1.035   2.425  20.186  0.00  0.00    +0.000 A 
ATOM     16  C   UNL     1       1.350   2.291  18.892  0.00  0.00    +0.000 A 
ATOM     17  C   UNL     1       1.847   3.460  18.116  0.00  0.00    +0.000 A 
ATOM     18  O   UNL     1       2.176   3.302  16.943  0.00  0.00    +0.000 OA
ENDBRANCH  11  12
ENDBRANCH  10  11
ENDBRANCH   2  10
TORSDOF 3
ENDMDL
