MODEL 1
REMARK VINA RESULT:      -5.5      0.000      0.000
REMARK  Name = 
REMARK  2 active torsions:
REMARK  status: ('A' for Active; 'I' for Inactive)
REMARK    1  A    between atoms: C_1  and  C_2
REMARK    2  A    between atoms: C_7  and  N_8
REMARK                            x       y       z     vdW  Elec       q    Type
REMARK                         _______ _______ _______ _____ _____    ______ ____
ROOT
ATOM      1  C   UNL     1       3.123   2.386  18.023  0.00  0.00    +0.000 C 
ATOM      2  C   UNL     1       4.178   3.435  17.927  0.00  0.00    +0.000 A 
ATOM      3  C   UNL     1       5.073   3.787  18.945  0.00  0.00    +0.000 A 
ATOM      4  C   UNL     1       5.923   4.800  18.515  0.00  0.00    +0.000 A 
ATOM      5  C   UNL     1       5.723   5.224  17.255  0.00  0.00    +0.000 A 
ATOM      6  S   UNL     1       4.460   4.382  16.539  0.00  0.00    +0.000 S 
ATOM      7  C   UNL     1       6.660   6.299  16.818  0.00  0.00    +0.000 C 
ATOM      8  C   UNL     1       7.541   6.530  18.092  0.00  0.00    +0.000 C 
ATOM      9  C   UNL     1       7.010   5.543  19.098  0.00  0.00    +0.000 C 
ATOM     10  O   UNL     1       7.428   5.400  20.235  0.00  0.00    +0.000 OA
ENDROOT
BRANCH   7  11
ATOM     11  N   UNL     1       7.451   5.843  15.677  0.00  0.00    +0.000 NA
ATOM     12  H   UNL     1       8.020   6.633  15.292  0.00  0.00    +0.000 HD
ATOM     13  H   UNL     1       6.805   5.503  14.927  0.00  0.00    +0.000 HD
ENDBRANCH   7  11
TORSDOF 1
ENDMDL
MODEL 2
REMARK VINA RESULT:      -5.4      4.155      5.588
REMARK  Name = 
REMARK  2 active torsions:
REMARK  status: ('A' for Active; 'I' for Inactive)
REMARK    1  A    between atoms: C_1  and  C_2
REMARK    2  A    between atoms: C_7  and  N_8
REMARK                            x       y       z     vdW  Elec       q    Type
REMARK                         _______ _______ _______ _____ _____    ______ ____
ROOT
ATOM      1  C   UNL     1       5.198   3.957  16.410  0.00  0.00    +0.000 C 
ATOM      2  C   UNL     1       4.218   3.729  17.510  0.00  0.00    +0.000 A 
ATOM      3  C   UNL     1       2.931   3.197  17.358  0.00  0.00    +0.000 A 
ATOM      4  C   UNL     1       2.290   3.120  18.590  0.00  0.00    +0.000 A 
ATOM      5  C   UNL     1       3.007   3.556  19.641  0.00  0.00    +0.000 A 
ATOM      6  S   UNL     1       4.519   4.089  19.148  0.00  0.00    +0.000 S 
ATOM      7  C   UNL     1       2.298   3.445  20.948  0.00  0.00    +0.000 C 
ATOM      8  C   UNL     1       0.909   2.848  20.541  0.00  0.00    +0.000 C 
ATOM      9  C   UNL     1       1.001   2.673  19.048  0.00  0.00    +0.000 C 
ATOM     10  O   UNL     1       0.116   2.230  18.334  0.00  0.00    +0.000 OA
ENDROOT
BRANCH   7  11
ATOM     11  N   UNL     1       3.037   2.560  21.846  0.00  0.00    +0.000 NA
ATOM     12  H   UNL     1       4.064   2.624  21.654  0.00  0.00    +0.000 HD
ATOM     13  H   UNL     1       2.729   1.573  21.683  0.00  0.00    +0.000 HD
ENDBRANCH   7  11
TORSDOF 1
ENDMDL
MODEL 3
REMARK VINA RESULT:      -5.4      3.225      4.766
REMARK  Name = 
REMARK  2 active torsions:
REMARK  status: ('A' for Active; 'I' for Inactive)
REMARK    1  A    between atoms: C_1  and  C_2
REMARK    2  A    between atoms: C_7  and  N_8
REMARK                            x       y       z     vdW  Elec       q    Type
REMARK                         _______ _______ _______ _____ _____    ______ ____
ROOT
ATOM      1  C   UNL     1       5.765   6.844  16.862  0.00  0.00    +0.000 C 
ATOM      2  C   UNL     1       5.087   5.736  17.593  0.00  0.00    +0.000 A 
ATOM      3  C   UNL     1       3.826   5.208  17.288  0.00  0.00    +0.000 A 
ATOM      4  C   UNL     1       3.502   4.183  18.171  0.00  0.00    +0.000 A 
ATOM      5  C   UNL     1       4.430   3.914  19.107  0.00  0.00    +0.000 A 
ATOM      6  S   UNL     1       5.755   4.928  18.937  0.00  0.00    +0.000 S 
ATOM      7  C   UNL     1       4.060   2.801  20.027  0.00  0.00    +0.000 C 
ATOM      8  C   UNL     1       2.641   2.381  19.513  0.00  0.00    +0.000 C 
ATOM      9  C   UNL     1       2.381   3.298  18.347  0.00  0.00    +0.000 C 
ATOM     10  O   UNL     1       1.371   3.298  17.662  0.00  0.00    +0.000 OA
ENDROOT
BRANCH   7  11
ATOM     11  N   UNL     1       5.030   1.713  19.915  0.00  0.00    +0.000 NA
ATOM     12  H   UNL     1       5.511   1.561  20.833  0.00  0.00    +0.000 HD
ATOM     13  H   UNL     1       5.750   1.969  19.201  0.00  0.00    +0.000 HD
ENDBRANCH   7  11
TORSDOF 1
ENDMDL
MODEL 4
REMARK VINA RESULT:      -5.3      2.489      2.990
REMARK  Name = 
REMARK  2 active torsions:
REMARK  status: ('A' for Active; 'I' for Inactive)
REMARK    1  A    between atoms: C_1  and  C_2
REMARK    2  A    between atoms: C_7  and  N_8
REMARK                            x       y       z     vdW  Elec       q    Type
REMARK                         _______ _______ _______ _____ _____    ______ ____
ROOT
ATOM      1  C   UNL     1       0.780   2.549  18.862  0.00  0.00    +0.000 C 
ATOM      2  C   UNL     1       1.977   3.328  18.435  0.00  0.00    +0.000 A 
ATOM      3  C   UNL     1       2.044   4.723  18.323  0.00  0.00    +0.000 A 
ATOM      4  C   UNL     1       3.311   5.115  17.901  0.00  0.00    +0.000 A 
ATOM      5  C   UNL     1       4.184   4.114  17.693  0.00  0.00    +0.000 A 
ATOM      6  S   UNL     1       3.471   2.629  18.009  0.00  0.00    +0.000 S 
ATOM      7  C   UNL     1       5.536   4.567  17.258  0.00  0.00    +0.000 C 
ATOM      8  C   UNL     1       5.378   6.124  17.194  0.00  0.00    +0.000 C 
ATOM      9  C   UNL     1       3.954   6.371  17.620  0.00  0.00    +0.000 C 
ATOM     10  O   UNL     1       3.423   7.467  17.704  0.00  0.00    +0.000 OA
ENDROOT
BRANCH   7  11
ATOM     11  N   UNL     1       6.543   4.156  18.235  0.00  0.00    +0.000 NA
ATOM     12  H   UNL     1       6.456   3.131  18.433  0.00  0.00    +0.000 HD
ATOM     13  H   UNL     1       6.389   4.681  19.126  0.00  0.00    +0.000 HD
ENDBRANCH   7  11
TORSDOF 1
ENDMDL
MODEL 5
REMARK VINA RESULT:      -5.3      2.684      3.095
REMARK  Name = 
REMARK  2 active torsions:
REMARK  status: ('A' for Active; 'I' for Inactive)
REMARK    1  A    between atoms: C_1  and  C_2
REMARK    2  A    between atoms: C_7  and  N_8
REMARK                            x       y       z     vdW  Elec       q    Type
REMARK                         _______ _______ _______ _____ _____    ______ ____
ROOT
ATOM      1  C   UNL     1       2.422   5.525  19.962  0.00  0.00    +0.000 C 
ATOM      2  C   UNL     1       3.514   5.343  18.963  0.00  0.00    +0.000 A 
ATOM      3  C   UNL     1       3.687   6.101  17.798  0.00  0.00    +0.000 A 
ATOM      4  C   UNL     1       4.807   5.664  17.097  0.00  0.00    +0.000 A 
ATOM      5  C   UNL     1       5.474   4.640  17.658  0.00  0.00    +0.000 A 
ATOM      6  S   UNL     1       4.738   4.165  19.089  0.00  0.00    +0.000 S 
ATOM      7  C   UNL     1       6.678   4.207  16.893  0.00  0.00    +0.000 C 
ATOM      8  C   UNL     1       6.667   5.166  15.654  0.00  0.00    +0.000 C 
ATOM      9  C   UNL     1       5.463   6.045  15.874  0.00  0.00    +0.000 C 
ATOM     10  O   UNL     1       5.095   6.936  15.127  0.00  0.00    +0.000 OA
ENDROOT
BRANCH   7  11
ATOM     11  N   UNL     1       7.879   4.375  17.708  0.00  0.00    +0.000 NA
ATOM     12  H   UNL     1       7.623   4.435  18.721  0.00  0.00    +0.000 HD
ATOM     13  H   UNL     1       8.358   5.263  17.433  0.00  0.00    +0.000 HD
ENDBRANCH   7  11
TORSDOF 1
ENDMDL
MODEL 6
REMARK VINA RESULT:      -5.3      3.979      5.191
REMARK  Name = 
REMARK  2 active torsions:
REMARK  status: ('A' for Active; 'I' for Inactive)
REMARK    1  A    between atoms: C_1  and  C_2
REMARK    2  A    between atoms: C_7  and  N_8
REMARK                            x       y       z     vdW  Elec       q    Type
REMARK                         _______ _______ _______ _____ _____    ______ ____
ROOT
ATOM      1  C   UNL     1       3.466   7.425  17.574  0.00  0.00    +0.000 C 
ATOM      2  C   UNL     1       3.291   6.075  18.181  0.00  0.00    +0.000 A 
ATOM      3  C   UNL     1       2.208   5.215  17.958  0.00  0.00    +0.000 A 
ATOM      4  C   UNL     1       2.367   4.037  18.681  0.00  0.00    +0.000 A 
ATOM      5  C   UNL     1       3.487   3.963  19.421  0.00  0.00    +0.000 A 
ATOM      6  S   UNL     1       4.400   5.360  19.258  0.00  0.00    +0.000 S 
ATOM      7  C   UNL     1       3.636   2.682  20.171  0.00  0.00    +0.000 C 
ATOM      8  C   UNL     1       2.336   1.900  19.785  0.00  0.00    +0.000 C 
ATOM      9  C   UNL     1       1.608   2.825  18.845  0.00  0.00    +0.000 C 
ATOM     10  O   UNL     1       0.537   2.589  18.312  0.00  0.00    +0.000 OA
ENDROOT
BRANCH   7  11
ATOM     11  N   UNL     1       4.846   1.985  19.739  0.00  0.00    +0.000 NA
ATOM     12  H   UNL     1       5.058   2.215  18.739  0.00  0.00    +0.000 HD
ATOM     13  H   UNL     1       4.694   0.954  19.817  0.00  0.00    +0.000 HD
ENDBRANCH   7  11
TORSDOF 1
ENDMDL
MODEL 7
REMARK VINA RESULT:      -5.2      4.804      5.913
REMARK  Name = 
REMARK  2 active torsions:
REMARK  status: ('A' for Active; 'I' for Inactive)
REMARK    1  A    between atoms: C_1  and  C_2
REMARK    2  A    between atoms: C_7  and  N_8
REMARK                            x       y       z     vdW  Elec       q    Type
REMARK                         _______ _______ _______ _____ _____    ______ ____
ROOT
ATOM      1  C   UNL     1       2.722   7.914  18.237  0.00  0.00    +0.000 C 
ATOM      2  C   UNL     1       2.376   6.553  18.740  0.00  0.00    +0.000 A 
ATOM      3  C   UNL     1       2.401   5.374  17.984  0.00  0.00    +0.000 A 
ATOM      4  C   UNL     1       2.024   4.288  18.767  0.00  0.00    +0.000 A 
ATOM      5  C   UNL     1       1.721   4.576  20.044  0.00  0.00    +0.000 A 
ATOM      6  S   UNL     1       1.889   6.219  20.338  0.00  0.00    +0.000 S 
ATOM      7  C   UNL     1       1.336   3.390  20.861  0.00  0.00    +0.000 C 
ATOM      8  C   UNL     1       1.424   2.214  19.830  0.00  0.00    +0.000 C 
ATOM      9  C   UNL     1       1.868   2.874  18.550  0.00  0.00    +0.000 C 
ATOM     10  O   UNL     1       2.057   2.300  17.490  0.00  0.00    +0.000 OA
ENDROOT
BRANCH   7  11
ATOM     11  N   UNL     1       2.271   3.219  21.971  0.00  0.00    +0.000 NA
ATOM     12  H   UNL     1       3.246   3.439  21.660  0.00  0.00    +0.000 HD
ATOM     13  H   UNL     1       2.242   2.225  22.293  0.00  0.00    +0.000 HD
ENDBRANCH   7  11
TORSDOF 1
ENDMDL
MODEL 8
REMARK VINA RESULT:      -5.2      2.351      2.675
REMARK  Name = 
REMARK  2 active torsions:
REMARK  status: ('A' for Active; 'I' for Inactive)
REMARK    1  A    between atoms: C_1  and  C_2
REMARK    2  A    between atoms: C_7  and  N_8
REMARK                            x       y       z     vdW  Elec       q    Type
REMARK                         _______ _______ _______ _____ _____    ______ ____
ROOT
ATOM      1  C   UNL     1       1.806   3.178  18.466  0.00  0.00    +0.000 C 
ATOM      2  C   UNL     1       3.149   3.796  18.270  0.00  0.00    +0.000 A 
ATOM      3  C   UNL     1       3.463   4.781  17.325  0.00  0.00    +0.000 A 
ATOM      4  C   UNL     1       4.806   5.132  17.418  0.00  0.00    +0.000 A 
ATOM      5  C   UNL     1       5.507   4.480  18.361  0.00  0.00    +0.000 A 
ATOM      6  S   UNL     1       4.530   3.391  19.181  0.00  0.00    +0.000 S 
ATOM      7  C   UNL     1       6.939   4.890  18.446  0.00  0.00    +0.000 C 
ATOM      8  C   UNL     1       7.059   5.968  17.317  0.00  0.00    +0.000 C 
ATOM      9  C   UNL     1       5.673   6.055  16.734  0.00  0.00    +0.000 C 
ATOM     10  O   UNL     1       5.338   6.787  15.818  0.00  0.00    +0.000 OA
ENDROOT
BRANCH   7  11
ATOM     11  N   UNL     1       7.224   5.444  19.769  0.00  0.00    +0.000 NA
ATOM     12  H   UNL     1       6.495   5.136  20.455  0.00  0.00    +0.000 HD
ATOM     13  H   UNL     1       7.209   6.488  19.713  0.00  0.00    +0.000 HD
ENDBRANCH   7  11
TORSDOF 1
ENDMDL
MODEL 9
REMARK VINA RESULT:      -5.2      2.989      3.481
REMARK  Name = 
REMARK  2 active torsions:
REMARK  status: ('A' for Active; 'I' for Inactive)
REMARK    1  A    between atoms: C_1  and  C_2
REMARK    2  A    between atoms: C_7  and  N_8
REMARK                            x       y       z     vdW  Elec       q    Type
REMARK                         _______ _______ _______ _____ _____    ______ ____
ROOT
ATOM      1  C   UNL     1       1.647   2.559  21.578  0.00  0.00    +0.000 C 
ATOM      2  C   UNL     1       2.445   3.218  20.505  0.00  0.00    +0.000 A 
ATOM      3  C   UNL     1       2.243   4.517  20.020  0.00  0.00    +0.000 A 
ATOM      4  C   UNL     1       3.167   4.812  19.023  0.00  0.00    +0.000 A 
ATOM      5  C   UNL     1       4.036   3.827  18.734  0.00  0.00    +0.000 A 
ATOM      6  S   UNL     1       3.746   2.480  19.690  0.00  0.00    +0.000 S 
ATOM      7  C   UNL     1       5.023   4.180  17.674  0.00  0.00    +0.000 C 
ATOM      8  C   UNL     1       4.609   5.639  17.284  0.00  0.00    +0.000 C 
ATOM      9  C   UNL     1       3.443   5.949  18.186  0.00  0.00    +0.000 C 
ATOM     10  O   UNL     1       2.822   6.999  18.199  0.00  0.00    +0.000 OA
ENDROOT
BRANCH   7  11
ATOM     11  N   UNL     1       6.381   4.118  18.211  0.00  0.00    +0.000 NA
ATOM     12  H   UNL     1       6.890   3.292  17.815  0.00  0.00    +0.000 HD
ATOM     13  H   UNL     1       6.334   4.011  19.250  0.00  0.00    +0.000 HD
ENDBRANCH   7  11
TORSDOF 1
ENDMDL
