MODEL 1
REMARK VINA RESULT:      -7.9      0.000      0.000
REMARK  Name = 
REMARK  9 active torsions:
REMARK  status: ('A' for Active; 'I' for Inactive)
REMARK    1  A    between atoms: C_1  and  N_2
REMARK    2  A    between atoms: N_2  and  C_3
REMARK    3  A    between atoms: N_2  and  C_23
REMARK    4  A    between atoms: C_3  and  C_4
REMARK    5  A    between atoms: C_4  and  O_5
REMARK    6  A    between atoms: O_5  and  C_6
REMARK    7  A    between atoms: N_8  and  C_9
REMARK    8  A    between atoms: C_23  and  C_24
REMARK    9  A    between atoms: C_24  and  N_25
REMARK                            x       y       z     vdW  Elec       q    Type
REMARK                         _______ _______ _______ _____ _____    ______ ____
ROOT
ATOM      1  C   UNL     1       6.883   6.601  17.156  0.00  0.00    +0.000 A 
ATOM      2  C   UNL     1       6.048   6.382  18.224  0.00  0.00    +0.000 A 
ATOM      3  N   UNL     1       5.268   5.273  17.967  0.00  0.00    +0.000 N 
ATOM      4  C   UNL     1       5.553   4.821  16.676  0.00  0.00    +0.000 A 
ATOM      5  C   UNL     1       4.971   3.810  15.883  0.00  0.00    +0.000 A 
ATOM      6  C   UNL     1       5.461   3.602  14.591  0.00  0.00    +0.000 A 
ATOM      7  C   UNL     1       6.490   4.388  14.088  0.00  0.00    +0.000 A 
ATOM      8 CL   UNL     1       7.055   4.120  12.483  0.00  0.00    +0.000 Cl
ATOM      9  C   UNL     1       7.052   5.408  14.856  0.00  0.00    +0.000 A 
ATOM     10  C   UNL     1       6.571   5.640  16.162  0.00  0.00    +0.000 A 
ENDROOT
BRANCH   3  11
ATOM     11  C   UNL     1       4.347   4.725  18.909  0.00  0.00    +0.000 A 
ATOM     12  C   UNL     1       3.339   5.539  19.451  0.00  0.00    +0.000 A 
ATOM     13  C   UNL     1       2.442   5.015  20.383  0.00  0.00    +0.000 A 
ATOM     14  C   UNL     1       2.567   3.692  20.785  0.00  0.00    +0.000 A 
ATOM     15  F   UNL     1       1.711   3.192  21.688  0.00  0.00    +0.000 F 
ATOM     16  C   UNL     1       3.571   2.879  20.272  0.00  0.00    +0.000 A 
ATOM     17  C   UNL     1       4.466   3.394  19.331  0.00  0.00    +0.000 A 
ENDBRANCH   3  11
BRANCH   1  18
ATOM     18  O   UNL     1       7.833   7.564  17.036  0.00  0.00    +0.000 OA
BRANCH  18  19
ATOM     19  C   UNL     1       8.260   8.118  18.287  0.00  0.00    +0.000 C 
BRANCH  19  20
ATOM     20  C   UNL     1       8.334   9.649  18.176  0.00  0.00    +0.000 C 
BRANCH  20  22
ATOM     21  C   UNL     1       9.261  10.741  20.146  0.00  0.00    +0.000 C 
ATOM     22  N   UNL     1       9.540  10.248  18.793  0.00  0.00    +0.000 NA
BRANCH  22  23
ATOM     23  C   UNL     1      10.049  11.334  17.928  0.00  0.00    +0.000 C 
BRANCH  23  24
ATOM     24  C   UNL     1      10.322  12.694  18.611  0.00  0.00    +0.000 C 
BRANCH  24  25
ATOM     25  N   UNL     1       9.453  13.777  18.190  0.00  0.00    +0.000 N 
ATOM     26  C   UNL     1       8.051  13.603  17.879  0.00  0.00    +0.000 C 
ATOM     27  C   UNL     1       7.555  15.041  17.796  0.00  0.00    +0.000 C 
ATOM     28  N   UNL     1       8.747  15.782  17.481  0.00  0.00    +0.000 N 
ATOM     29  C   UNL     1       9.873  15.060  17.860  0.00  0.00    +0.000 C 
ATOM     30  O   UNL     1      10.999  15.521  17.924  0.00  0.00    +0.000 OA
ATOM     31  H   UNL     1       8.818  16.787  17.404  0.00  0.00    +0.000 HD
ENDBRANCH  24  25
ENDBRANCH  23  24
ENDBRANCH  22  23
ENDBRANCH  20  22
ENDBRANCH  19  20
ENDBRANCH  18  19
ENDBRANCH   1  18
TORSDOF 8
ENDMDL
MODEL 2
REMARK VINA RESULT:      -7.7      6.648      9.777
REMARK  Name = 
REMARK  9 active torsions:
REMARK  status: ('A' for Active; 'I' for Inactive)
REMARK    1  A    between atoms: C_1  and  N_2
REMARK    2  A    between atoms: N_2  and  C_3
REMARK    3  A    between atoms: N_2  and  C_23
REMARK    4  A    between atoms: C_3  and  C_4
REMARK    5  A    between atoms: C_4  and  O_5
REMARK    6  A    between atoms: O_5  and  C_6
REMARK    7  A    between atoms: N_8  and  C_9
REMARK    8  A    between atoms: C_23  and  C_24
REMARK    9  A    between atoms: C_24  and  N_25
REMARK                            x       y       z     vdW  Elec       q    Type
REMARK                         _______ _______ _______ _____ _____    ______ ____
ROOT
ATOM      1  C   UNL     1       0.824  10.017  18.942  0.00  0.00    +0.000 A 
ATOM      2  C   UNL     1       0.896  10.801  20.068  0.00  0.00    +0.000 A 
ATOM      3  N   UNL     1      -0.315  11.437  20.252  0.00  0.00    +0.000 N 
ATOM      4  C   UNL     1      -1.152  11.116  19.180  0.00  0.00    +0.000 A 
ATOM      5  C   UNL     1      -2.435  11.576  18.817  0.00  0.00    +0.000 A 
ATOM      6  C   UNL     1      -3.021  11.082  17.648  0.00  0.00    +0.000 A 
ATOM      7  C   UNL     1      -2.346  10.170  16.848  0.00  0.00    +0.000 A 
ATOM      8 CL   UNL     1      -3.089   9.599  15.402  0.00  0.00    +0.000 Cl
ATOM      9  C   UNL     1      -1.066   9.730  17.185  0.00  0.00    +0.000 A 
ATOM     10  C   UNL     1      -0.451  10.219  18.358  0.00  0.00    +0.000 A 
ENDROOT
BRANCH   3  11
ATOM     11  C   UNL     1      -0.604  12.267  21.377  0.00  0.00    +0.000 A 
ATOM     12  C   UNL     1      -1.495  11.817  22.364  0.00  0.00    +0.000 A 
ATOM     13  C   UNL     1      -1.793  12.627  23.460  0.00  0.00    +0.000 A 
ATOM     14  C   UNL     1      -1.218  13.888  23.557  0.00  0.00    +0.000 A 
ATOM     15  F   UNL     1      -1.512  14.669  24.605  0.00  0.00    +0.000 F 
ATOM     16  C   UNL     1      -0.349  14.355  22.578  0.00  0.00    +0.000 A 
ATOM     17  C   UNL     1      -0.038  13.545  21.483  0.00  0.00    +0.000 A 
ENDBRANCH   3  11
BRANCH   1  18
ATOM     18  O   UNL     1       1.787   9.199  18.445  0.00  0.00    +0.000 OA
BRANCH  18  19
ATOM     19  C   UNL     1       1.996   8.010  19.218  0.00  0.00    +0.000 C 
BRANCH  19  20
ATOM     20  C   UNL     1       2.530   6.891  18.310  0.00  0.00    +0.000 C 
BRANCH  20  22
ATOM     21  C   UNL     1       2.114   5.509  20.273  0.00  0.00    +0.000 C 
ATOM     22  N   UNL     1       2.870   5.637  19.022  0.00  0.00    +0.000 NA
BRANCH  22  23
ATOM     23  C   UNL     1       4.326   5.595  19.278  0.00  0.00    +0.000 C 
BRANCH  23  24
ATOM     24  C   UNL     1       5.062   4.295  18.880  0.00  0.00    +0.000 C 
BRANCH  24  25
ATOM     25  N   UNL     1       5.909   4.405  17.707  0.00  0.00    +0.000 N 
ATOM     26  C   UNL     1       5.448   4.153  16.360  0.00  0.00    +0.000 C 
ATOM     27  C   UNL     1       6.598   4.687  15.516  0.00  0.00    +0.000 C 
ATOM     28  N   UNL     1       7.724   4.609  16.408  0.00  0.00    +0.000 N 
ATOM     29  C   UNL     1       7.288   4.586  17.728  0.00  0.00    +0.000 C 
ATOM     30  O   UNL     1       8.010   4.747  18.696  0.00  0.00    +0.000 OA
ATOM     31  H   UNL     1       8.660   4.934  16.211  0.00  0.00    +0.000 HD
ENDBRANCH  24  25
ENDBRANCH  23  24
ENDBRANCH  22  23
ENDBRANCH  20  22
ENDBRANCH  19  20
ENDBRANCH  18  19
ENDBRANCH   1  18
TORSDOF 8
ENDMDL
MODEL 3
REMARK VINA RESULT:      -7.7      6.371      8.838
REMARK  Name = 
REMARK  9 active torsions:
REMARK  status: ('A' for Active; 'I' for Inactive)
REMARK    1  A    between atoms: C_1  and  N_2
REMARK    2  A    between atoms: N_2  and  C_3
REMARK    3  A    between atoms: N_2  and  C_23
REMARK    4  A    between atoms: C_3  and  C_4
REMARK    5  A    between atoms: C_4  and  O_5
REMARK    6  A    between atoms: O_5  and  C_6
REMARK    7  A    between atoms: N_8  and  C_9
REMARK    8  A    between atoms: C_23  and  C_24
REMARK    9  A    between atoms: C_24  and  N_25
REMARK                            x       y       z     vdW  Elec       q    Type
REMARK                         _______ _______ _______ _____ _____    ______ ____
ROOT
ATOM      1  C   UNL     1       2.707   6.609  19.223  0.00  0.00    +0.000 A 
ATOM      2  C   UNL     1       3.615   6.739  18.201  0.00  0.00    +0.000 A 
ATOM      3  N   UNL     1       4.132   5.496  17.895  0.00  0.00    +0.000 N 
ATOM      4  C   UNL     1       3.603   4.564  18.793  0.00  0.00    +0.000 A 
ATOM      5  C   UNL     1       3.877   3.196  18.998  0.00  0.00    +0.000 A 
ATOM      6  C   UNL     1       3.195   2.519  20.012  0.00  0.00    +0.000 A 
ATOM      7  C   UNL     1       2.278   3.183  20.816  0.00  0.00    +0.000 A 
ATOM      8 CL   UNL     1       1.471   2.322  22.072  0.00  0.00    +0.000 Cl
ATOM      9  C   UNL     1       2.021   4.542  20.637  0.00  0.00    +0.000 A 
ATOM     10  C   UNL     1       2.702   5.249  19.623  0.00  0.00    +0.000 A 
ENDROOT
BRANCH   3  11
ATOM     11  C   UNL     1       5.046   5.267  16.824  0.00  0.00    +0.000 A 
ATOM     12  C   UNL     1       6.289   5.920  16.818  0.00  0.00    +0.000 A 
ATOM     13  C   UNL     1       7.183   5.713  15.767  0.00  0.00    +0.000 A 
ATOM     14  C   UNL     1       6.827   4.873  14.719  0.00  0.00    +0.000 A 
ATOM     15  F   UNL     1       7.683   4.682  13.705  0.00  0.00    +0.000 F 
ATOM     16  C   UNL     1       5.592   4.236  14.701  0.00  0.00    +0.000 A 
ATOM     17  C   UNL     1       4.695   4.431  15.755  0.00  0.00    +0.000 A 
ENDBRANCH   3  11
BRANCH   1  18
ATOM     18  O   UNL     1       1.949   7.587  19.781  0.00  0.00    +0.000 OA
BRANCH  18  19
ATOM     19  C   UNL     1       1.735   8.717  18.925  0.00  0.00    +0.000 C 
BRANCH  19  20
ATOM     20  C   UNL     1       0.883   9.766  19.657  0.00  0.00    +0.000 C 
BRANCH  20  22
ATOM     21  C   UNL     1       0.813  12.081  18.900  0.00  0.00    +0.000 C 
ATOM     22  N   UNL     1       0.221  10.745  18.764  0.00  0.00    +0.000 NA
BRANCH  22  23
ATOM     23  C   UNL     1      -1.229  10.776  19.056  0.00  0.00    +0.000 C 
BRANCH  23  24
ATOM     24  C   UNL     1      -2.008  12.017  18.563  0.00  0.00    +0.000 C 
BRANCH  24  25
ATOM     25  N   UNL     1      -3.279  11.728  17.924  0.00  0.00    +0.000 N 
ATOM     26  C   UNL     1      -4.548  11.755  18.618  0.00  0.00    +0.000 C 
ATOM     27  C   UNL     1      -5.548  11.686  17.471  0.00  0.00    +0.000 C 
ATOM     28  N   UNL     1      -4.797  11.058  16.418  0.00  0.00    +0.000 N 
ATOM     29  C   UNL     1      -3.434  11.221  16.639  0.00  0.00    +0.000 C 
ATOM     30  O   UNL     1      -2.568  10.996  15.811  0.00  0.00    +0.000 OA
ATOM     31  H   UNL     1      -5.119  10.896  15.475  0.00  0.00    +0.000 HD
ENDBRANCH  24  25
ENDBRANCH  23  24
ENDBRANCH  22  23
ENDBRANCH  20  22
ENDBRANCH  19  20
ENDBRANCH  18  19
ENDBRANCH   1  18
TORSDOF 8
ENDMDL
MODEL 4
REMARK VINA RESULT:      -7.6      1.077      1.451
REMARK  Name = 
REMARK  9 active torsions:
REMARK  status: ('A' for Active; 'I' for Inactive)
REMARK    1  A    between atoms: C_1  and  N_2
REMARK    2  A    between atoms: N_2  and  C_3
REMARK    3  A    between atoms: N_2  and  C_23
REMARK    4  A    between atoms: C_3  and  C_4
REMARK    5  A    between atoms: C_4  and  O_5
REMARK    6  A    between atoms: O_5  and  C_6
REMARK    7  A    between atoms: N_8  and  C_9
REMARK    8  A    between atoms: C_23  and  C_24
REMARK    9  A    between atoms: C_24  and  N_25
REMARK                            x       y       z     vdW  Elec       q    Type
REMARK                         _______ _______ _______ _____ _____    ______ ____
ROOT
ATOM      1  C   UNL     1       7.006   6.437  16.990  0.00  0.00    +0.000 A 
ATOM      2  C   UNL     1       6.093   6.228  17.995  0.00  0.00    +0.000 A 
ATOM      3  N   UNL     1       5.256   5.191  17.636  0.00  0.00    +0.000 N 
ATOM      4  C   UNL     1       5.589   4.781  16.342  0.00  0.00    +0.000 A 
ATOM      5  C   UNL     1       4.989   3.853  15.466  0.00  0.00    +0.000 A 
ATOM      6  C   UNL     1       5.544   3.672  14.195  0.00  0.00    +0.000 A 
ATOM      7  C   UNL     1       6.653   4.405  13.795  0.00  0.00    +0.000 A 
ATOM      8 CL   UNL     1       7.297   4.173  12.214  0.00  0.00    +0.000 Cl
ATOM      9  C   UNL     1       7.236   5.345  14.646  0.00  0.00    +0.000 A 
ATOM     10  C   UNL     1       6.691   5.549  15.931  0.00  0.00    +0.000 A 
ENDROOT
BRANCH   3  11
ATOM     11  C   UNL     1       4.243   4.667  18.493  0.00  0.00    +0.000 A 
ATOM     12  C   UNL     1       3.016   5.339  18.613  0.00  0.00    +0.000 A 
ATOM     13  C   UNL     1       2.025   4.842  19.459  0.00  0.00    +0.000 A 
ATOM     14  C   UNL     1       2.268   3.689  20.195  0.00  0.00    +0.000 A 
ATOM     15  F   UNL     1       1.318   3.217  21.015  0.00  0.00    +0.000 F 
ATOM     16  C   UNL     1       3.484   3.023  20.102  0.00  0.00    +0.000 A 
ATOM     17  C   UNL     1       4.478   3.510  19.249  0.00  0.00    +0.000 A 
ENDBRANCH   3  11
BRANCH   1  18
ATOM     18  O   UNL     1       8.026   7.334  16.976  0.00  0.00    +0.000 OA
BRANCH  18  19
ATOM     19  C   UNL     1       7.722   8.569  17.636  0.00  0.00    +0.000 C 
BRANCH  19  20
ATOM     20  C   UNL     1       8.599   8.714  18.890  0.00  0.00    +0.000 C 
BRANCH  20  22
ATOM     21  C   UNL     1       9.297  10.624  20.232  0.00  0.00    +0.000 C 
ATOM     22  N   UNL     1       9.406   9.955  18.931  0.00  0.00    +0.000 NA
BRANCH  22  23
ATOM     23  C   UNL     1       8.981  10.855  17.836  0.00  0.00    +0.000 C 
BRANCH  23  24
ATOM     24  C   UNL     1       8.999  12.370  18.139  0.00  0.00    +0.000 C 
BRANCH  24  25
ATOM     25  N   UNL     1      10.205  13.064  17.725  0.00  0.00    +0.000 N 
ATOM     26  C   UNL     1      11.457  12.396  17.449  0.00  0.00    +0.000 C 
ATOM     27  C   UNL     1      12.274  13.495  16.785  0.00  0.00    +0.000 C 
ATOM     28  N   UNL     1      11.670  14.701  17.284  0.00  0.00    +0.000 N 
ATOM     29  C   UNL     1      10.372  14.444  17.711  0.00  0.00    +0.000 C 
ATOM     30  O   UNL     1       9.547  15.303  17.971  0.00  0.00    +0.000 OA
ATOM     31  H   UNL     1      11.914  15.643  17.014  0.00  0.00    +0.000 HD
ENDBRANCH  24  25
ENDBRANCH  23  24
ENDBRANCH  22  23
ENDBRANCH  20  22
ENDBRANCH  19  20
ENDBRANCH  18  19
ENDBRANCH   1  18
TORSDOF 8
ENDMDL
MODEL 5
REMARK VINA RESULT:      -7.6      6.458      8.860
REMARK  Name = 
REMARK  9 active torsions:
REMARK  status: ('A' for Active; 'I' for Inactive)
REMARK    1  A    between atoms: C_1  and  N_2
REMARK    2  A    between atoms: N_2  and  C_3
REMARK    3  A    between atoms: N_2  and  C_23
REMARK    4  A    between atoms: C_3  and  C_4
REMARK    5  A    between atoms: C_4  and  O_5
REMARK    6  A    between atoms: O_5  and  C_6
REMARK    7  A    between atoms: N_8  and  C_9
REMARK    8  A    between atoms: C_23  and  C_24
REMARK    9  A    between atoms: C_24  and  N_25
REMARK                            x       y       z     vdW  Elec       q    Type
REMARK                         _______ _______ _______ _____ _____    ______ ____
ROOT
ATOM      1  C   UNL     1       2.553   6.938  19.153  0.00  0.00    +0.000 A 
ATOM      2  C   UNL     1       3.495   7.030  18.158  0.00  0.00    +0.000 A 
ATOM      3  N   UNL     1       4.010   5.774  17.907  0.00  0.00    +0.000 N 
ATOM      4  C   UNL     1       3.444   4.874  18.814  0.00  0.00    +0.000 A 
ATOM      5  C   UNL     1       3.698   3.511  19.069  0.00  0.00    +0.000 A 
ATOM      6  C   UNL     1       2.977   2.869  20.080  0.00  0.00    +0.000 A 
ATOM      7  C   UNL     1       2.040   3.565  20.833  0.00  0.00    +0.000 A 
ATOM      8 CL   UNL     1       1.185   2.749  22.086  0.00  0.00    +0.000 Cl
ATOM      9  C   UNL     1       1.802   4.921  20.605  0.00  0.00    +0.000 A 
ATOM     10  C   UNL     1       2.522   5.591  19.593  0.00  0.00    +0.000 A 
ENDROOT
BRANCH   3  11
ATOM     11  C   UNL     1       4.957   5.505  16.874  0.00  0.00    +0.000 A 
ATOM     12  C   UNL     1       4.645   4.575  15.870  0.00  0.00    +0.000 A 
ATOM     13  C   UNL     1       5.570   4.295  14.863  0.00  0.00    +0.000 A 
ATOM     14  C   UNL     1       6.806   4.929  14.872  0.00  0.00    +0.000 A 
ATOM     15  F   UNL     1       7.697   4.654  13.910  0.00  0.00    +0.000 F 
ATOM     16  C   UNL     1       7.136   5.839  15.870  0.00  0.00    +0.000 A 
ATOM     17  C   UNL     1       6.211   6.131  16.876  0.00  0.00    +0.000 A 
ENDBRANCH   3  11
BRANCH   1  18
ATOM     18  O   UNL     1       1.785   7.939  19.656  0.00  0.00    +0.000 OA
BRANCH  18  19
ATOM     19  C   UNL     1       1.597   9.036  18.754  0.00  0.00    +0.000 C 
BRANCH  19  20
ATOM     20  C   UNL     1       0.314   9.797  19.127  0.00  0.00    +0.000 C 
BRANCH  20  22
ATOM     21  C   UNL     1       0.560  11.698  20.631  0.00  0.00    +0.000 C 
ATOM     22  N   UNL     1       0.485  11.265  19.232  0.00  0.00    +0.000 NA
BRANCH  22  23
ATOM     23  C   UNL     1      -0.627  11.941  18.527  0.00  0.00    +0.000 C 
BRANCH  23  24
ATOM     24  C   UNL     1      -2.059  11.514  18.922  0.00  0.00    +0.000 C 
BRANCH  24  25
ATOM     25  N   UNL     1      -2.973  11.332  17.810  0.00  0.00    +0.000 N 
ATOM     26  C   UNL     1      -2.541  11.125  16.445  0.00  0.00    +0.000 C 
ATOM     27  C   UNL     1      -3.831  10.701  15.756  0.00  0.00    +0.000 C 
ATOM     28  N   UNL     1      -4.853  11.269  16.593  0.00  0.00    +0.000 N 
ATOM     29  C   UNL     1      -4.351  11.507  17.867  0.00  0.00    +0.000 C 
ATOM     30  O   UNL     1      -5.034  11.771  18.841  0.00  0.00    +0.000 OA
ATOM     31  H   UNL     1      -5.849  11.146  16.479  0.00  0.00    +0.000 HD
ENDBRANCH  24  25
ENDBRANCH  23  24
ENDBRANCH  22  23
ENDBRANCH  20  22
ENDBRANCH  19  20
ENDBRANCH  18  19
ENDBRANCH   1  18
TORSDOF 8
ENDMDL
MODEL 6
REMARK VINA RESULT:      -7.5      7.005     10.695
REMARK  Name = 
REMARK  9 active torsions:
REMARK  status: ('A' for Active; 'I' for Inactive)
REMARK    1  A    between atoms: C_1  and  N_2
REMARK    2  A    between atoms: N_2  and  C_3
REMARK    3  A    between atoms: N_2  and  C_23
REMARK    4  A    between atoms: C_3  and  C_4
REMARK    5  A    between atoms: C_4  and  O_5
REMARK    6  A    between atoms: O_5  and  C_6
REMARK    7  A    between atoms: N_8  and  C_9
REMARK    8  A    between atoms: C_23  and  C_24
REMARK    9  A    between atoms: C_24  and  N_25
REMARK                            x       y       z     vdW  Elec       q    Type
REMARK                         _______ _______ _______ _____ _____    ______ ____
ROOT
ATOM      1  C   UNL     1       0.209   9.911  18.439  0.00  0.00    +0.000 A 
ATOM      2  C   UNL     1       0.420  10.627  19.592  0.00  0.00    +0.000 A 
ATOM      3  N   UNL     1      -0.707  11.372  19.873  0.00  0.00    +0.000 N 
ATOM      4  C   UNL     1      -1.628  11.190  18.837  0.00  0.00    +0.000 A 
ATOM      5  C   UNL     1      -2.873  11.795  18.568  0.00  0.00    +0.000 A 
ATOM      6  C   UNL     1      -3.567  11.422  17.414  0.00  0.00    +0.000 A 
ATOM      7  C   UNL     1      -3.033  10.487  16.537  0.00  0.00    +0.000 A 
ATOM      8 CL   UNL     1      -3.906  10.067  15.112  0.00  0.00    +0.000 Cl
ATOM      9  C   UNL     1      -1.790   9.905  16.781  0.00  0.00    +0.000 A 
ATOM     10  C   UNL     1      -1.068  10.269  17.937  0.00  0.00    +0.000 A 
ENDROOT
BRANCH   3  11
ATOM     11  C   UNL     1      -0.849  12.169  21.048  0.00  0.00    +0.000 A 
ATOM     12  C   UNL     1      -0.105  13.353  21.180  0.00  0.00    +0.000 A 
ATOM     13  C   UNL     1      -0.226  14.131  22.330  0.00  0.00    +0.000 A 
ATOM     14  C   UNL     1      -1.073  13.718  23.352  0.00  0.00    +0.000 A 
ATOM     15  F   UNL     1      -1.182  14.462  24.461  0.00  0.00    +0.000 F 
ATOM     16  C   UNL     1      -1.801  12.540  23.244  0.00  0.00    +0.000 A 
ATOM     17  C   UNL     1      -1.692  11.759  22.090  0.00  0.00    +0.000 A 
ENDBRANCH   3  11
BRANCH   1  18
ATOM     18  O   UNL     1       1.055   9.026  17.852  0.00  0.00    +0.000 OA
BRANCH  18  19
ATOM     19  C   UNL     1       2.004   8.443  18.754  0.00  0.00    +0.000 C 
BRANCH  19  20
ATOM     20  C   UNL     1       3.063   7.664  17.957  0.00  0.00    +0.000 C 
BRANCH  20  22
ATOM     21  C   UNL     1       4.583   5.760  17.994  0.00  0.00    +0.000 C 
ATOM     22  N   UNL     1       3.280   6.276  18.427  0.00  0.00    +0.000 NA
BRANCH  22  23
ATOM     23  C   UNL     1       2.181   5.413  17.942  0.00  0.00    +0.000 C 
BRANCH  23  24
ATOM     24  C   UNL     1       2.358   3.890  18.137  0.00  0.00    +0.000 C 
BRANCH  24  25
ATOM     25  N   UNL     1       2.253   3.432  19.510  0.00  0.00    +0.000 N 
ATOM     26  C   UNL     1       1.097   3.668  20.346  0.00  0.00    +0.000 C 
ATOM     27  C   UNL     1       1.362   2.753  21.534  0.00  0.00    +0.000 C 
ATOM     28  N   UNL     1       2.792   2.602  21.520  0.00  0.00    +0.000 N 
ATOM     29  C   UNL     1       3.289   2.877  20.251  0.00  0.00    +0.000 C 
ATOM     30  O   UNL     1       4.422   2.618  19.883  0.00  0.00    +0.000 OA
ATOM     31  H   UNL     1       3.332   2.010  22.136  0.00  0.00    +0.000 HD
ENDBRANCH  24  25
ENDBRANCH  23  24
ENDBRANCH  22  23
ENDBRANCH  20  22
ENDBRANCH  19  20
ENDBRANCH  18  19
ENDBRANCH   1  18
TORSDOF 8
ENDMDL
MODEL 7
REMARK VINA RESULT:      -7.3      6.038      8.215
REMARK  Name = 
REMARK  9 active torsions:
REMARK  status: ('A' for Active; 'I' for Inactive)
REMARK    1  A    between atoms: C_1  and  N_2
REMARK    2  A    between atoms: N_2  and  C_3
REMARK    3  A    between atoms: N_2  and  C_23
REMARK    4  A    between atoms: C_3  and  C_4
REMARK    5  A    between atoms: C_4  and  O_5
REMARK    6  A    between atoms: O_5  and  C_6
REMARK    7  A    between atoms: N_8  and  C_9
REMARK    8  A    between atoms: C_23  and  C_24
REMARK    9  A    between atoms: C_24  and  N_25
REMARK                            x       y       z     vdW  Elec       q    Type
REMARK                         _______ _______ _______ _____ _____    ______ ____
ROOT
ATOM      1  C   UNL     1       2.901   6.892  18.513  0.00  0.00    +0.000 A 
ATOM      2  C   UNL     1       3.801   6.892  17.476  0.00  0.00    +0.000 A 
ATOM      3  N   UNL     1       4.256   5.605  17.273  0.00  0.00    +0.000 N 
ATOM      4  C   UNL     1       3.696   4.778  18.250  0.00  0.00    +0.000 A 
ATOM      5  C   UNL     1       3.908   3.421  18.569  0.00  0.00    +0.000 A 
ATOM      6  C   UNL     1       3.207   2.864  19.643  0.00  0.00    +0.000 A 
ATOM      7  C   UNL     1       2.333   3.637  20.395  0.00  0.00    +0.000 A 
ATOM      8 CL   UNL     1       1.503   2.924  21.726  0.00  0.00    +0.000 Cl
ATOM      9  C   UNL     1       2.138   4.987  20.104  0.00  0.00    +0.000 A 
ATOM     10  C   UNL     1       2.837   5.573  19.027  0.00  0.00    +0.000 A 
ENDROOT
BRANCH   3  11
ATOM     11  C   UNL     1       5.144   5.243  16.216  0.00  0.00    +0.000 A 
ATOM     12  C   UNL     1       6.473   5.694  16.240  0.00  0.00    +0.000 A 
ATOM     13  C   UNL     1       7.345   5.357  15.204  0.00  0.00    +0.000 A 
ATOM     14  C   UNL     1       6.884   4.590  14.142  0.00  0.00    +0.000 A 
ATOM     15  F   UNL     1       7.720   4.274  13.144  0.00  0.00    +0.000 F 
ATOM     16  C   UNL     1       5.567   4.151  14.096  0.00  0.00    +0.000 A 
ATOM     17  C   UNL     1       4.690   4.477  15.134  0.00  0.00    +0.000 A 
ENDBRANCH   3  11
BRANCH   1  18
ATOM     18  O   UNL     1       2.196   7.949  18.992  0.00  0.00    +0.000 OA
BRANCH  18  19
ATOM     19  C   UNL     1       1.622   8.776  17.972  0.00  0.00    +0.000 C 
BRANCH  19  20
ATOM     20  C   UNL     1       1.933  10.252  18.268  0.00  0.00    +0.000 C 
BRANCH  20  22
ATOM     21  C   UNL     1       1.045  12.492  18.626  0.00  0.00    +0.000 C 
ATOM     22  N   UNL     1       0.755  11.055  18.671  0.00  0.00    +0.000 NA
BRANCH  22  23
ATOM     23  C   UNL     1       0.319  10.644  20.024  0.00  0.00    +0.000 C 
BRANCH  23  24
ATOM     24  C   UNL     1       0.369  11.727  21.126  0.00  0.00    +0.000 C 
BRANCH  24  25
ATOM     25  N   UNL     1      -0.872  11.919  21.853  0.00  0.00    +0.000 N 
ATOM     26  C   UNL     1      -1.799  12.996  21.583  0.00  0.00    +0.000 C 
ATOM     27  C   UNL     1      -3.027  12.576  22.380  0.00  0.00    +0.000 C 
ATOM     28  N   UNL     1      -2.480  11.723  23.401  0.00  0.00    +0.000 N 
ATOM     29  C   UNL     1      -1.246  11.225  22.998  0.00  0.00    +0.000 C 
ATOM     30  O   UNL     1      -0.657  10.311  23.548  0.00  0.00    +0.000 OA
ATOM     31  H   UNL     1      -3.010  11.207  24.090  0.00  0.00    +0.000 HD
ENDBRANCH  24  25
ENDBRANCH  23  24
ENDBRANCH  22  23
ENDBRANCH  20  22
ENDBRANCH  19  20
ENDBRANCH  18  19
ENDBRANCH   1  18
TORSDOF 8
ENDMDL
MODEL 8
REMARK VINA RESULT:      -7.3      0.617      1.080
REMARK  Name = 
REMARK  9 active torsions:
REMARK  status: ('A' for Active; 'I' for Inactive)
REMARK    1  A    between atoms: C_1  and  N_2
REMARK    2  A    between atoms: N_2  and  C_3
REMARK    3  A    between atoms: N_2  and  C_23
REMARK    4  A    between atoms: C_3  and  C_4
REMARK    5  A    between atoms: C_4  and  O_5
REMARK    6  A    between atoms: O_5  and  C_6
REMARK    7  A    between atoms: N_8  and  C_9
REMARK    8  A    between atoms: C_23  and  C_24
REMARK    9  A    between atoms: C_24  and  N_25
REMARK                            x       y       z     vdW  Elec       q    Type
REMARK                         _______ _______ _______ _____ _____    ______ ____
ROOT
ATOM      1  C   UNL     1       7.107   6.261  17.423  0.00  0.00    +0.000 A 
ATOM      2  C   UNL     1       6.247   6.090  18.481  0.00  0.00    +0.000 A 
ATOM      3  N   UNL     1       5.302   5.142  18.145  0.00  0.00    +0.000 N 
ATOM      4  C   UNL     1       5.514   4.757  16.818  0.00  0.00    +0.000 A 
ATOM      5  C   UNL     1       4.780   3.918  15.954  0.00  0.00    +0.000 A 
ATOM      6  C   UNL     1       5.233   3.741  14.644  0.00  0.00    +0.000 A 
ATOM      7  C   UNL     1       6.373   4.394  14.193  0.00  0.00    +0.000 A 
ATOM      8 CL   UNL     1       6.890   4.171  12.565  0.00  0.00    +0.000 Cl
ATOM      9  C   UNL     1       7.089   5.247  15.033  0.00  0.00    +0.000 A 
ATOM     10  C   UNL     1       6.648   5.445  16.359  0.00  0.00    +0.000 A 
ENDROOT
BRANCH   3  11
ATOM     11  C   UNL     1       4.306   4.671  19.051  0.00  0.00    +0.000 A 
ATOM     12  C   UNL     1       4.360   3.349  19.520  0.00  0.00    +0.000 A 
ATOM     13  C   UNL     1       3.382   2.876  20.395  0.00  0.00    +0.000 A 
ATOM     14  C   UNL     1       2.345   3.715  20.783  0.00  0.00    +0.000 A 
ATOM     15  F   UNL     1       1.401   3.257  21.617  0.00  0.00    +0.000 F 
ATOM     16  C   UNL     1       2.267   5.020  20.312  0.00  0.00    +0.000 A 
ATOM     17  C   UNL     1       3.248   5.504  19.443  0.00  0.00    +0.000 A 
ENDBRANCH   3  11
BRANCH   1  18
ATOM     18  O   UNL     1       8.197   7.069  17.370  0.00  0.00    +0.000 OA
BRANCH  18  19
ATOM     19  C   UNL     1       8.240   8.057  18.407  0.00  0.00    +0.000 C 
BRANCH  19  20
ATOM     20  C   UNL     1       8.099   9.458  17.792  0.00  0.00    +0.000 C 
BRANCH  20  22
ATOM     21  C   UNL     1       9.369  10.340  19.675  0.00  0.00    +0.000 C 
ATOM     22  N   UNL     1       9.134  10.424  18.229  0.00  0.00    +0.000 NA
BRANCH  22  23
ATOM     23  C   UNL     1       8.730  11.791  17.836  0.00  0.00    +0.000 C 
BRANCH  23  24
ATOM     24  C   UNL     1       9.774  12.911  18.051  0.00  0.00    +0.000 C 
BRANCH  24  25
ATOM     25  N   UNL     1       9.219  14.237  18.248  0.00  0.00    +0.000 N 
ATOM     26  C   UNL     1       7.903  14.480  18.798  0.00  0.00    +0.000 C 
ATOM     27  C   UNL     1       7.935  15.978  19.068  0.00  0.00    +0.000 C 
ATOM     28  N   UNL     1       8.932  16.457  18.149  0.00  0.00    +0.000 N 
ATOM     29  C   UNL     1       9.781  15.419  17.782  0.00  0.00    +0.000 C 
ATOM     30  O   UNL     1      10.841  15.568  17.199  0.00  0.00    +0.000 OA
ATOM     31  H   UNL     1       9.268  17.407  18.081  0.00  0.00    +0.000 HD
ENDBRANCH  24  25
ENDBRANCH  23  24
ENDBRANCH  22  23
ENDBRANCH  20  22
ENDBRANCH  19  20
ENDBRANCH  18  19
ENDBRANCH   1  18
TORSDOF 8
ENDMDL
MODEL 9
REMARK VINA RESULT:      -7.3      6.413      8.616
REMARK  Name = 
REMARK  9 active torsions:
REMARK  status: ('A' for Active; 'I' for Inactive)
REMARK    1  A    between atoms: C_1  and  N_2
REMARK    2  A    between atoms: N_2  and  C_3
REMARK    3  A    between atoms: N_2  and  C_23
REMARK    4  A    between atoms: C_3  and  C_4
REMARK    5  A    between atoms: C_4  and  O_5
REMARK    6  A    between atoms: O_5  and  C_6
REMARK    7  A    between atoms: N_8  and  C_9
REMARK    8  A    between atoms: C_23  and  C_24
REMARK    9  A    between atoms: C_24  and  N_25
REMARK                            x       y       z     vdW  Elec       q    Type
REMARK                         _______ _______ _______ _____ _____    ______ ____
ROOT
ATOM      1  C   UNL     1       2.778   6.842  18.941  0.00  0.00    +0.000 A 
ATOM      2  C   UNL     1       3.703   6.903  17.927  0.00  0.00    +0.000 A 
ATOM      3  N   UNL     1       4.161   5.630  17.657  0.00  0.00    +0.000 N 
ATOM      4  C   UNL     1       3.577   4.747  18.569  0.00  0.00    +0.000 A 
ATOM      5  C   UNL     1       3.780   3.372  18.809  0.00  0.00    +0.000 A 
ATOM      6  C   UNL     1       3.054   2.753  19.830  0.00  0.00    +0.000 A 
ATOM      7  C   UNL     1       2.162   3.480  20.608  0.00  0.00    +0.000 A 
ATOM      8 CL   UNL     1       1.300   2.690  21.873  0.00  0.00    +0.000 Cl
ATOM      9  C   UNL     1       1.975   4.846  20.394  0.00  0.00    +0.000 A 
ATOM     10  C   UNL     1       2.701   5.494  19.372  0.00  0.00    +0.000 A 
ENDROOT
BRANCH   3  11
ATOM     11  C   UNL     1       5.074   5.331  16.602  0.00  0.00    +0.000 A 
ATOM     12  C   UNL     1       6.375   5.857  16.637  0.00  0.00    +0.000 A 
ATOM     13  C   UNL     1       7.270   5.582  15.603  0.00  0.00    +0.000 A 
ATOM     14  C   UNL     1       6.858   4.800  14.531  0.00  0.00    +0.000 A 
ATOM     15  F   UNL     1       7.716   4.543  13.533  0.00  0.00    +0.000 F 
ATOM     16  C   UNL     1       5.568   4.287  14.472  0.00  0.00    +0.000 A 
ATOM     17  C   UNL     1       4.669   4.551  15.509  0.00  0.00    +0.000 A 
ENDBRANCH   3  11
BRANCH   1  18
ATOM     18  O   UNL     1       2.063   7.870  19.467  0.00  0.00    +0.000 OA
BRANCH  18  19
ATOM     19  C   UNL     1       1.724   8.888  18.517  0.00  0.00    +0.000 C 
BRANCH  19  20
ATOM     20  C   UNL     1       0.561   9.734  19.060  0.00  0.00    +0.000 C 
BRANCH  20  22
ATOM     21  C   UNL     1       1.014  11.421  20.758  0.00  0.00    +0.000 C 
ATOM     22  N   UNL     1       0.906  11.151  19.320  0.00  0.00    +0.000 NA
BRANCH  22  23
ATOM     23  C   UNL     1      -0.106  12.028  18.691  0.00  0.00    +0.000 C 
BRANCH  23  24
ATOM     24  C   UNL     1      -1.438  11.363  18.277  0.00  0.00    +0.000 C 
BRANCH  24  25
ATOM     25  N   UNL     1      -2.622  11.921  18.904  0.00  0.00    +0.000 N 
ATOM     26  C   UNL     1      -2.664  12.370  20.278  0.00  0.00    +0.000 C 
ATOM     27  C   UNL     1      -3.989  13.118  20.336  0.00  0.00    +0.000 C 
ATOM     28  N   UNL     1      -4.749  12.524  19.270  0.00  0.00    +0.000 N 
ATOM     29  C   UNL     1      -3.895  11.933  18.345  0.00  0.00    +0.000 C 
ATOM     30  O   UNL     1      -4.233  11.553  17.238  0.00  0.00    +0.000 OA
ATOM     31  H   UNL     1      -5.670  12.808  18.967  0.00  0.00    +0.000 HD
ENDBRANCH  24  25
ENDBRANCH  23  24
ENDBRANCH  22  23
ENDBRANCH  20  22
ENDBRANCH  19  20
ENDBRANCH  18  19
ENDBRANCH   1  18
TORSDOF 8
ENDMDL
