MODEL 1
REMARK VINA RESULT:      -5.7      0.000      0.000
REMARK  Name = 
REMARK  1 active torsions:
REMARK  status: ('A' for Active; 'I' for Inactive)
REMARK    1  A    between atoms: N_2  and  N_3
REMARK                            x       y       z     vdW  Elec       q    Type
REMARK                         _______ _______ _______ _____ _____    ______ ____
ROOT
ATOM      1  N   UNL     1       1.901   3.708  20.727  0.00  0.00    +0.000 N 
ATOM      2  C   UNL     1       2.058   5.165  20.819  0.00  0.00    +0.000 C 
ATOM      3  C   UNL     1       2.574   5.804  19.513  0.00  0.00    +0.000 C 
ATOM      4  C   UNL     1       3.832   5.123  18.953  0.00  0.00    +0.000 C 
ATOM      5  C   UNL     1       3.685   4.574  17.528  0.00  0.00    +0.000 C 
ATOM      6  C   UNL     1       2.522   3.608  17.263  0.00  0.00    +0.000 C 
ATOM      7  C   UNL     1       2.503   2.361  18.152  0.00  0.00    +0.000 C 
ATOM      8  C   UNL     1       1.183   2.158  18.911  0.00  0.00    +0.000 C 
ATOM      9  C   UNL     1       0.789   3.312  19.846  0.00  0.00    +0.000 C 
ENDROOT
BRANCH   1  11
ATOM     10  O   UNL     1       2.896   2.381  22.009  0.00  0.00    +0.000 OA
ATOM     11  N   UNL     1       1.907   3.114  21.900  0.00  0.00    +0.000 NA
ENDBRANCH   1  11
TORSDOF 1
ENDMDL
MODEL 2
REMARK VINA RESULT:      -5.7      1.993      3.547
REMARK  Name = 
REMARK  1 active torsions:
REMARK  status: ('A' for Active; 'I' for Inactive)
REMARK    1  A    between atoms: N_2  and  N_3
REMARK                            x       y       z     vdW  Elec       q    Type
REMARK                         _______ _______ _______ _____ _____    ______ ____
ROOT
ATOM      1  N   UNL     1       3.850   4.746  19.007  0.00  0.00    +0.000 N 
ATOM      2  C   UNL     1       3.739   4.468  17.569  0.00  0.00    +0.000 C 
ATOM      3  C   UNL     1       2.536   3.570  17.216  0.00  0.00    +0.000 C 
ATOM      4  C   UNL     1       2.460   2.287  18.058  0.00  0.00    +0.000 C 
ATOM      5  C   UNL     1       1.160   2.118  18.855  0.00  0.00    +0.000 C 
ATOM      6  C   UNL     1       0.752   3.268  19.787  0.00  0.00    +0.000 C 
ATOM      7  C   UNL     1       1.796   3.644  20.843  0.00  0.00    +0.000 C 
ATOM      8  C   UNL     1       2.189   5.129  20.827  0.00  0.00    +0.000 C 
ATOM      9  C   UNL     1       2.778   5.628  19.497  0.00  0.00    +0.000 C 
ENDROOT
BRANCH   1  11
ATOM     10  O   UNL     1       5.840   4.149  19.280  0.00  0.00    +0.000 OA
ATOM     11  N   UNL     1       5.061   5.105  19.371  0.00  0.00    +0.000 NA
ENDBRANCH   1  11
TORSDOF 1
ENDMDL
MODEL 3
REMARK VINA RESULT:      -5.5      2.526      3.992
REMARK  Name = 
REMARK  1 active torsions:
REMARK  status: ('A' for Active; 'I' for Inactive)
REMARK    1  A    between atoms: N_2  and  N_3
REMARK                            x       y       z     vdW  Elec       q    Type
REMARK                         _______ _______ _______ _____ _____    ______ ____
ROOT
ATOM      1  N   UNL     1       4.406   4.639  19.483  0.00  0.00    +0.000 N 
ATOM      2  C   UNL     1       4.589   3.200  19.252  0.00  0.00    +0.000 C 
ATOM      3  C   UNL     1       3.368   2.358  19.675  0.00  0.00    +0.000 C 
ATOM      4  C   UNL     1       2.884   2.655  21.103  0.00  0.00    +0.000 C 
ATOM      5  C   UNL     1       1.424   3.117  21.203  0.00  0.00    +0.000 C 
ATOM      6  C   UNL     1       1.009   4.324  20.350  0.00  0.00    +0.000 C 
ATOM      7  C   UNL     1       1.826   5.597  20.591  0.00  0.00    +0.000 C 
ATOM      8  C   UNL     1       2.455   6.183  19.319  0.00  0.00    +0.000 C 
ATOM      9  C   UNL     1       3.414   5.237  18.576  0.00  0.00    +0.000 C 
ENDROOT
BRANCH   1  11
ATOM     10  O   UNL     1       6.470   4.609  19.119  0.00  0.00    +0.000 OA
ATOM     11  N   UNL     1       5.542   5.296  19.560  0.00  0.00    +0.000 NA
ENDBRANCH   1  11
TORSDOF 1
ENDMDL
MODEL 4
REMARK VINA RESULT:      -5.5      1.924      2.640
REMARK  Name = 
REMARK  1 active torsions:
REMARK  status: ('A' for Active; 'I' for Inactive)
REMARK    1  A    between atoms: N_2  and  N_3
REMARK                            x       y       z     vdW  Elec       q    Type
REMARK                         _______ _______ _______ _____ _____    ______ ____
ROOT
ATOM      1  N   UNL     1       3.881   2.442  20.003  0.00  0.00    +0.000 N 
ATOM      2  C   UNL     1       2.989   2.526  21.167  0.00  0.00    +0.000 C 
ATOM      3  C   UNL     1       1.903   3.611  21.022  0.00  0.00    +0.000 C 
ATOM      4  C   UNL     1       2.459   4.987  20.623  0.00  0.00    +0.000 C 
ATOM      5  C   UNL     1       1.885   5.559  19.321  0.00  0.00    +0.000 C 
ATOM      6  C   UNL     1       1.977   4.680  18.066  0.00  0.00    +0.000 C 
ATOM      7  C   UNL     1       3.394   4.236  17.690  0.00  0.00    +0.000 C 
ATOM      8  C   UNL     1       3.551   2.715  17.547  0.00  0.00    +0.000 C 
ATOM      9  C   UNL     1       3.207   1.906  18.810  0.00  0.00    +0.000 C 
ENDROOT
BRANCH   1  11
ATOM     10  O   UNL     1       5.098   1.584  21.479  0.00  0.00    +0.000 OA
ATOM     11  N   UNL     1       5.036   1.876  20.280  0.00  0.00    +0.000 NA
ENDBRANCH   1  11
TORSDOF 1
ENDMDL
MODEL 5
REMARK VINA RESULT:      -5.5      2.553      3.016
REMARK  Name = 
REMARK  1 active torsions:
REMARK  status: ('A' for Active; 'I' for Inactive)
REMARK    1  A    between atoms: N_2  and  N_3
REMARK                            x       y       z     vdW  Elec       q    Type
REMARK                         _______ _______ _______ _____ _____    ______ ____
ROOT
ATOM      1  N   UNL     1       4.712   4.108  19.163  0.00  0.00    +0.000 N 
ATOM      2  C   UNL     1       4.144   5.364  19.673  0.00  0.00    +0.000 C 
ATOM      3  C   UNL     1       2.638   5.513  19.375  0.00  0.00    +0.000 C 
ATOM      4  C   UNL     1       2.278   5.275  17.900  0.00  0.00    +0.000 C 
ATOM      5  C   UNL     1       1.261   4.151  17.660  0.00  0.00    +0.000 C 
ATOM      6  C   UNL     1       1.586   2.772  18.250  0.00  0.00    +0.000 C 
ATOM      7  C   UNL     1       2.922   2.175  17.798  0.00  0.00    +0.000 C 
ATOM      8  C   UNL     1       3.849   1.778  18.957  0.00  0.00    +0.000 C 
ATOM      9  C   UNL     1       4.233   2.929  19.902  0.00  0.00    +0.000 C 
ENDROOT
BRANCH   1  11
ATOM     10  O   UNL     1       6.498   5.074  19.683  0.00  0.00    +0.000 OA
ATOM     11  N   UNL     1       6.016   4.161  19.003  0.00  0.00    +0.000 NA
ENDBRANCH   1  11
TORSDOF 1
ENDMDL
MODEL 6
REMARK VINA RESULT:      -5.5      2.495      3.471
REMARK  Name = 
REMARK  1 active torsions:
REMARK  status: ('A' for Active; 'I' for Inactive)
REMARK    1  A    between atoms: N_2  and  N_3
REMARK                            x       y       z     vdW  Elec       q    Type
REMARK                         _______ _______ _______ _____ _____    ______ ____
ROOT
ATOM      1  N   UNL     1       4.436   3.430  19.109  0.00  0.00    +0.000 N 
ATOM      2  C   UNL     1       4.397   2.691  20.379  0.00  0.00    +0.000 C 
ATOM      3  C   UNL     1       2.971   2.537  20.947  0.00  0.00    +0.000 C 
ATOM      4  C   UNL     1       2.197   3.861  21.028  0.00  0.00    +0.000 C 
ATOM      5  C   UNL     1       0.877   3.883  20.247  0.00  0.00    +0.000 C 
ATOM      6  C   UNL     1       0.934   3.511  18.759  0.00  0.00    +0.000 C 
ATOM      7  C   UNL     1       1.886   4.365  17.915  0.00  0.00    +0.000 C 
ATOM      8  C   UNL     1       2.924   3.549  17.131  0.00  0.00    +0.000 C 
ATOM      9  C   UNL     1       3.845   2.672  17.994  0.00  0.00    +0.000 C 
ENDROOT
BRANCH   1  11
ATOM     10  O   UNL     1       5.924   4.773  19.722  0.00  0.00    +0.000 OA
ATOM     11  N   UNL     1       5.616   3.949  18.853  0.00  0.00    +0.000 NA
ENDBRANCH   1  11
TORSDOF 1
ENDMDL
MODEL 7
REMARK VINA RESULT:      -5.5      1.872      3.456
REMARK  Name = 
REMARK  1 active torsions:
REMARK  status: ('A' for Active; 'I' for Inactive)
REMARK    1  A    between atoms: N_2  and  N_3
REMARK                            x       y       z     vdW  Elec       q    Type
REMARK                         _______ _______ _______ _____ _____    ______ ____
ROOT
ATOM      1  N   UNL     1       4.167   2.774  19.713  0.00  0.00    +0.000 N 
ATOM      2  C   UNL     1       3.727   1.706  18.806  0.00  0.00    +0.000 C 
ATOM      3  C   UNL     1       2.716   2.190  17.745  0.00  0.00    +0.000 C 
ATOM      4  C   UNL     1       1.531   2.969  18.337  0.00  0.00    +0.000 C 
ATOM      5  C   UNL     1       1.363   4.393  17.794  0.00  0.00    +0.000 C 
ATOM      6  C   UNL     1       2.578   5.328  17.885  0.00  0.00    +0.000 C 
ATOM      7  C   UNL     1       3.137   5.526  19.297  0.00  0.00    +0.000 C 
ATOM      8  C   UNL     1       4.634   5.206  19.424  0.00  0.00    +0.000 C 
ATOM      9  C   UNL     1       5.024   3.768  19.045  0.00  0.00    +0.000 C 
ENDROOT
BRANCH   1  11
ATOM     10  O   UNL     1       5.364   1.333  20.655  0.00  0.00    +0.000 OA
ATOM     11  N   UNL     1       4.644   2.319  20.851  0.00  0.00    +0.000 NA
ENDBRANCH   1  11
TORSDOF 1
ENDMDL
MODEL 8
REMARK VINA RESULT:      -5.5      2.211      3.959
REMARK  Name = 
REMARK  1 active torsions:
REMARK  status: ('A' for Active; 'I' for Inactive)
REMARK    1  A    between atoms: N_2  and  N_3
REMARK                            x       y       z     vdW  Elec       q    Type
REMARK                         _______ _______ _______ _____ _____    ______ ____
ROOT
ATOM      1  N   UNL     1       3.943   4.218  18.328  0.00  0.00    +0.000 N 
ATOM      2  C   UNL     1       3.480   3.110  17.482  0.00  0.00    +0.000 C 
ATOM      3  C   UNL     1       2.158   2.485  17.973  0.00  0.00    +0.000 C 
ATOM      4  C   UNL     1       2.174   2.105  19.461  0.00  0.00    +0.000 C 
ATOM      5  C   UNL     1       1.085   2.776  20.308  0.00  0.00    +0.000 C 
ATOM      6  C   UNL     1       1.001   4.308  20.258  0.00  0.00    +0.000 C 
ATOM      7  C   UNL     1       2.288   5.039  20.650  0.00  0.00    +0.000 C 
ATOM      8  C   UNL     1       2.788   6.032  19.590  0.00  0.00    +0.000 C 
ATOM      9  C   UNL     1       3.091   5.413  18.215  0.00  0.00    +0.000 C 
ENDROOT
BRANCH   1  11
ATOM     10  O   UNL     1       5.825   4.149  19.250  0.00  0.00    +0.000 OA
ATOM     11  N   UNL     1       5.231   4.452  18.209  0.00  0.00    +0.000 NA
ENDBRANCH   1  11
TORSDOF 1
ENDMDL
MODEL 9
REMARK VINA RESULT:      -5.4      2.322      3.103
REMARK  Name = 
REMARK  1 active torsions:
REMARK  status: ('A' for Active; 'I' for Inactive)
REMARK    1  A    between atoms: N_2  and  N_3
REMARK                            x       y       z     vdW  Elec       q    Type
REMARK                         _______ _______ _______ _____ _____    ______ ____
ROOT
ATOM      1  N   UNL     1       3.422   2.865  19.247  0.00  0.00    +0.000 N 
ATOM      2  C   UNL     1       4.669   3.614  19.039  0.00  0.00    +0.000 C 
ATOM      3  C   UNL     1       4.539   5.113  19.375  0.00  0.00    +0.000 C 
ATOM      4  C   UNL     1       3.340   5.793  18.696  0.00  0.00    +0.000 C 
ATOM      5  C   UNL     1       2.341   6.446  19.659  0.00  0.00    +0.000 C 
ATOM      6  C   UNL     1       1.759   5.566  20.774  0.00  0.00    +0.000 C 
ATOM      7  C   UNL     1       1.044   4.300  20.290  0.00  0.00    +0.000 C 
ATOM      8  C   UNL     1       1.579   3.005  20.919  0.00  0.00    +0.000 C 
ATOM      9  C   UNL     1       3.072   2.732  20.670  0.00  0.00    +0.000 C 
ENDROOT
BRANCH   1  11
ATOM     10  O   UNL     1       2.624   1.856  17.592  0.00  0.00    +0.000 OA
ATOM     11  N   UNL     1       3.377   1.742  18.565  0.00  0.00    +0.000 NA
ENDBRANCH   1  11
TORSDOF 1
ENDMDL
