MODEL 1
REMARK VINA RESULT:      -6.5      0.000      0.000
REMARK  Name = 
REMARK  8 active torsions:
REMARK  status: ('A' for Active; 'I' for Inactive)
REMARK    1  A    between atoms: C_1  and  C_2
REMARK    2  A    between atoms: C_2  and  O_3
REMARK    3  A    between atoms: O_3  and  C_4
REMARK    4  A    between atoms: C_7  and  C_8
REMARK    5  A    between atoms: C_9  and  C_10
REMARK    6  A    between atoms: C_9  and  N_11
REMARK    7  A    between atoms: C_15  and  O_16
REMARK    8  A    between atoms: O_16  and  C_17
REMARK                            x       y       z     vdW  Elec       q    Type
REMARK                         _______ _______ _______ _____ _____    ______ ____
ROOT
ATOM      1  C   UNL     1       1.999   4.340  19.215  0.00  0.00    +0.000 A 
ATOM      2  C   UNL     1       2.109   3.318  18.259  0.00  0.00    +0.000 A 
ATOM      3  C   UNL     1       3.004   3.421  17.190  0.00  0.00    +0.000 A 
ATOM      4  C   UNL     1       3.800   4.558  17.039  0.00  0.00    +0.000 A 
ATOM      5  C   UNL     1       3.678   5.574  17.991  0.00  0.00    +0.000 A 
ATOM      6  C   UNL     1       2.761   5.504  19.050  0.00  0.00    +0.000 A 
ENDROOT
BRANCH   4   7
ATOM      7  C   UNL     1       4.789   4.610  15.949  0.00  0.00    +0.000 C 
ATOM      8  C   UNL     1       6.129   4.608  16.076  0.00  0.00    +0.000 C 
ATOM      9  C   UNL     1       6.993   4.614  17.295  0.00  0.00    +0.000 C 
BRANCH   8  10
ATOM     10  N   UNL     1       6.896   4.621  14.826  0.00  0.00    +0.000 N 
ATOM     11  O   UNL     1       7.852   5.405  14.763  0.00  0.00    +0.000 OA
ATOM     12  O   UNL     1       6.544   3.862  13.914  0.00  0.00    +0.000 OA
ENDBRANCH   8  10
ENDBRANCH   4   7
BRANCH   6  13
ATOM     13  O   UNL     1       2.777   6.648  19.802  0.00  0.00    +0.000 OA
ATOM     14  C   UNL     1       2.097   7.799  19.335  0.00  0.00    +0.000 C 
ENDBRANCH   6  13
BRANCH   1  15
ATOM     15  O   UNL     1       1.169   4.233  20.297  0.00  0.00    +0.000 OA
BRANCH  15  17
ATOM     16  C   UNL     1       2.436   2.794  21.724  0.00  0.00    +0.000 C 
ATOM     17  C   UNL     1       1.144   2.958  20.945  0.00  0.00    +0.000 C 
ENDBRANCH  15  17
ENDBRANCH   1  15
TORSDOF 5
ENDMDL
MODEL 2
REMARK VINA RESULT:      -6.4      2.627      6.096
REMARK  Name = 
REMARK  8 active torsions:
REMARK  status: ('A' for Active; 'I' for Inactive)
REMARK    1  A    between atoms: C_1  and  C_2
REMARK    2  A    between atoms: C_2  and  O_3
REMARK    3  A    between atoms: O_3  and  C_4
REMARK    4  A    between atoms: C_7  and  C_8
REMARK    5  A    between atoms: C_9  and  C_10
REMARK    6  A    between atoms: C_9  and  N_11
REMARK    7  A    between atoms: C_15  and  O_16
REMARK    8  A    between atoms: O_16  and  C_17
REMARK                            x       y       z     vdW  Elec       q    Type
REMARK                         _______ _______ _______ _____ _____    ______ ____
ROOT
ATOM      1  C   UNL     1       5.783   6.327  16.786  0.00  0.00    +0.000 A 
ATOM      2  C   UNL     1       4.720   6.969  17.439  0.00  0.00    +0.000 A 
ATOM      3  C   UNL     1       3.576   6.265  17.824  0.00  0.00    +0.000 A 
ATOM      4  C   UNL     1       3.457   4.901  17.548  0.00  0.00    +0.000 A 
ATOM      5  C   UNL     1       4.517   4.271  16.891  0.00  0.00    +0.000 A 
ATOM      6  C   UNL     1       5.658   4.968  16.467  0.00  0.00    +0.000 A 
ENDROOT
BRANCH   4   7
ATOM      7  C   UNL     1       2.276   4.165  18.032  0.00  0.00    +0.000 C 
ATOM      8  C   UNL     1       2.223   3.326  19.082  0.00  0.00    +0.000 C 
ATOM      9  C   UNL     1       3.298   2.852  20.006  0.00  0.00    +0.000 C 
BRANCH   8  10
ATOM     10  N   UNL     1       0.909   2.751  19.384  0.00  0.00    +0.000 N 
ATOM     11  O   UNL     1       0.497   2.871  20.546  0.00  0.00    +0.000 OA
ATOM     12  O   UNL     1       0.295   2.180  18.473  0.00  0.00    +0.000 OA
ENDBRANCH   8  10
ENDBRANCH   4   7
BRANCH   6  13
ATOM     13  O   UNL     1       6.518   4.151  15.785  0.00  0.00    +0.000 OA
ATOM     14  C   UNL     1       6.332   3.946  14.395  0.00  0.00    +0.000 C 
ENDBRANCH   6  13
BRANCH   1  15
ATOM     15  O   UNL     1       6.934   6.988  16.451  0.00  0.00    +0.000 OA
BRANCH  15  17
ATOM     16  C   UNL     1       7.997   6.695  18.571  0.00  0.00    +0.000 C 
ATOM     17  C   UNL     1       7.580   7.697  17.511  0.00  0.00    +0.000 C 
ENDBRANCH  15  17
ENDBRANCH   1  15
TORSDOF 5
ENDMDL
MODEL 3
REMARK VINA RESULT:      -6.4      1.596      1.975
REMARK  Name = 
REMARK  8 active torsions:
REMARK  status: ('A' for Active; 'I' for Inactive)
REMARK    1  A    between atoms: C_1  and  C_2
REMARK    2  A    between atoms: C_2  and  O_3
REMARK    3  A    between atoms: O_3  and  C_4
REMARK    4  A    between atoms: C_7  and  C_8
REMARK    5  A    between atoms: C_9  and  C_10
REMARK    6  A    between atoms: C_9  and  N_11
REMARK    7  A    between atoms: C_15  and  O_16
REMARK    8  A    between atoms: O_16  and  C_17
REMARK                            x       y       z     vdW  Elec       q    Type
REMARK                         _______ _______ _______ _____ _____    ______ ____
ROOT
ATOM      1  C   UNL     1       1.701   4.499  19.349  0.00  0.00    +0.000 A 
ATOM      2  C   UNL     1       2.322   3.881  18.253  0.00  0.00    +0.000 A 
ATOM      3  C   UNL     1       3.397   4.485  17.596  0.00  0.00    +0.000 A 
ATOM      4  C   UNL     1       3.867   5.734  18.006  0.00  0.00    +0.000 A 
ATOM      5  C   UNL     1       3.238   6.346  19.093  0.00  0.00    +0.000 A 
ATOM      6  C   UNL     1       2.137   5.771  19.744  0.00  0.00    +0.000 A 
ENDROOT
BRANCH   4   7
ATOM      7  C   UNL     1       5.049   6.315  17.347  0.00  0.00    +0.000 C 
ATOM      8  C   UNL     1       6.329   6.214  17.750  0.00  0.00    +0.000 C 
ATOM      9  C   UNL     1       6.921   5.568  18.960  0.00  0.00    +0.000 C 
BRANCH   8  10
ATOM     10  N   UNL     1       7.330   6.850  16.888  0.00  0.00    +0.000 N 
ATOM     11  O   UNL     1       7.681   6.223  15.879  0.00  0.00    +0.000 OA
ATOM     12  O   UNL     1       7.767   7.960  17.216  0.00  0.00    +0.000 OA
ENDBRANCH   8  10
ENDBRANCH   4   7
BRANCH   6  13
ATOM     13  O   UNL     1       1.652   6.592  20.726  0.00  0.00    +0.000 OA
ATOM     14  C   UNL     1       1.628   7.993  20.516  0.00  0.00    +0.000 C 
ENDBRANCH   6  13
BRANCH   1  15
ATOM     15  O   UNL     1       0.684   3.898  20.040  0.00  0.00    +0.000 OA
BRANCH  15  17
ATOM     16  C   UNL     1       2.053   2.999  21.779  0.00  0.00    +0.000 C 
ATOM     17  C   UNL     1       1.018   2.684  20.717  0.00  0.00    +0.000 C 
ENDBRANCH  15  17
ENDBRANCH   1  15
TORSDOF 5
ENDMDL
MODEL 4
REMARK VINA RESULT:      -6.3      1.386      2.464
REMARK  Name = 
REMARK  8 active torsions:
REMARK  status: ('A' for Active; 'I' for Inactive)
REMARK    1  A    between atoms: C_1  and  C_2
REMARK    2  A    between atoms: C_2  and  O_3
REMARK    3  A    between atoms: O_3  and  C_4
REMARK    4  A    between atoms: C_7  and  C_8
REMARK    5  A    between atoms: C_9  and  C_10
REMARK    6  A    between atoms: C_9  and  N_11
REMARK    7  A    between atoms: C_15  and  O_16
REMARK    8  A    between atoms: O_16  and  C_17
REMARK                            x       y       z     vdW  Elec       q    Type
REMARK                         _______ _______ _______ _____ _____    ______ ____
ROOT
ATOM      1  C   UNL     1       2.837   4.441  19.477  0.00  0.00    +0.000 A 
ATOM      2  C   UNL     1       4.192   4.794  19.565  0.00  0.00    +0.000 A 
ATOM      3  C   UNL     1       5.049   4.655  18.470  0.00  0.00    +0.000 A 
ATOM      4  C   UNL     1       4.576   4.140  17.261  0.00  0.00    +0.000 A 
ATOM      5  C   UNL     1       3.227   3.784  17.184  0.00  0.00    +0.000 A 
ATOM      6  C   UNL     1       2.361   3.885  18.282  0.00  0.00    +0.000 A 
ENDROOT
BRANCH   4   7
ATOM      7  C   UNL     1       5.479   4.075  16.099  0.00  0.00    +0.000 C 
ATOM      8  C   UNL     1       5.793   5.083  15.264  0.00  0.00    +0.000 C 
ATOM      9  C   UNL     1       5.306   6.494  15.214  0.00  0.00    +0.000 C 
BRANCH   8  10
ATOM     10  N   UNL     1       6.756   4.767  14.205  0.00  0.00    +0.000 N 
ATOM     11  O   UNL     1       6.465   3.838  13.440  0.00  0.00    +0.000 OA
ATOM     12  O   UNL     1       7.796   5.436  14.140  0.00  0.00    +0.000 OA
ENDBRANCH   8  10
ENDBRANCH   4   7
BRANCH   6  13
ATOM     13  O   UNL     1       1.114   3.408  17.980  0.00  0.00    +0.000 OA
ATOM     14  C   UNL     1       0.692   2.166  18.515  0.00  0.00    +0.000 C 
ENDBRANCH   6  13
BRANCH   1  15
ATOM     15  O   UNL     1       1.971   4.621  20.521  0.00  0.00    +0.000 OA
BRANCH  15  17
ATOM     16  C   UNL     1       1.566   2.595  21.721  0.00  0.00    +0.000 C 
ATOM     17  C   UNL     1       2.292   3.927  21.729  0.00  0.00    +0.000 C 
ENDBRANCH  15  17
ENDBRANCH   1  15
TORSDOF 5
ENDMDL
MODEL 5
REMARK VINA RESULT:      -6.3      0.796      1.191
REMARK  Name = 
REMARK  8 active torsions:
REMARK  status: ('A' for Active; 'I' for Inactive)
REMARK    1  A    between atoms: C_1  and  C_2
REMARK    2  A    between atoms: C_2  and  O_3
REMARK    3  A    between atoms: O_3  and  C_4
REMARK    4  A    between atoms: C_7  and  C_8
REMARK    5  A    between atoms: C_9  and  C_10
REMARK    6  A    between atoms: C_9  and  N_11
REMARK    7  A    between atoms: C_15  and  O_16
REMARK    8  A    between atoms: O_16  and  C_17
REMARK                            x       y       z     vdW  Elec       q    Type
REMARK                         _______ _______ _______ _____ _____    ______ ____
ROOT
ATOM      1  C   UNL     1       1.762   3.917  19.025  0.00  0.00    +0.000 A 
ATOM      2  C   UNL     1       2.059   2.786  18.248  0.00  0.00    +0.000 A 
ATOM      3  C   UNL     1       3.069   2.816  17.283  0.00  0.00    +0.000 A 
ATOM      4  C   UNL     1       3.797   3.986  17.056  0.00  0.00    +0.000 A 
ATOM      5  C   UNL     1       3.491   5.109  17.828  0.00  0.00    +0.000 A 
ATOM      6  C   UNL     1       2.458   5.108  18.777  0.00  0.00    +0.000 A 
ENDROOT
BRANCH   4   7
ATOM      7  C   UNL     1       4.907   3.970  16.088  0.00  0.00    +0.000 C 
ATOM      8  C   UNL     1       5.517   5.039  15.542  0.00  0.00    +0.000 C 
ATOM      9  C   UNL     1       5.238   6.500  15.689  0.00  0.00    +0.000 C 
BRANCH   8  10
ATOM     10  N   UNL     1       6.631   4.754  14.633  0.00  0.00    +0.000 N 
ATOM     11  O   UNL     1       6.493   3.797  13.860  0.00  0.00    +0.000 OA
ATOM     12  O   UNL     1       7.637   5.473  14.695  0.00  0.00    +0.000 OA
ENDBRANCH   8  10
ENDBRANCH   4   7
BRANCH   6  13
ATOM     13  O   UNL     1       2.303   6.342  19.349  0.00  0.00    +0.000 OA
ATOM     14  C   UNL     1       2.502   7.504  18.564  0.00  0.00    +0.000 C 
ENDBRANCH   6  13
BRANCH   1  15
ATOM     15  O   UNL     1       0.815   3.890  20.012  0.00  0.00    +0.000 OA
BRANCH  15  17
ATOM     16  C   UNL     1       2.214   3.241  21.837  0.00  0.00    +0.000 C 
ATOM     17  C   UNL     1       0.987   2.889  21.019  0.00  0.00    +0.000 C 
ENDBRANCH  15  17
ENDBRANCH   1  15
TORSDOF 5
ENDMDL
MODEL 6
REMARK VINA RESULT:      -6.3      0.945      1.316
REMARK  Name = 
REMARK  8 active torsions:
REMARK  status: ('A' for Active; 'I' for Inactive)
REMARK    1  A    between atoms: C_1  and  C_2
REMARK    2  A    between atoms: C_2  and  O_3
REMARK    3  A    between atoms: O_3  and  C_4
REMARK    4  A    between atoms: C_7  and  C_8
REMARK    5  A    between atoms: C_9  and  C_10
REMARK    6  A    between atoms: C_9  and  N_11
REMARK    7  A    between atoms: C_15  and  O_16
REMARK    8  A    between atoms: O_16  and  C_17
REMARK                            x       y       z     vdW  Elec       q    Type
REMARK                         _______ _______ _______ _____ _____    ______ ____
ROOT
ATOM      1  C   UNL     1       3.085   4.250  20.004  0.00  0.00    +0.000 A 
ATOM      2  C   UNL     1       3.756   3.153  19.441  0.00  0.00    +0.000 A 
ATOM      3  C   UNL     1       4.375   3.247  18.191  0.00  0.00    +0.000 A 
ATOM      4  C   UNL     1       4.322   4.436  17.462  0.00  0.00    +0.000 A 
ATOM      5  C   UNL     1       3.645   5.520  18.025  0.00  0.00    +0.000 A 
ATOM      6  C   UNL     1       2.989   5.435  19.262  0.00  0.00    +0.000 A 
ENDROOT
BRANCH   4   7
ATOM      7  C   UNL     1       5.045   4.533  16.183  0.00  0.00    +0.000 C 
ATOM      8  C   UNL     1       6.380   4.570  16.012  0.00  0.00    +0.000 C 
ATOM      9  C   UNL     1       7.490   4.584  17.012  0.00  0.00    +0.000 C 
BRANCH   8  10
ATOM     10  N   UNL     1       6.852   4.624  14.625  0.00  0.00    +0.000 N 
ATOM     11  O   UNL     1       6.375   3.796  13.837  0.00  0.00    +0.000 OA
ATOM     12  O   UNL     1       7.695   5.480  14.325  0.00  0.00    +0.000 OA
ENDBRANCH   8  10
ENDBRANCH   4   7
BRANCH   6  13
ATOM     13  O   UNL     1       2.339   6.601  19.565  0.00  0.00    +0.000 OA
ATOM     14  C   UNL     1       2.381   7.682  18.650  0.00  0.00    +0.000 C 
ENDBRANCH   6  13
BRANCH   1  15
ATOM     15  O   UNL     1       2.521   4.194  21.249  0.00  0.00    +0.000 OA
BRANCH  15  17
ATOM     16  C   UNL     1       0.553   3.215  20.314  0.00  0.00    +0.000 C 
ATOM     17  C   UNL     1       1.553   3.162  21.453  0.00  0.00    +0.000 C 
ENDBRANCH  15  17
ENDBRANCH   1  15
TORSDOF 5
ENDMDL
MODEL 7
REMARK VINA RESULT:      -6.2      1.058      2.380
REMARK  Name = 
REMARK  8 active torsions:
REMARK  status: ('A' for Active; 'I' for Inactive)
REMARK    1  A    between atoms: C_1  and  C_2
REMARK    2  A    between atoms: C_2  and  O_3
REMARK    3  A    between atoms: O_3  and  C_4
REMARK    4  A    between atoms: C_7  and  C_8
REMARK    5  A    between atoms: C_9  and  C_10
REMARK    6  A    between atoms: C_9  and  N_11
REMARK    7  A    between atoms: C_15  and  O_16
REMARK    8  A    between atoms: O_16  and  C_17
REMARK                            x       y       z     vdW  Elec       q    Type
REMARK                         _______ _______ _______ _____ _____    ______ ____
ROOT
ATOM      1  C   UNL     1       2.572   4.836  19.312  0.00  0.00    +0.000 A 
ATOM      2  C   UNL     1       3.721   5.641  19.277  0.00  0.00    +0.000 A 
ATOM      3  C   UNL     1       4.559   5.657  18.158  0.00  0.00    +0.000 A 
ATOM      4  C   UNL     1       4.280   4.852  17.052  0.00  0.00    +0.000 A 
ATOM      5  C   UNL     1       3.138   4.048  17.099  0.00  0.00    +0.000 A 
ATOM      6  C   UNL     1       2.304   3.993  18.225  0.00  0.00    +0.000 A 
ENDROOT
BRANCH   4   7
ATOM      7  C   UNL     1       5.134   4.944  15.856  0.00  0.00    +0.000 C 
ATOM      8  C   UNL     1       6.466   4.757  15.800  0.00  0.00    +0.000 C 
ATOM      9  C   UNL     1       7.457   4.474  16.882  0.00  0.00    +0.000 C 
BRANCH   8  10
ATOM     10  N   UNL     1       7.078   4.862  14.472  0.00  0.00    +0.000 N 
ATOM     11  O   UNL     1       6.585   4.169  13.571  0.00  0.00    +0.000 OA
ATOM     12  O   UNL     1       8.043   5.624  14.329  0.00  0.00    +0.000 OA
ENDBRANCH   8  10
ENDBRANCH   4   7
BRANCH   6  13
ATOM     13  O   UNL     1       1.297   3.082  18.058  0.00  0.00    +0.000 OA
ATOM     14  C   UNL     1       1.487   1.745  18.488  0.00  0.00    +0.000 C 
ENDBRANCH   6  13
BRANCH   1  15
ATOM     15  O   UNL     1       1.711   4.848  20.375  0.00  0.00    +0.000 OA
BRANCH  15  17
ATOM     16  C   UNL     1       1.444   2.846  21.652  0.00  0.00    +0.000 C 
ATOM     17  C   UNL     1       2.162   4.179  21.556  0.00  0.00    +0.000 C 
ENDBRANCH  15  17
ENDBRANCH   1  15
TORSDOF 5
ENDMDL
MODEL 8
REMARK VINA RESULT:      -6.2      1.291      2.373
REMARK  Name = 
REMARK  8 active torsions:
REMARK  status: ('A' for Active; 'I' for Inactive)
REMARK    1  A    between atoms: C_1  and  C_2
REMARK    2  A    between atoms: C_2  and  O_3
REMARK    3  A    between atoms: O_3  and  C_4
REMARK    4  A    between atoms: C_7  and  C_8
REMARK    5  A    between atoms: C_9  and  C_10
REMARK    6  A    between atoms: C_9  and  N_11
REMARK    7  A    between atoms: C_15  and  O_16
REMARK    8  A    between atoms: O_16  and  C_17
REMARK                            x       y       z     vdW  Elec       q    Type
REMARK                         _______ _______ _______ _____ _____    ______ ____
ROOT
ATOM      1  C   UNL     1       2.894   4.866  19.383  0.00  0.00    +0.000 A 
ATOM      2  C   UNL     1       3.059   6.054  18.655  0.00  0.00    +0.000 A 
ATOM      3  C   UNL     1       3.828   6.086  17.488  0.00  0.00    +0.000 A 
ATOM      4  C   UNL     1       4.468   4.934  17.029  0.00  0.00    +0.000 A 
ATOM      5  C   UNL     1       4.305   3.757  17.764  0.00  0.00    +0.000 A 
ATOM      6  C   UNL     1       3.566   3.713  18.955  0.00  0.00    +0.000 A 
ENDROOT
BRANCH   4   7
ATOM      7  C   UNL     1       5.209   4.975  15.757  0.00  0.00    +0.000 C 
ATOM      8  C   UNL     1       6.530   4.782  15.585  0.00  0.00    +0.000 C 
ATOM      9  C   UNL     1       7.616   4.539  16.582  0.00  0.00    +0.000 C 
BRANCH   8  10
ATOM     10  N   UNL     1       7.016   4.832  14.203  0.00  0.00    +0.000 N 
ATOM     11  O   UNL     1       7.932   5.629  13.960  0.00  0.00    +0.000 OA
ATOM     12  O   UNL     1       6.487   4.089  13.368  0.00  0.00    +0.000 OA
ENDBRANCH   8  10
ENDBRANCH   4   7
BRANCH   6  13
ATOM     13  O   UNL     1       3.614   2.471  19.528  0.00  0.00    +0.000 OA
ATOM     14  C   UNL     1       3.576   1.320  18.703  0.00  0.00    +0.000 C 
ENDBRANCH   6  13
BRANCH   1  15
ATOM     15  O   UNL     1       2.101   4.802  20.496  0.00  0.00    +0.000 OA
BRANCH  15  17
ATOM     16  C   UNL     1       1.168   2.863  21.535  0.00  0.00    +0.000 C 
ATOM     17  C   UNL     1       1.002   3.890  20.431  0.00  0.00    +0.000 C 
ENDBRANCH  15  17
ENDBRANCH   1  15
TORSDOF 5
ENDMDL
MODEL 9
REMARK VINA RESULT:      -6.2      2.677      6.346
REMARK  Name = 
REMARK  8 active torsions:
REMARK  status: ('A' for Active; 'I' for Inactive)
REMARK    1  A    between atoms: C_1  and  C_2
REMARK    2  A    between atoms: C_2  and  O_3
REMARK    3  A    between atoms: O_3  and  C_4
REMARK    4  A    between atoms: C_7  and  C_8
REMARK    5  A    between atoms: C_9  and  C_10
REMARK    6  A    between atoms: C_9  and  N_11
REMARK    7  A    between atoms: C_15  and  O_16
REMARK    8  A    between atoms: O_16  and  C_17
REMARK                            x       y       z     vdW  Elec       q    Type
REMARK                         _______ _______ _______ _____ _____    ______ ____
ROOT
ATOM      1  C   UNL     1       6.385   5.205  15.821  0.00  0.00    +0.000 A 
ATOM      2  C   UNL     1       5.695   3.984  15.876  0.00  0.00    +0.000 A 
ATOM      3  C   UNL     1       4.672   3.773  16.805  0.00  0.00    +0.000 A 
ATOM      4  C   UNL     1       4.324   4.772  17.715  0.00  0.00    +0.000 A 
ATOM      5  C   UNL     1       5.020   5.982  17.659  0.00  0.00    +0.000 A 
ATOM      6  C   UNL     1       6.073   6.200  16.758  0.00  0.00    +0.000 A 
ENDROOT
BRANCH   4   7
ATOM      7  C   UNL     1       3.192   4.553  18.632  0.00  0.00    +0.000 C 
ATOM      8  C   UNL     1       3.117   3.641  19.619  0.00  0.00    +0.000 C 
ATOM      9  C   UNL     1       4.080   2.578  20.038  0.00  0.00    +0.000 C 
BRANCH   8  10
ATOM     10  N   UNL     1       1.890   3.657  20.422  0.00  0.00    +0.000 N 
ATOM     11  O   UNL     1       0.818   3.575  19.809  0.00  0.00    +0.000 OA
ATOM     12  O   UNL     1       1.995   3.756  21.651  0.00  0.00    +0.000 OA
ENDBRANCH   8  10
ENDBRANCH   4   7
BRANCH   6  13
ATOM     13  O   UNL     1       6.644   7.430  16.944  0.00  0.00    +0.000 OA
ATOM     14  C   UNL     1       7.767   7.556  17.798  0.00  0.00    +0.000 C 
ENDBRANCH   6  13
BRANCH   1  15
ATOM     15  O   UNL     1       7.351   5.451  14.884  0.00  0.00    +0.000 OA
BRANCH  15  17
ATOM     16  C   UNL     1       8.049   5.509  12.600  0.00  0.00    +0.000 C 
ATOM     17  C   UNL     1       7.179   4.802  13.621  0.00  0.00    +0.000 C 
ENDBRANCH  15  17
ENDBRANCH   1  15
TORSDOF 5
ENDMDL
