MODEL 1
REMARK VINA RESULT:      -9.0      0.000      0.000
REMARK  Name = 
REMARK  6 active torsions:
REMARK  status: ('A' for Active; 'I' for Inactive)
REMARK    1  A    between atoms: C_1  and  N_2
REMARK    2  A    between atoms: N_6  and  C_7
REMARK    3  A    between atoms: C_7  and  C_8
REMARK    4  A    between atoms: C_11  and  N_12
REMARK    5  A    between atoms: C_13  and  C_15
REMARK    6  A    between atoms: C_26  and  C_27
REMARK                            x       y       z     vdW  Elec       q    Type
REMARK                         _______ _______ _______ _____ _____    ______ ____
ROOT
ATOM      1  C   UNL     1       2.863   8.477  17.838  0.00  0.00    +0.000 C 
ENDROOT
BRANCH   1   7
ATOM      2  C   UNL     1       7.411   7.392  17.442  0.00  0.00    +0.000 C 
ATOM      3  N   UNL     1       7.058   6.075  16.967  0.00  0.00    +0.000 N 
ATOM      4  C   UNL     1       5.768   5.676  17.305  0.00  0.00    +0.000 A 
ATOM      5  N   UNL     1       4.794   6.580  17.426  0.00  0.00    +0.000 NA
ATOM      6  C   UNL     1       3.565   6.136  17.724  0.00  0.00    +0.000 A 
ATOM      7  N   UNL     1       2.526   7.063  17.914  0.00  0.00    +0.000 N 
ATOM      8  C   UNL     1       3.291   4.773  17.913  0.00  0.00    +0.000 A 
ATOM      9  C   UNL     1       2.014   4.240  18.231  0.00  0.00    +0.000 A 
ATOM     10  C   UNL     1       1.831   2.875  18.455  0.00  0.00    +0.000 A 
ATOM     11  C   UNL     1       0.482   2.330  18.809  0.00  0.00    +0.000 C 
ATOM     12  C   UNL     1       2.943   2.039  18.384  0.00  0.00    +0.000 A 
ATOM     13  C   UNL     1       4.198   2.565  18.051  0.00  0.00    +0.000 A 
ATOM     14  C   UNL     1       4.391   3.921  17.806  0.00  0.00    +0.000 A 
ATOM     15  N   UNL     1       5.613   4.363  17.497  0.00  0.00    +0.000 NA
ATOM     16  H   UNL     1       7.668   5.320  17.262  0.00  0.00    +0.000 HD
ATOM     17  H   UNL     1       1.740   6.827  17.318  0.00  0.00    +0.000 HD
ENDBRANCH   1   7
BRANCH   1  18
ATOM     18  C   UNL     1       1.819   9.213  18.652  0.00  0.00    +0.000 A 
ATOM     19  C   UNL     1       1.365   8.674  19.863  0.00  0.00    +0.000 A 
ATOM     20  C   UNL     1       0.316   9.276  20.557  0.00  0.00    +0.000 A 
ATOM     21  C   UNL     1      -0.318  10.420  20.065  0.00  0.00    +0.000 A 
ATOM     22  C   UNL     1       0.139  10.966  18.858  0.00  0.00    +0.000 A 
ATOM     23  C   UNL     1       1.202  10.370  18.162  0.00  0.00    +0.000 A 
BRANCH  21  24
ATOM     24  N   UNL     1      -1.416  11.038  20.711  0.00  0.00    +0.000 N 
ATOM     25  C   UNL     1      -1.345  11.760  21.894  0.00  0.00    +0.000 C 
ATOM     26  O   UNL     1      -0.328  12.042  22.520  0.00  0.00    +0.000 OA
ATOM     27  H   UNL     1      -2.291  11.033  20.209  0.00  0.00    +0.000 HD
BRANCH  25  28
ATOM     28  C   UNL     1      -2.631  12.300  22.421  0.00  0.00    +0.000 A 
ATOM     29  C   UNL     1      -2.966  12.280  23.781  0.00  0.00    +0.000 A 
ATOM     30  C   UNL     1      -4.188  12.818  24.202  0.00  0.00    +0.000 A 
ATOM     31  C   UNL     1      -5.067  13.378  23.271  0.00  0.00    +0.000 A 
ATOM     32 CL   UNL     1      -6.574  14.021  23.796  0.00  0.00    +0.000 Cl
ATOM     33  C   UNL     1      -4.729  13.426  21.922  0.00  0.00    +0.000 A 
ATOM     34  C   UNL     1      -3.511  12.893  21.499  0.00  0.00    +0.000 A 
ENDBRANCH  25  28
ENDBRANCH  21  24
ENDBRANCH   1  18
TORSDOF 4
ENDMDL
MODEL 2
REMARK VINA RESULT:      -9.0      3.058      5.349
REMARK  Name = 
REMARK  6 active torsions:
REMARK  status: ('A' for Active; 'I' for Inactive)
REMARK    1  A    between atoms: C_1  and  N_2
REMARK    2  A    between atoms: N_6  and  C_7
REMARK    3  A    between atoms: C_7  and  C_8
REMARK    4  A    between atoms: C_11  and  N_12
REMARK    5  A    between atoms: C_13  and  C_15
REMARK    6  A    between atoms: C_26  and  C_27
REMARK                            x       y       z     vdW  Elec       q    Type
REMARK                         _______ _______ _______ _____ _____    ______ ____
ROOT
ATOM      1  C   UNL     1       4.382   2.945  18.031  0.00  0.00    +0.000 C 
ENDROOT
BRANCH   1   7
ATOM      2  C   UNL     1       7.868   5.930  19.009  0.00  0.00    +0.000 C 
ATOM      3  N   UNL     1       7.773   6.481  17.679  0.00  0.00    +0.000 N 
ATOM      4  C   UNL     1       7.154   5.641  16.758  0.00  0.00    +0.000 A 
ATOM      5  N   UNL     1       6.202   4.793  17.155  0.00  0.00    +0.000 NA
ATOM      6  C   UNL     1       5.621   4.028  16.220  0.00  0.00    +0.000 A 
ATOM      7  N   UNL     1       4.654   3.085  16.608  0.00  0.00    +0.000 N 
ATOM      8  C   UNL     1       5.988   4.095  14.868  0.00  0.00    +0.000 A 
ATOM      9  C   UNL     1       5.411   3.313  13.832  0.00  0.00    +0.000 A 
ATOM     10  C   UNL     1       5.867   3.401  12.516  0.00  0.00    +0.000 A 
ATOM     11  C   UNL     1       5.262   2.555  11.438  0.00  0.00    +0.000 C 
ATOM     12  C   UNL     1       6.927   4.261  12.239  0.00  0.00    +0.000 A 
ATOM     13  C   UNL     1       7.480   5.046  13.259  0.00  0.00    +0.000 A 
ATOM     14  C   UNL     1       7.022   4.984  14.571  0.00  0.00    +0.000 A 
ATOM     15  N   UNL     1       7.594   5.755  15.501  0.00  0.00    +0.000 NA
ATOM     16  H   UNL     1       8.649   6.762  17.252  0.00  0.00    +0.000 HD
ATOM     17  H   UNL     1       3.805   3.221  16.070  0.00  0.00    +0.000 HD
ENDBRANCH   1   7
BRANCH   1  18
ATOM     18  C   UNL     1       3.607   4.178  18.445  0.00  0.00    +0.000 A 
ATOM     19  C   UNL     1       2.563   4.653  17.641  0.00  0.00    +0.000 A 
ATOM     20  C   UNL     1       1.926   5.857  17.944  0.00  0.00    +0.000 A 
ATOM     21  C   UNL     1       2.313   6.625  19.045  0.00  0.00    +0.000 A 
ATOM     22  C   UNL     1       3.351   6.149  19.855  0.00  0.00    +0.000 A 
ATOM     23  C   UNL     1       3.988   4.934  19.561  0.00  0.00    +0.000 A 
BRANCH  21  24
ATOM     24  N   UNL     1       1.727   7.874  19.365  0.00  0.00    +0.000 N 
ATOM     25  C   UNL     1       1.737   8.996  18.547  0.00  0.00    +0.000 C 
ATOM     26  O   UNL     1       2.178   9.064  17.404  0.00  0.00    +0.000 OA
ATOM     27  H   UNL     1       1.175   7.905  20.209  0.00  0.00    +0.000 HD
BRANCH  25  28
ATOM     28  C   UNL     1       1.088  10.222  19.094  0.00  0.00    +0.000 A 
ATOM     29  C   UNL     1       0.159  10.189  20.141  0.00  0.00    +0.000 A 
ATOM     30  C   UNL     1      -0.399  11.384  20.610  0.00  0.00    +0.000 A 
ATOM     31  C   UNL     1      -0.027  12.605  20.041  0.00  0.00    +0.000 A 
ATOM     32 CL   UNL     1      -0.731  14.067  20.612  0.00  0.00    +0.000 Cl
ATOM     33  C   UNL     1       0.916  12.647  19.018  0.00  0.00    +0.000 A 
ATOM     34  C   UNL     1       1.476  11.457  18.550  0.00  0.00    +0.000 A 
ENDBRANCH  25  28
ENDBRANCH  21  24
ENDBRANCH   1  18
TORSDOF 4
ENDMDL
MODEL 3
REMARK VINA RESULT:      -8.9      1.182      1.435
REMARK  Name = 
REMARK  6 active torsions:
REMARK  status: ('A' for Active; 'I' for Inactive)
REMARK    1  A    between atoms: C_1  and  N_2
REMARK    2  A    between atoms: N_6  and  C_7
REMARK    3  A    between atoms: C_7  and  C_8
REMARK    4  A    between atoms: C_11  and  N_12
REMARK    5  A    between atoms: C_13  and  C_15
REMARK    6  A    between atoms: C_26  and  C_27
REMARK                            x       y       z     vdW  Elec       q    Type
REMARK                         _______ _______ _______ _____ _____    ______ ____
ROOT
ATOM      1  C   UNL     1       2.697   8.044  18.149  0.00  0.00    +0.000 C 
ENDROOT
BRANCH   1   7
ATOM      2  C   UNL     1       7.193   7.099  17.195  0.00  0.00    +0.000 C 
ATOM      3  N   UNL     1       6.916   5.685  17.276  0.00  0.00    +0.000 N 
ATOM      4  C   UNL     1       5.764   5.372  17.991  0.00  0.00    +0.000 A 
ATOM      5  N   UNL     1       4.729   6.215  18.003  0.00  0.00    +0.000 NA
ATOM      6  C   UNL     1       3.635   5.848  18.684  0.00  0.00    +0.000 A 
ATOM      7  N   UNL     1       2.547   6.734  18.766  0.00  0.00    +0.000 N 
ATOM      8  C   UNL     1       3.560   4.629  19.374  0.00  0.00    +0.000 A 
ATOM      9  C   UNL     1       2.431   4.185  20.113  0.00  0.00    +0.000 A 
ATOM     10  C   UNL     1       2.453   2.979  20.816  0.00  0.00    +0.000 A 
ATOM     11  C   UNL     1       1.262   2.533  21.608  0.00  0.00    +0.000 C 
ATOM     12  C   UNL     1       3.623   2.224  20.799  0.00  0.00    +0.000 A 
ATOM     13  C   UNL     1       4.727   2.656  20.053  0.00  0.00    +0.000 A 
ATOM     14  C   UNL     1       4.713   3.845  19.331  0.00  0.00    +0.000 A 
ATOM     15  N   UNL     1       5.799   4.205  18.641  0.00  0.00    +0.000 NA
ATOM     16  H   UNL     1       7.652   5.111  17.672  0.00  0.00    +0.000 HD
ATOM     17  H   UNL     1       1.699   6.267  18.463  0.00  0.00    +0.000 HD
ENDBRANCH   1   7
BRANCH   1  18
ATOM     18  C   UNL     1       1.746   8.973  18.874  0.00  0.00    +0.000 A 
ATOM     19  C   UNL     1       1.285   8.646  20.156  0.00  0.00    +0.000 A 
ATOM     20  C   UNL     1       0.313   9.427  20.780  0.00  0.00    +0.000 A 
ATOM     21  C   UNL     1      -0.236  10.545  20.148  0.00  0.00    +0.000 A 
ATOM     22  C   UNL     1       0.228  10.880  18.869  0.00  0.00    +0.000 A 
ATOM     23  C   UNL     1       1.214  10.103  18.241  0.00  0.00    +0.000 A 
BRANCH  21  24
ATOM     24  N   UNL     1      -1.257  11.340  20.723  0.00  0.00    +0.000 N 
ATOM     25  C   UNL     1      -1.267  11.805  22.031  0.00  0.00    +0.000 C 
ATOM     26  O   UNL     1      -0.375  11.672  22.862  0.00  0.00    +0.000 OA
ATOM     27  H   UNL     1      -1.973  11.671  20.095  0.00  0.00    +0.000 HD
BRANCH  25  28
ATOM     28  C   UNL     1      -2.459  12.600  22.444  0.00  0.00    +0.000 A 
ATOM     29  C   UNL     1      -2.941  13.689  21.706  0.00  0.00    +0.000 A 
ATOM     30  C   UNL     1      -4.074  14.381  22.150  0.00  0.00    +0.000 A 
ATOM     31  C   UNL     1      -4.726  13.982  23.320  0.00  0.00    +0.000 A 
ATOM     32 CL   UNL     1      -6.108  14.849  23.868  0.00  0.00    +0.000 Cl
ATOM     33  C   UNL     1      -4.270  12.885  24.043  0.00  0.00    +0.000 A 
ATOM     34  C   UNL     1      -3.141  12.192  23.602  0.00  0.00    +0.000 A 
ENDBRANCH  25  28
ENDBRANCH  21  24
ENDBRANCH   1  18
TORSDOF 4
ENDMDL
MODEL 4
REMARK VINA RESULT:      -8.9      0.474      1.266
REMARK  Name = 
REMARK  6 active torsions:
REMARK  status: ('A' for Active; 'I' for Inactive)
REMARK    1  A    between atoms: C_1  and  N_2
REMARK    2  A    between atoms: N_6  and  C_7
REMARK    3  A    between atoms: C_7  and  C_8
REMARK    4  A    between atoms: C_11  and  N_12
REMARK    5  A    between atoms: C_13  and  C_15
REMARK    6  A    between atoms: C_26  and  C_27
REMARK                            x       y       z     vdW  Elec       q    Type
REMARK                         _______ _______ _______ _____ _____    ______ ____
ROOT
ATOM      1  C   UNL     1       2.801   8.425  18.110  0.00  0.00    +0.000 C 
ENDROOT
BRANCH   1   7
ATOM      2  C   UNL     1       7.297   7.438  17.200  0.00  0.00    +0.000 C 
ATOM      3  N   UNL     1       6.909   6.162  16.649  0.00  0.00    +0.000 N 
ATOM      4  C   UNL     1       5.658   5.718  17.070  0.00  0.00    +0.000 A 
ATOM      5  N   UNL     1       4.695   6.596  17.359  0.00  0.00    +0.000 NA
ATOM      6  C   UNL     1       3.502   6.111  17.731  0.00  0.00    +0.000 A 
ATOM      7  N   UNL     1       2.481   7.005  18.096  0.00  0.00    +0.000 N 
ATOM      8  C   UNL     1       3.254   4.734  17.828  0.00  0.00    +0.000 A 
ATOM      9  C   UNL     1       2.015   4.159  18.217  0.00  0.00    +0.000 A 
ATOM     10  C   UNL     1       1.862   2.777  18.339  0.00  0.00    +0.000 A 
ATOM     11  C   UNL     1       0.555   2.187  18.769  0.00  0.00    +0.000 C 
ATOM     12  C   UNL     1       2.967   1.965  18.094  0.00  0.00    +0.000 A 
ATOM     13  C   UNL     1       4.182   2.534  17.691  0.00  0.00    +0.000 A 
ATOM     14  C   UNL     1       4.343   3.908  17.546  0.00  0.00    +0.000 A 
ATOM     15  N   UNL     1       5.529   4.391  17.163  0.00  0.00    +0.000 NA
ATOM     16  H   UNL     1       7.547   5.392  16.820  0.00  0.00    +0.000 HD
ATOM     17  H   UNL     1       1.643   6.810  17.558  0.00  0.00    +0.000 HD
ENDBRANCH   1   7
BRANCH   1  18
ATOM     18  C   UNL     1       1.599   9.132  18.701  0.00  0.00    +0.000 A 
ATOM     19  C   UNL     1       1.048  10.242  18.048  0.00  0.00    +0.000 A 
ATOM     20  C   UNL     1       0.024  10.978  18.644  0.00  0.00    +0.000 A 
ATOM     21  C   UNL     1      -0.474  10.639  19.905  0.00  0.00    +0.000 A 
ATOM     22  C   UNL     1       0.070   9.525  20.557  0.00  0.00    +0.000 A 
ATOM     23  C   UNL     1       1.093   8.775  19.956  0.00  0.00    +0.000 A 
BRANCH  21  24
ATOM     24  N   UNL     1      -1.480  11.383  20.568  0.00  0.00    +0.000 N 
ATOM     25  C   UNL     1      -1.277  12.192  21.678  0.00  0.00    +0.000 C 
ATOM     26  O   UNL     1      -0.201  12.452  22.207  0.00  0.00    +0.000 OA
ATOM     27  H   UNL     1      -2.388  11.397  20.129  0.00  0.00    +0.000 HD
BRANCH  25  28
ATOM     28  C   UNL     1      -2.485  12.861  22.241  0.00  0.00    +0.000 A 
ATOM     29  C   UNL     1      -3.067  13.995  21.662  0.00  0.00    +0.000 A 
ATOM     30  C   UNL     1      -4.209  14.561  22.242  0.00  0.00    +0.000 A 
ATOM     31  C   UNL     1      -4.769  13.994  23.389  0.00  0.00    +0.000 A 
ATOM     32 CL   UNL     1      -6.162  14.706  24.105  0.00  0.00    +0.000 Cl
ATOM     33  C   UNL     1      -4.211  12.851  23.955  0.00  0.00    +0.000 A 
ATOM     34  C   UNL     1      -3.074  12.283  23.378  0.00  0.00    +0.000 A 
ENDBRANCH  25  28
ENDBRANCH  21  24
ENDBRANCH   1  18
TORSDOF 4
ENDMDL
MODEL 5
REMARK VINA RESULT:      -8.8      1.371      1.503
REMARK  Name = 
REMARK  6 active torsions:
REMARK  status: ('A' for Active; 'I' for Inactive)
REMARK    1  A    between atoms: C_1  and  N_2
REMARK    2  A    between atoms: N_6  and  C_7
REMARK    3  A    between atoms: C_7  and  C_8
REMARK    4  A    between atoms: C_11  and  N_12
REMARK    5  A    between atoms: C_13  and  C_15
REMARK    6  A    between atoms: C_26  and  C_27
REMARK                            x       y       z     vdW  Elec       q    Type
REMARK                         _______ _______ _______ _____ _____    ______ ____
ROOT
ATOM      1  C   UNL     1       2.731   8.154  17.696  0.00  0.00    +0.000 C 
ENDROOT
BRANCH   1   7
ATOM      2  C   UNL     1       7.367   7.495  17.400  0.00  0.00    +0.000 C 
ATOM      3  N   UNL     1       7.168   6.065  17.423  0.00  0.00    +0.000 N 
ATOM      4  C   UNL     1       5.945   5.670  17.957  0.00  0.00    +0.000 A 
ATOM      5  N   UNL     1       4.870   6.450  17.827  0.00  0.00    +0.000 NA
ATOM      6  C   UNL     1       3.713   6.006  18.336  0.00  0.00    +0.000 A 
ATOM      7  N   UNL     1       2.573   6.824  18.268  0.00  0.00    +0.000 N 
ATOM      8  C   UNL     1       3.613   4.770  18.992  0.00  0.00    +0.000 A 
ATOM      9  C   UNL     1       2.419   4.244  19.553  0.00  0.00    +0.000 A 
ATOM     10  C   UNL     1       2.411   3.027  20.237  0.00  0.00    +0.000 A 
ATOM     11  C   UNL     1       1.147   2.495  20.839  0.00  0.00    +0.000 C 
ATOM     12  C   UNL     1       3.615   2.343  20.382  0.00  0.00    +0.000 A 
ATOM     13  C   UNL     1       4.788   2.855  19.811  0.00  0.00    +0.000 A 
ATOM     14  C   UNL     1       4.806   4.056  19.110  0.00  0.00    +0.000 A 
ATOM     15  N   UNL     1       5.958   4.494  18.591  0.00  0.00    +0.000 NA
ATOM     16  H   UNL     1       7.873   5.527  17.916  0.00  0.00    +0.000 HD
ATOM     17  H   UNL     1       1.808   6.314  17.838  0.00  0.00    +0.000 HD
ENDBRANCH   1   7
BRANCH   1  18
ATOM     18  C   UNL     1       1.993   9.107  18.613  0.00  0.00    +0.000 A 
ATOM     19  C   UNL     1       1.458   8.645  19.822  0.00  0.00    +0.000 A 
ATOM     20  C   UNL     1       0.669   9.480  20.613  0.00  0.00    +0.000 A 
ATOM     21  C   UNL     1       0.383  10.791  20.223  0.00  0.00    +0.000 A 
ATOM     22  C   UNL     1       0.924  11.259  19.018  0.00  0.00    +0.000 A 
ATOM     23  C   UNL     1       1.726  10.425  18.224  0.00  0.00    +0.000 A 
BRANCH  21  24
ATOM     24  N   UNL     1      -0.449  11.660  20.970  0.00  0.00    +0.000 N 
ATOM     25  C   UNL     1      -0.674  11.572  22.337  0.00  0.00    +0.000 C 
ATOM     26  O   UNL     1      -0.139  10.793  23.119  0.00  0.00    +0.000 OA
ATOM     27  H   UNL     1      -0.818  12.459  20.477  0.00  0.00    +0.000 HD
BRANCH  25  28
ATOM     28  C   UNL     1      -1.616  12.571  22.920  0.00  0.00    +0.000 A 
ATOM     29  C   UNL     1      -2.964  12.290  23.172  0.00  0.00    +0.000 A 
ATOM     30  C   UNL     1      -3.785  13.276  23.734  0.00  0.00    +0.000 A 
ATOM     31  C   UNL     1      -3.260  14.532  24.047  0.00  0.00    +0.000 A 
ATOM     32 CL   UNL     1      -4.280  15.743  24.721  0.00  0.00    +0.000 Cl
ATOM     33  C   UNL     1      -1.914  14.810  23.824  0.00  0.00    +0.000 A 
ATOM     34  C   UNL     1      -1.093  13.828  23.266  0.00  0.00    +0.000 A 
ENDBRANCH  25  28
ENDBRANCH  21  24
ENDBRANCH   1  18
TORSDOF 4
ENDMDL
MODEL 6
REMARK VINA RESULT:      -8.7      2.962      5.133
REMARK  Name = 
REMARK  6 active torsions:
REMARK  status: ('A' for Active; 'I' for Inactive)
REMARK    1  A    between atoms: C_1  and  N_2
REMARK    2  A    between atoms: N_6  and  C_7
REMARK    3  A    between atoms: C_7  and  C_8
REMARK    4  A    between atoms: C_11  and  N_12
REMARK    5  A    between atoms: C_13  and  C_15
REMARK    6  A    between atoms: C_26  and  C_27
REMARK                            x       y       z     vdW  Elec       q    Type
REMARK                         _______ _______ _______ _____ _____    ______ ____
ROOT
ATOM      1  C   UNL     1       4.333   3.017  17.989  0.00  0.00    +0.000 C 
ENDROOT
BRANCH   1   7
ATOM      2  C   UNL     1       7.842   5.979  18.954  0.00  0.00    +0.000 C 
ATOM      3  N   UNL     1       7.765   6.511  17.614  0.00  0.00    +0.000 N 
ATOM      4  C   UNL     1       7.145   5.664  16.701  0.00  0.00    +0.000 A 
ATOM      5  N   UNL     1       6.181   4.832  17.101  0.00  0.00    +0.000 NA
ATOM      6  C   UNL     1       5.600   4.060  16.173  0.00  0.00    +0.000 A 
ATOM      7  N   UNL     1       4.619   3.133  16.566  0.00  0.00    +0.000 N 
ATOM      8  C   UNL     1       5.980   4.103  14.823  0.00  0.00    +0.000 A 
ATOM      9  C   UNL     1       5.404   3.311  13.794  0.00  0.00    +0.000 A 
ATOM     10  C   UNL     1       5.873   3.374  12.481  0.00  0.00    +0.000 A 
ATOM     11  C   UNL     1       5.269   2.518  11.410  0.00  0.00    +0.000 C 
ATOM     12  C   UNL     1       6.944   4.219  12.201  0.00  0.00    +0.000 A 
ATOM     13  C   UNL     1       7.496   5.012  13.214  0.00  0.00    +0.000 A 
ATOM     14  C   UNL     1       7.026   4.975  14.523  0.00  0.00    +0.000 A 
ATOM     15  N   UNL     1       7.598   5.754  15.447  0.00  0.00    +0.000 NA
ATOM     16  H   UNL     1       8.648   6.776  17.191  0.00  0.00    +0.000 HD
ATOM     17  H   UNL     1       3.776   3.269  16.019  0.00  0.00    +0.000 HD
ENDBRANCH   1   7
BRANCH   1  18
ATOM     18  C   UNL     1       3.630   4.297  18.392  0.00  0.00    +0.000 A 
ATOM     19  C   UNL     1       2.503   4.731  17.682  0.00  0.00    +0.000 A 
ATOM     20  C   UNL     1       1.924   5.969  17.962  0.00  0.00    +0.000 A 
ATOM     21  C   UNL     1       2.451   6.812  18.944  0.00  0.00    +0.000 A 
ATOM     22  C   UNL     1       3.573   6.377  19.660  0.00  0.00    +0.000 A 
ATOM     23  C   UNL     1       4.153   5.128  19.390  0.00  0.00    +0.000 A 
BRANCH  21  24
ATOM     24  N   UNL     1       1.924   8.095  19.230  0.00  0.00    +0.000 N 
ATOM     25  C   UNL     1       1.252   8.442  20.394  0.00  0.00    +0.000 C 
ATOM     26  O   UNL     1       1.076   7.731  21.377  0.00  0.00    +0.000 OA
ATOM     27  H   UNL     1       2.152   8.828  18.575  0.00  0.00    +0.000 HD
BRANCH  25  28
ATOM     28  C   UNL     1       0.749   9.844  20.477  0.00  0.00    +0.000 A 
ATOM     29  C   UNL     1       0.197  10.387  21.644  0.00  0.00    +0.000 A 
ATOM     30  C   UNL     1      -0.242  11.716  21.649  0.00  0.00    +0.000 A 
ATOM     31  C   UNL     1      -0.125  12.500  20.498  0.00  0.00    +0.000 A 
ATOM     32 CL   UNL     1      -0.683  14.127  20.509  0.00  0.00    +0.000 Cl
ATOM     33  C   UNL     1       0.448  11.975  19.343  0.00  0.00    +0.000 A 
ATOM     34  C   UNL     1       0.888  10.651  19.335  0.00  0.00    +0.000 A 
ENDBRANCH  25  28
ENDBRANCH  21  24
ENDBRANCH   1  18
TORSDOF 4
ENDMDL
MODEL 7
REMARK VINA RESULT:      -8.6      1.443      1.773
REMARK  Name = 
REMARK  6 active torsions:
REMARK  status: ('A' for Active; 'I' for Inactive)
REMARK    1  A    between atoms: C_1  and  N_2
REMARK    2  A    between atoms: N_6  and  C_7
REMARK    3  A    between atoms: C_7  and  C_8
REMARK    4  A    between atoms: C_11  and  N_12
REMARK    5  A    between atoms: C_13  and  C_15
REMARK    6  A    between atoms: C_26  and  C_27
REMARK                            x       y       z     vdW  Elec       q    Type
REMARK                         _______ _______ _______ _____ _____    ______ ____
ROOT
ATOM      1  C   UNL     1       2.812   8.461  17.639  0.00  0.00    +0.000 C 
ENDROOT
BRANCH   1   7
ATOM      2  C   UNL     1       7.405   7.551  17.324  0.00  0.00    +0.000 C 
ATOM      3  N   UNL     1       7.126   6.134  17.321  0.00  0.00    +0.000 N 
ATOM      4  C   UNL     1       5.884   5.798  17.849  0.00  0.00    +0.000 A 
ATOM      5  N   UNL     1       4.853   6.639  17.735  0.00  0.00    +0.000 NA
ATOM      6  C   UNL     1       3.673   6.250  18.237  0.00  0.00    +0.000 A 
ATOM      7  N   UNL     1       2.580   7.132  18.185  0.00  0.00    +0.000 N 
ATOM      8  C   UNL     1       3.505   5.010  18.870  0.00  0.00    +0.000 A 
ATOM      9  C   UNL     1       2.283   4.541  19.422  0.00  0.00    +0.000 A 
ATOM     10  C   UNL     1       2.208   3.314  20.083  0.00  0.00    +0.000 A 
ATOM     11  C   UNL     1       0.917   2.842  20.678  0.00  0.00    +0.000 C 
ATOM     12  C   UNL     1       3.372   2.561  20.214  0.00  0.00    +0.000 A 
ATOM     13  C   UNL     1       4.571   3.017  19.652  0.00  0.00    +0.000 A 
ATOM     14  C   UNL     1       4.657   4.228  18.973  0.00  0.00    +0.000 A 
ATOM     15  N   UNL     1       5.830   4.611  18.461  0.00  0.00    +0.000 NA
ATOM     16  H   UNL     1       7.800   5.549  17.803  0.00  0.00    +0.000 HD
ATOM     17  H   UNL     1       1.788   6.674  17.747  0.00  0.00    +0.000 HD
ENDBRANCH   1   7
BRANCH   1  18
ATOM     18  C   UNL     1       1.904   9.404  18.399  0.00  0.00    +0.000 A 
ATOM     19  C   UNL     1       1.987  10.786  18.183  0.00  0.00    +0.000 A 
ATOM     20  C   UNL     1       1.247  11.671  18.966  0.00  0.00    +0.000 A 
ATOM     21  C   UNL     1       0.414  11.213  19.990  0.00  0.00    +0.000 A 
ATOM     22  C   UNL     1       0.322   9.832  20.203  0.00  0.00    +0.000 A 
ATOM     23  C   UNL     1       1.056   8.936  19.410  0.00  0.00    +0.000 A 
BRANCH  21  24
ATOM     24  N   UNL     1      -0.320  12.076  20.839  0.00  0.00    +0.000 N 
ATOM     25  C   UNL     1      -0.543  11.867  22.193  0.00  0.00    +0.000 C 
ATOM     26  O   UNL     1      -0.085  10.959  22.879  0.00  0.00    +0.000 OA
ATOM     27  H   UNL     1      -0.609  12.957  20.439  0.00  0.00    +0.000 HD
BRANCH  25  28
ATOM     28  C   UNL     1      -1.374  12.888  22.894  0.00  0.00    +0.000 A 
ATOM     29  C   UNL     1      -0.920  14.185  23.164  0.00  0.00    +0.000 A 
ATOM     30  C   UNL     1      -1.763  15.093  23.816  0.00  0.00    +0.000 A 
ATOM     31  C   UNL     1      -3.054  14.709  24.190  0.00  0.00    +0.000 A 
ATOM     32 CL   UNL     1      -4.076  15.827  25.006  0.00  0.00    +0.000 Cl
ATOM     33  C   UNL     1      -3.521  13.431  23.900  0.00  0.00    +0.000 A 
ATOM     34  C   UNL     1      -2.684  12.524  23.249  0.00  0.00    +0.000 A 
ENDBRANCH  25  28
ENDBRANCH  21  24
ENDBRANCH   1  18
TORSDOF 4
ENDMDL
MODEL 8
REMARK VINA RESULT:      -8.6      2.792      4.760
REMARK  Name = 
REMARK  6 active torsions:
REMARK  status: ('A' for Active; 'I' for Inactive)
REMARK    1  A    between atoms: C_1  and  N_2
REMARK    2  A    between atoms: N_6  and  C_7
REMARK    3  A    between atoms: C_7  and  C_8
REMARK    4  A    between atoms: C_11  and  N_12
REMARK    5  A    between atoms: C_13  and  C_15
REMARK    6  A    between atoms: C_26  and  C_27
REMARK                            x       y       z     vdW  Elec       q    Type
REMARK                         _______ _______ _______ _____ _____    ______ ____
ROOT
ATOM      1  C   UNL     1       3.834   3.283  18.333  0.00  0.00    +0.000 C 
ENDROOT
BRANCH   1   7
ATOM      2  C   UNL     1       7.712   5.576  19.643  0.00  0.00    +0.000 C 
ATOM      3  N   UNL     1       7.779   6.209  18.348  0.00  0.00    +0.000 N 
ATOM      4  C   UNL     1       7.078   5.538  17.350  0.00  0.00    +0.000 A 
ATOM      5  N   UNL     1       5.979   4.842  17.652  0.00  0.00    +0.000 NA
ATOM      6  C   UNL     1       5.327   4.240  16.648  0.00  0.00    +0.000 A 
ATOM      7  N   UNL     1       4.199   3.454  16.934  0.00  0.00    +0.000 N 
ATOM      8  C   UNL     1       5.770   4.319  15.319  0.00  0.00    +0.000 A 
ATOM      9  C   UNL     1       5.126   3.704  14.212  0.00  0.00    +0.000 A 
ATOM     10  C   UNL     1       5.658   3.786  12.924  0.00  0.00    +0.000 A 
ATOM     11  C   UNL     1       4.978   3.116  11.771  0.00  0.00    +0.000 C 
ATOM     12  C   UNL     1       6.859   4.469  12.748  0.00  0.00    +0.000 A 
ATOM     13  C   UNL     1       7.481   5.091  13.838  0.00  0.00    +0.000 A 
ATOM     14  C   UNL     1       6.952   5.035  15.123  0.00  0.00    +0.000 A 
ATOM     15  N   UNL     1       7.595   5.645  16.123  0.00  0.00    +0.000 NA
ATOM     16  H   UNL     1       8.711   6.361  17.976  0.00  0.00    +0.000 HD
ATOM     17  H   UNL     1       3.413   3.761  16.371  0.00  0.00    +0.000 HD
ENDBRANCH   1   7
BRANCH   1  18
ATOM     18  C   UNL     1       3.175   4.576  18.767  0.00  0.00    +0.000 A 
ATOM     19  C   UNL     1       2.782   5.519  17.809  0.00  0.00    +0.000 A 
ATOM     20  C   UNL     1       2.291   6.765  18.201  0.00  0.00    +0.000 A 
ATOM     21  C   UNL     1       2.186   7.112  19.550  0.00  0.00    +0.000 A 
ATOM     22  C   UNL     1       2.571   6.167  20.511  0.00  0.00    +0.000 A 
ATOM     23  C   UNL     1       3.055   4.909  20.122  0.00  0.00    +0.000 A 
BRANCH  21  24
ATOM     24  N   UNL     1       1.737   8.379  19.993  0.00  0.00    +0.000 N 
ATOM     25  C   UNL     1       0.733   8.590  20.928  0.00  0.00    +0.000 C 
ATOM     26  O   UNL     1       0.136   7.731  21.569  0.00  0.00    +0.000 OA
ATOM     27  H   UNL     1       2.266   9.177  19.674  0.00  0.00    +0.000 HD
BRANCH  25  28
ATOM     28  C   UNL     1       0.393  10.011  21.228  0.00  0.00    +0.000 A 
ATOM     29  C   UNL     1       0.876  11.086  20.471  0.00  0.00    +0.000 A 
ATOM     30  C   UNL     1       0.502  12.393  20.805  0.00  0.00    +0.000 A 
ATOM     31  C   UNL     1      -0.355  12.624  21.884  0.00  0.00    +0.000 A 
ATOM     32 CL   UNL     1      -0.795  14.235  22.298  0.00  0.00    +0.000 Cl
ATOM     33  C   UNL     1      -0.861  11.559  22.624  0.00  0.00    +0.000 A 
ATOM     34  C   UNL     1      -0.491  10.255  22.292  0.00  0.00    +0.000 A 
ENDBRANCH  25  28
ENDBRANCH  21  24
ENDBRANCH   1  18
TORSDOF 4
ENDMDL
MODEL 9
REMARK VINA RESULT:      -8.6      0.884      1.196
REMARK  Name = 
REMARK  6 active torsions:
REMARK  status: ('A' for Active; 'I' for Inactive)
REMARK    1  A    between atoms: C_1  and  N_2
REMARK    2  A    between atoms: N_6  and  C_7
REMARK    3  A    between atoms: C_7  and  C_8
REMARK    4  A    between atoms: C_11  and  N_12
REMARK    5  A    between atoms: C_13  and  C_15
REMARK    6  A    between atoms: C_26  and  C_27
REMARK                            x       y       z     vdW  Elec       q    Type
REMARK                         _______ _______ _______ _____ _____    ______ ____
ROOT
ATOM      1  C   UNL     1       3.222   8.092  17.604  0.00  0.00    +0.000 C 
ENDROOT
BRANCH   1   7
ATOM      2  C   UNL     1       7.715   6.926  18.289  0.00  0.00    +0.000 C 
ATOM      3  N   UNL     1       7.417   5.558  17.938  0.00  0.00    +0.000 N 
ATOM      4  C   UNL     1       6.072   5.220  18.058  0.00  0.00    +0.000 A 
ATOM      5  N   UNL     1       5.126   6.141  17.854  0.00  0.00    +0.000 NA
ATOM      6  C   UNL     1       3.848   5.752  17.955  0.00  0.00    +0.000 A 
ATOM      7  N   UNL     1       2.826   6.705  17.802  0.00  0.00    +0.000 N 
ATOM      8  C   UNL     1       3.492   4.432  18.269  0.00  0.00    +0.000 A 
ATOM      9  C   UNL     1       2.158   3.959  18.391  0.00  0.00    +0.000 A 
ATOM     10  C   UNL     1       1.886   2.640  18.758  0.00  0.00    +0.000 A 
ATOM     11  C   UNL     1       0.474   2.162  18.901  0.00  0.00    +0.000 C 
ATOM     12  C   UNL     1       2.958   1.794  19.029  0.00  0.00    +0.000 A 
ATOM     13  C   UNL     1       4.272   2.258  18.888  0.00  0.00    +0.000 A 
ATOM     14  C   UNL     1       4.559   3.564  18.504  0.00  0.00    +0.000 A 
ATOM     15  N   UNL     1       5.834   3.948  18.392  0.00  0.00    +0.000 NA
ATOM     16  H   UNL     1       7.928   4.847  18.450  0.00  0.00    +0.000 HD
ATOM     17  H   UNL     1       2.167   6.393  17.097  0.00  0.00    +0.000 HD
ENDBRANCH   1   7
BRANCH   1  18
ATOM     18  C   UNL     1       2.264   8.934  18.419  0.00  0.00    +0.000 A 
ATOM     19  C   UNL     1       1.697   8.417  19.590  0.00  0.00    +0.000 A 
ATOM     20  C   UNL     1       0.718   9.133  20.280  0.00  0.00    +0.000 A 
ATOM     21  C   UNL     1       0.268  10.374  19.821  0.00  0.00    +0.000 A 
ATOM     22  C   UNL     1       0.839  10.898  18.654  0.00  0.00    +0.000 A 
ATOM     23  C   UNL     1       1.832  10.186  17.963  0.00  0.00    +0.000 A 
BRANCH  21  24
ATOM     24  N   UNL     1      -0.754  11.115  20.462  0.00  0.00    +0.000 N 
ATOM     25  C   UNL     1      -0.548  12.121  21.397  0.00  0.00    +0.000 C 
ATOM     26  O   UNL     1       0.533  12.576  21.755  0.00  0.00    +0.000 OA
ATOM     27  H   UNL     1      -1.694  10.961  20.129  0.00  0.00    +0.000 HD
BRANCH  25  28
ATOM     28  C   UNL     1      -1.769  12.751  21.974  0.00  0.00    +0.000 A 
ATOM     29  C   UNL     1      -3.009  12.747  21.322  0.00  0.00    +0.000 A 
ATOM     30  C   UNL     1      -4.116  13.349  21.934  0.00  0.00    +0.000 A 
ATOM     31  C   UNL     1      -3.986  13.944  23.191  0.00  0.00    +0.000 A 
ATOM     32 CL   UNL     1      -5.347  14.696  23.927  0.00  0.00    +0.000 Cl
ATOM     33  C   UNL     1      -2.764  13.927  23.857  0.00  0.00    +0.000 A 
ATOM     34  C   UNL     1      -1.659  13.327  23.251  0.00  0.00    +0.000 A 
ENDBRANCH  25  28
ENDBRANCH  21  24
ENDBRANCH   1  18
TORSDOF 4
ENDMDL
