MODEL 1
REMARK VINA RESULT:      -7.9      0.000      0.000
REMARK  Name = 
REMARK  4 active torsions:
REMARK  status: ('A' for Active; 'I' for Inactive)
REMARK    1  A    between atoms: C_1  and  O_2
REMARK    2  A    between atoms: O_2  and  C_3
REMARK    3  A    between atoms: C_8  and  N_9
REMARK    4  A    between atoms: N_9  and  C_10
REMARK                            x       y       z     vdW  Elec       q    Type
REMARK                         _______ _______ _______ _____ _____    ______ ____
ROOT
ATOM      1  C   UNL     1       2.311   5.561  20.024  0.00  0.00    +0.000 A 
ATOM      2  N   UNL     1       1.349   4.920  20.742  0.00  0.00    +0.000 NA
ATOM      3  C   UNL     1       1.015   3.661  20.458  0.00  0.00    +0.000 A 
ATOM      4  N   UNL     1       1.467   2.928  19.450  0.00  0.00    +0.000 NA
ATOM      5  C   UNL     1       2.387   3.577  18.720  0.00  0.00    +0.000 A 
ATOM      6  S   UNL     1       2.967   2.846  17.307  0.00  0.00    +0.000 S 
ATOM      7  C   UNL     1       4.044   4.139  16.996  0.00  0.00    +0.000 A 
ATOM      8  C   UNL     1       4.901   4.243  15.882  0.00  0.00    +0.000 A 
ATOM      9  C   UNL     1       5.827   5.279  15.838  0.00  0.00    +0.000 A 
ATOM     10  C   UNL     1       5.902   6.186  16.884  0.00  0.00    +0.000 A 
ATOM     11  C   UNL     1       4.994   6.122  17.953  0.00  0.00    +0.000 A 
ATOM     12  C   UNL     1       4.006   5.101  18.014  0.00  0.00    +0.000 A 
ATOM     13  C   UNL     1       2.915   4.841  18.953  0.00  0.00    +0.000 A 
ENDROOT
BRANCH   1  14
ATOM     14  N   UNL     1       2.578   6.916  20.328  0.00  0.00    +0.000 N 
ATOM     15  H   UNL     1       3.520   7.092  20.641  0.00  0.00    +0.000 HD
BRANCH  14  21
ATOM     16  C   UNL     1       1.037   8.840  20.544  0.00  0.00    +0.000 A 
ATOM     17  C   UNL     1       0.278   9.861  19.943  0.00  0.00    +0.000 A 
ATOM     18  C   UNL     1       0.408  10.120  18.576  0.00  0.00    +0.000 A 
ATOM     19  C   UNL     1       1.279   9.358  17.809  0.00  0.00    +0.000 A 
ATOM     20  C   UNL     1       2.013   8.317  18.398  0.00  0.00    +0.000 A 
ATOM     21  C   UNL     1       1.903   8.037  19.772  0.00  0.00    +0.000 A 
BRANCH  16  23
ATOM     22  C   UNL     1       0.066   9.366  22.632  0.00  0.00    +0.000 C 
ATOM     23  O   UNL     1       0.981   8.576  21.893  0.00  0.00    +0.000 OA
ENDBRANCH  16  23
ENDBRANCH  14  21
ENDBRANCH   1  14
TORSDOF 3
ENDMDL
MODEL 2
REMARK VINA RESULT:      -7.8      2.808      5.653
REMARK  Name = 
REMARK  4 active torsions:
REMARK  status: ('A' for Active; 'I' for Inactive)
REMARK    1  A    between atoms: C_1  and  O_2
REMARK    2  A    between atoms: O_2  and  C_3
REMARK    3  A    between atoms: C_8  and  N_9
REMARK    4  A    between atoms: N_9  and  C_10
REMARK                            x       y       z     vdW  Elec       q    Type
REMARK                         _______ _______ _______ _____ _____    ______ ____
ROOT
ATOM      1  C   UNL     1       4.940   3.806  19.235  0.00  0.00    +0.000 A 
ATOM      2  N   UNL     1       4.913   2.607  19.878  0.00  0.00    +0.000 NA
ATOM      3  C   UNL     1       3.860   2.255  20.616  0.00  0.00    +0.000 A 
ATOM      4  N   UNL     1       2.798   3.001  20.889  0.00  0.00    +0.000 NA
ATOM      5  C   UNL     1       2.846   4.198  20.286  0.00  0.00    +0.000 A 
ATOM      6  S   UNL     1       1.642   5.334  20.640  0.00  0.00    +0.000 S 
ATOM      7  C   UNL     1       2.297   6.474  19.543  0.00  0.00    +0.000 A 
ATOM      8  C   UNL     1       1.796   7.770  19.310  0.00  0.00    +0.000 A 
ATOM      9  C   UNL     1       2.343   8.530  18.282  0.00  0.00    +0.000 A 
ATOM     10  C   UNL     1       3.360   8.006  17.498  0.00  0.00    +0.000 A 
ATOM     11  C   UNL     1       3.906   6.744  17.785  0.00  0.00    +0.000 A 
ATOM     12  C   UNL     1       3.401   5.954  18.854  0.00  0.00    +0.000 A 
ATOM     13  C   UNL     1       3.816   4.664  19.406  0.00  0.00    +0.000 A 
ENDROOT
BRANCH   1  14
ATOM     14  N   UNL     1       6.109   4.154  18.521  0.00  0.00    +0.000 N 
ATOM     15  H   UNL     1       6.967   3.876  18.971  0.00  0.00    +0.000 HD
BRANCH  14  21
ATOM     16  C   UNL     1       7.019   5.338  16.547  0.00  0.00    +0.000 A 
ATOM     17  C   UNL     1       6.986   5.595  15.164  0.00  0.00    +0.000 A 
ATOM     18  C   UNL     1       6.165   4.833  14.327  0.00  0.00    +0.000 A 
ATOM     19  C   UNL     1       5.372   3.830  14.867  0.00  0.00    +0.000 A 
ATOM     20  C   UNL     1       5.376   3.592  16.251  0.00  0.00    +0.000 A 
ATOM     21  C   UNL     1       6.195   4.343  17.114  0.00  0.00    +0.000 A 
BRANCH  16  23
ATOM     22  C   UNL     1       7.564   7.409  17.542  0.00  0.00    +0.000 C 
ATOM     23  O   UNL     1       7.843   6.027  17.405  0.00  0.00    +0.000 OA
ENDBRANCH  16  23
ENDBRANCH  14  21
ENDBRANCH   1  14
TORSDOF 3
ENDMDL
MODEL 3
REMARK VINA RESULT:      -7.8      2.749      6.801
REMARK  Name = 
REMARK  4 active torsions:
REMARK  status: ('A' for Active; 'I' for Inactive)
REMARK    1  A    between atoms: C_1  and  O_2
REMARK    2  A    between atoms: O_2  and  C_3
REMARK    3  A    between atoms: C_8  and  N_9
REMARK    4  A    between atoms: N_9  and  C_10
REMARK                            x       y       z     vdW  Elec       q    Type
REMARK                         _______ _______ _______ _____ _____    ______ ____
ROOT
ATOM      1  C   UNL     1       2.186   7.488  19.663  0.00  0.00    +0.000 A 
ATOM      2  N   UNL     1       2.742   7.339  18.430  0.00  0.00    +0.000 NA
ATOM      3  C   UNL     1       2.597   8.283  17.500  0.00  0.00    +0.000 A 
ATOM      4  N   UNL     1       1.868   9.386  17.597  0.00  0.00    +0.000 NA
ATOM      5  C   UNL     1       1.289   9.511  18.801  0.00  0.00    +0.000 A 
ATOM      6  S   UNL     1       0.204  10.787  19.052  0.00  0.00    +0.000 S 
ATOM      7  C   UNL     1      -0.043  10.347  20.687  0.00  0.00    +0.000 A 
ATOM      8  C   UNL     1      -0.913  10.994  21.588  0.00  0.00    +0.000 A 
ATOM      9  C   UNL     1      -0.900  10.618  22.926  0.00  0.00    +0.000 A 
ATOM     10  C   UNL     1      -0.033   9.625  23.358  0.00  0.00    +0.000 A 
ATOM     11  C   UNL     1       0.776   8.933  22.443  0.00  0.00    +0.000 A 
ATOM     12  C   UNL     1       0.760   9.261  21.059  0.00  0.00    +0.000 A 
ATOM     13  C   UNL     1       1.432   8.673  19.900  0.00  0.00    +0.000 A 
ENDROOT
BRANCH   1  14
ATOM     14  N   UNL     1       2.317   6.426  20.587  0.00  0.00    +0.000 N 
ATOM     15  H   UNL     1       2.080   6.671  21.536  0.00  0.00    +0.000 HD
BRANCH  14  21
ATOM     16  C   UNL     1       3.328   4.313  19.790  0.00  0.00    +0.000 A 
ATOM     17  C   UNL     1       3.178   2.980  19.362  0.00  0.00    +0.000 A 
ATOM     18  C   UNL     1       1.934   2.349  19.456  0.00  0.00    +0.000 A 
ATOM     19  C   UNL     1       0.844   3.044  19.960  0.00  0.00    +0.000 A 
ATOM     20  C   UNL     1       0.982   4.384  20.357  0.00  0.00    +0.000 A 
ATOM     21  C   UNL     1       2.222   5.042  20.275  0.00  0.00    +0.000 A 
BRANCH  16  23
ATOM     22  C   UNL     1       5.429   4.554  18.738  0.00  0.00    +0.000 C 
ATOM     23  O   UNL     1       4.539   4.963  19.762  0.00  0.00    +0.000 OA
ENDBRANCH  16  23
ENDBRANCH  14  21
ENDBRANCH   1  14
TORSDOF 3
ENDMDL
MODEL 4
REMARK VINA RESULT:      -7.6      2.814      5.734
REMARK  Name = 
REMARK  4 active torsions:
REMARK  status: ('A' for Active; 'I' for Inactive)
REMARK    1  A    between atoms: C_1  and  O_2
REMARK    2  A    between atoms: O_2  and  C_3
REMARK    3  A    between atoms: C_8  and  N_9
REMARK    4  A    between atoms: N_9  and  C_10
REMARK                            x       y       z     vdW  Elec       q    Type
REMARK                         _______ _______ _______ _____ _____    ______ ____
ROOT
ATOM      1  C   UNL     1       3.812   3.465  17.809  0.00  0.00    +0.000 A 
ATOM      2  N   UNL     1       3.799   2.104  17.806  0.00  0.00    +0.000 NA
ATOM      3  C   UNL     1       2.951   1.431  18.584  0.00  0.00    +0.000 A 
ATOM      4  N   UNL     1       2.118   1.944  19.480  0.00  0.00    +0.000 NA
ATOM      5  C   UNL     1       2.162   3.285  19.509  0.00  0.00    +0.000 A 
ATOM      6  S   UNL     1       1.271   4.102  20.694  0.00  0.00    +0.000 S 
ATOM      7  C   UNL     1       1.749   5.633  20.098  0.00  0.00    +0.000 A 
ATOM      8  C   UNL     1       1.387   6.878  20.650  0.00  0.00    +0.000 A 
ATOM      9  C   UNL     1       1.728   8.042  19.970  0.00  0.00    +0.000 A 
ATOM     10  C   UNL     1       2.409   7.967  18.765  0.00  0.00    +0.000 A 
ATOM     11  C   UNL     1       2.834   6.727  18.259  0.00  0.00    +0.000 A 
ATOM     12  C   UNL     1       2.539   5.517  18.945  0.00  0.00    +0.000 A 
ATOM     13  C   UNL     1       2.907   4.125  18.690  0.00  0.00    +0.000 A 
ENDROOT
BRANCH   1  14
ATOM     14  N   UNL     1       4.776   4.124  17.012  0.00  0.00    +0.000 N 
ATOM     15  H   UNL     1       4.495   4.266  16.054  0.00  0.00    +0.000 HD
BRANCH  14  21
ATOM     16  C   UNL     1       6.465   5.891  16.626  0.00  0.00    +0.000 A 
ATOM     17  C   UNL     1       7.540   6.667  17.098  0.00  0.00    +0.000 A 
ATOM     18  C   UNL     1       7.908   6.611  18.445  0.00  0.00    +0.000 A 
ATOM     19  C   UNL     1       7.219   5.777  19.314  0.00  0.00    +0.000 A 
ATOM     20  C   UNL     1       6.167   4.976  18.841  0.00  0.00    +0.000 A 
ATOM     21  C   UNL     1       5.775   5.015  17.491  0.00  0.00    +0.000 A 
BRANCH  16  23
ATOM     22  C   UNL     1       6.689   5.068  14.424  0.00  0.00    +0.000 C 
ATOM     23  O   UNL     1       6.034   5.946  15.322  0.00  0.00    +0.000 OA
ENDBRANCH  16  23
ENDBRANCH  14  21
ENDBRANCH   1  14
TORSDOF 3
ENDMDL
MODEL 5
REMARK VINA RESULT:      -7.2      2.897      5.604
REMARK  Name = 
REMARK  4 active torsions:
REMARK  status: ('A' for Active; 'I' for Inactive)
REMARK    1  A    between atoms: C_1  and  O_2
REMARK    2  A    between atoms: O_2  and  C_3
REMARK    3  A    between atoms: C_8  and  N_9
REMARK    4  A    between atoms: N_9  and  C_10
REMARK                            x       y       z     vdW  Elec       q    Type
REMARK                         _______ _______ _______ _____ _____    ______ ____
ROOT
ATOM      1  C   UNL     1       4.111   3.496  19.596  0.00  0.00    +0.000 A 
ATOM      2  N   UNL     1       3.899   2.469  20.464  0.00  0.00    +0.000 NA
ATOM      3  C   UNL     1       2.904   2.523  21.350  0.00  0.00    +0.000 A 
ATOM      4  N   UNL     1       2.088   3.546  21.566  0.00  0.00    +0.000 NA
ATOM      5  C   UNL     1       2.326   4.572  20.735  0.00  0.00    +0.000 A 
ATOM      6  S   UNL     1       1.475   6.017  20.965  0.00  0.00    +0.000 S 
ATOM      7  C   UNL     1       2.217   6.752  19.609  0.00  0.00    +0.000 A 
ATOM      8  C   UNL     1       1.999   8.074  19.170  0.00  0.00    +0.000 A 
ATOM      9  C   UNL     1       2.559   8.486  17.966  0.00  0.00    +0.000 A 
ATOM     10  C   UNL     1       3.312   7.598  17.213  0.00  0.00    +0.000 A 
ATOM     11  C   UNL     1       3.589   6.308  17.693  0.00  0.00    +0.000 A 
ATOM     12  C   UNL     1       3.067   5.863  18.939  0.00  0.00    +0.000 A 
ATOM     13  C   UNL     1       3.247   4.625  19.696  0.00  0.00    +0.000 A 
ENDROOT
BRANCH   1  14
ATOM     14  N   UNL     1       5.220   3.413  18.724  0.00  0.00    +0.000 N 
ATOM     15  H   UNL     1       5.198   2.621  18.100  0.00  0.00    +0.000 HD
BRANCH  14  21
ATOM     16  C   UNL     1       6.246   4.757  16.916  0.00  0.00    +0.000 A 
ATOM     17  C   UNL     1       7.140   5.765  16.511  0.00  0.00    +0.000 A 
ATOM     18  C   UNL     1       7.774   6.566  17.465  0.00  0.00    +0.000 A 
ATOM     19  C   UNL     1       7.530   6.355  18.815  0.00  0.00    +0.000 A 
ATOM     20  C   UNL     1       6.665   5.328  19.225  0.00  0.00    +0.000 A 
ATOM     21  C   UNL     1       6.012   4.509  18.286  0.00  0.00    +0.000 A 
BRANCH  16  23
ATOM     22  C   UNL     1       6.044   4.009  14.685  0.00  0.00    +0.000 C 
ATOM     23  O   UNL     1       5.561   3.974  16.017  0.00  0.00    +0.000 OA
ENDBRANCH  16  23
ENDBRANCH  14  21
ENDBRANCH   1  14
TORSDOF 3
ENDMDL
MODEL 6
REMARK VINA RESULT:      -7.1      1.030      2.002
REMARK  Name = 
REMARK  4 active torsions:
REMARK  status: ('A' for Active; 'I' for Inactive)
REMARK    1  A    between atoms: C_1  and  O_2
REMARK    2  A    between atoms: O_2  and  C_3
REMARK    3  A    between atoms: C_8  and  N_9
REMARK    4  A    between atoms: N_9  and  C_10
REMARK                            x       y       z     vdW  Elec       q    Type
REMARK                         _______ _______ _______ _____ _____    ______ ____
ROOT
ATOM      1  C   UNL     1       2.243   5.943  19.955  0.00  0.00    +0.000 A 
ATOM      2  N   UNL     1       1.316   5.315  20.729  0.00  0.00    +0.000 NA
ATOM      3  C   UNL     1       1.031   4.026  20.537  0.00  0.00    +0.000 A 
ATOM      4  N   UNL     1       1.503   3.244  19.577  0.00  0.00    +0.000 NA
ATOM      5  C   UNL     1       2.387   3.877  18.791  0.00  0.00    +0.000 A 
ATOM      6  S   UNL     1       2.982   3.073  17.425  0.00  0.00    +0.000 S 
ATOM      7  C   UNL     1       4.001   4.384  17.010  0.00  0.00    +0.000 A 
ATOM      8  C   UNL     1       4.841   4.445  15.880  0.00  0.00    +0.000 A 
ATOM      9  C   UNL     1       5.722   5.512  15.751  0.00  0.00    +0.000 A 
ATOM     10  C   UNL     1       5.771   6.492  16.730  0.00  0.00    +0.000 A 
ATOM     11  C   UNL     1       4.878   6.467  17.814  0.00  0.00    +0.000 A 
ATOM     12  C   UNL     1       3.934   5.413  17.959  0.00  0.00    +0.000 A 
ATOM     13  C   UNL     1       2.865   5.175  18.928  0.00  0.00    +0.000 A 
ENDROOT
BRANCH   1  14
ATOM     14  N   UNL     1       2.456   7.325  20.160  0.00  0.00    +0.000 N 
ATOM     15  H   UNL     1       3.231   7.706  19.639  0.00  0.00    +0.000 HD
BRANCH  14  21
ATOM     16  C   UNL     1       0.919   9.192  19.636  0.00  0.00    +0.000 A 
ATOM     17  C   UNL     1       0.040  10.201  20.073  0.00  0.00    +0.000 A 
ATOM     18  C   UNL     1      -0.338  10.268  21.418  0.00  0.00    +0.000 A 
ATOM     19  C   UNL     1       0.168   9.345  22.323  0.00  0.00    +0.000 A 
ATOM     20  C   UNL     1       1.071   8.359  21.897  0.00  0.00    +0.000 A 
ATOM     21  C   UNL     1       1.465   8.267  20.550  0.00  0.00    +0.000 A 
BRANCH  16  23
ATOM     22  C   UNL     1       2.098  10.090  17.797  0.00  0.00    +0.000 C 
ATOM     23  O   UNL     1       1.283   9.054  18.317  0.00  0.00    +0.000 OA
ENDBRANCH  16  23
ENDBRANCH  14  21
ENDBRANCH   1  14
TORSDOF 3
ENDMDL
MODEL 7
REMARK VINA RESULT:      -7.0      2.794      6.261
REMARK  Name = 
REMARK  4 active torsions:
REMARK  status: ('A' for Active; 'I' for Inactive)
REMARK    1  A    between atoms: C_1  and  O_2
REMARK    2  A    between atoms: O_2  and  C_3
REMARK    3  A    between atoms: C_8  and  N_9
REMARK    4  A    between atoms: N_9  and  C_10
REMARK                            x       y       z     vdW  Elec       q    Type
REMARK                         _______ _______ _______ _____ _____    ______ ____
ROOT
ATOM      1  C   UNL     1       3.957   4.510  17.483  0.00  0.00    +0.000 A 
ATOM      2  N   UNL     1       4.201   3.171  17.437  0.00  0.00    +0.000 NA
ATOM      3  C   UNL     1       3.644   2.348  18.325  0.00  0.00    +0.000 A 
ATOM      4  N   UNL     1       2.897   2.691  19.366  0.00  0.00    +0.000 NA
ATOM      5  C   UNL     1       2.690   4.015  19.431  0.00  0.00    +0.000 A 
ATOM      6  S   UNL     1       1.879   4.645  20.777  0.00  0.00    +0.000 S 
ATOM      7  C   UNL     1       1.948   6.240  20.160  0.00  0.00    +0.000 A 
ATOM      8  C   UNL     1       1.457   7.392  20.807  0.00  0.00    +0.000 A 
ATOM      9  C   UNL     1       1.450   8.600  20.119  0.00  0.00    +0.000 A 
ATOM     10  C   UNL     1       1.913   8.657  18.813  0.00  0.00    +0.000 A 
ATOM     11  C   UNL     1       2.471   7.523  18.201  0.00  0.00    +0.000 A 
ATOM     12  C   UNL     1       2.534   6.279  18.887  0.00  0.00    +0.000 A 
ATOM     13  C   UNL     1       3.110   4.984  18.526  0.00  0.00    +0.000 A 
ENDROOT
BRANCH   1  14
ATOM     14  N   UNL     1       4.626   5.342  16.557  0.00  0.00    +0.000 N 
ATOM     15  H   UNL     1       4.836   6.265  16.906  0.00  0.00    +0.000 HD
BRANCH  14  21
ATOM     16  C   UNL     1       6.846   5.096  15.492  0.00  0.00    +0.000 A 
ATOM     17  C   UNL     1       7.622   4.767  14.365  0.00  0.00    +0.000 A 
ATOM     18  C   UNL     1       7.020   4.194  13.241  0.00  0.00    +0.000 A 
ATOM     19  C   UNL     1       5.652   3.962  13.234  0.00  0.00    +0.000 A 
ATOM     20  C   UNL     1       4.869   4.320  14.343  0.00  0.00    +0.000 A 
ATOM     21  C   UNL     1       5.449   4.896  15.488  0.00  0.00    +0.000 A 
BRANCH  16  23
ATOM     22  C   UNL     1       7.697   4.678  17.655  0.00  0.00    +0.000 C 
ATOM     23  O   UNL     1       7.397   5.618  16.638  0.00  0.00    +0.000 OA
ENDBRANCH  16  23
ENDBRANCH  14  21
ENDBRANCH   1  14
TORSDOF 3
ENDMDL
MODEL 8
REMARK VINA RESULT:      -6.8      2.806      6.750
REMARK  Name = 
REMARK  4 active torsions:
REMARK  status: ('A' for Active; 'I' for Inactive)
REMARK    1  A    between atoms: C_1  and  O_2
REMARK    2  A    between atoms: O_2  and  C_3
REMARK    3  A    between atoms: C_8  and  N_9
REMARK    4  A    between atoms: N_9  and  C_10
REMARK                            x       y       z     vdW  Elec       q    Type
REMARK                         _______ _______ _______ _____ _____    ______ ____
ROOT
ATOM      1  C   UNL     1       2.164   7.629  19.474  0.00  0.00    +0.000 A 
ATOM      2  N   UNL     1       2.678   7.584  18.215  0.00  0.00    +0.000 NA
ATOM      3  C   UNL     1       2.502   8.602  17.372  0.00  0.00    +0.000 A 
ATOM      4  N   UNL     1       1.776   9.691  17.584  0.00  0.00    +0.000 NA
ATOM      5  C   UNL     1       1.238   9.714  18.813  0.00  0.00    +0.000 A 
ATOM      6  S   UNL     1       0.162  10.961  19.205  0.00  0.00    +0.000 S 
ATOM      7  C   UNL     1      -0.031  10.387  20.805  0.00  0.00    +0.000 A 
ATOM      8  C   UNL     1      -0.871  10.954  21.785  0.00  0.00    +0.000 A 
ATOM      9  C   UNL     1      -0.813  10.468  23.086  0.00  0.00    +0.000 A 
ATOM     10  C   UNL     1       0.068   9.446  23.405  0.00  0.00    +0.000 A 
ATOM     11  C   UNL     1       0.846   8.834  22.409  0.00  0.00    +0.000 A 
ATOM     12  C   UNL     1       0.784   9.276  21.059  0.00  0.00    +0.000 A 
ATOM     13  C   UNL     1       1.417   8.788  19.834  0.00  0.00    +0.000 A 
ENDROOT
BRANCH   1  14
ATOM     14  N   UNL     1       2.325   6.494  20.302  0.00  0.00    +0.000 N 
ATOM     15  H   UNL     1       1.574   6.352  20.960  0.00  0.00    +0.000 HD
BRANCH  14  21
ATOM     16  C   UNL     1       2.643   4.040  20.345  0.00  0.00    +0.000 A 
ATOM     17  C   UNL     1       3.466   2.919  20.130  0.00  0.00    +0.000 A 
ATOM     18  C   UNL     1       4.707   3.069  19.503  0.00  0.00    +0.000 A 
ATOM     19  C   UNL     1       5.131   4.329  19.106  0.00  0.00    +0.000 A 
ATOM     20  C   UNL     1       4.329   5.454  19.349  0.00  0.00    +0.000 A 
ATOM     21  C   UNL     1       3.075   5.332  19.975  0.00  0.00    +0.000 A 
BRANCH  16  23
ATOM     22  C   UNL     1       1.166   2.772  21.682  0.00  0.00    +0.000 C 
ATOM     23  O   UNL     1       1.396   3.940  20.914  0.00  0.00    +0.000 OA
ENDBRANCH  16  23
ENDBRANCH  14  21
ENDBRANCH   1  14
TORSDOF 3
ENDMDL
MODEL 9
REMARK VINA RESULT:      -6.7      2.888      5.936
REMARK  Name = 
REMARK  4 active torsions:
REMARK  status: ('A' for Active; 'I' for Inactive)
REMARK    1  A    between atoms: C_1  and  O_2
REMARK    2  A    between atoms: O_2  and  C_3
REMARK    3  A    between atoms: C_8  and  N_9
REMARK    4  A    between atoms: N_9  and  C_10
REMARK                            x       y       z     vdW  Elec       q    Type
REMARK                         _______ _______ _______ _____ _____    ______ ____
ROOT
ATOM      1  C   UNL     1       3.312   3.777  17.552  0.00  0.00    +0.000 A 
ATOM      2  N   UNL     1       3.421   2.421  17.587  0.00  0.00    +0.000 NA
ATOM      3  C   UNL     1       2.930   1.726  18.614  0.00  0.00    +0.000 A 
ATOM      4  N   UNL     1       2.385   2.220  19.717  0.00  0.00    +0.000 NA
ATOM      5  C   UNL     1       2.316   3.560  19.697  0.00  0.00    +0.000 A 
ATOM      6  S   UNL     1       1.781   4.366  21.086  0.00  0.00    +0.000 S 
ATOM      7  C   UNL     1       1.904   5.897  20.329  0.00  0.00    +0.000 A 
ATOM      8  C   UNL     1       1.627   7.138  20.938  0.00  0.00    +0.000 A 
ATOM      9  C   UNL     1       1.627   8.287  20.156  0.00  0.00    +0.000 A 
ATOM     10  C   UNL     1       1.890   8.201  18.798  0.00  0.00    +0.000 A 
ATOM     11  C   UNL     1       2.241   6.974  18.213  0.00  0.00    +0.000 A 
ATOM     12  C   UNL     1       2.290   5.782  18.987  0.00  0.00    +0.000 A 
ATOM     13  C   UNL     1       2.682   4.411  18.661  0.00  0.00    +0.000 A 
ENDROOT
BRANCH   1  14
ATOM     14  N   UNL     1       3.908   4.466  16.470  0.00  0.00    +0.000 N 
ATOM     15  H   UNL     1       3.255   4.777  15.767  0.00  0.00    +0.000 HD
BRANCH  14  21
ATOM     16  C   UNL     1       6.302   4.707  15.891  0.00  0.00    +0.000 A 
ATOM     17  C   UNL     1       7.534   5.365  16.068  0.00  0.00    +0.000 A 
ATOM     18  C   UNL     1       7.603   6.530  16.837  0.00  0.00    +0.000 A 
ATOM     19  C   UNL     1       6.456   7.029  17.438  0.00  0.00    +0.000 A 
ATOM     20  C   UNL     1       5.232   6.357  17.293  0.00  0.00    +0.000 A 
ATOM     21  C   UNL     1       5.134   5.185  16.522  0.00  0.00    +0.000 A 
BRANCH  16  23
ATOM     22  C   UNL     1       6.191   3.813  13.708  0.00  0.00    +0.000 C 
ATOM     23  O   UNL     1       6.172   3.586  15.106  0.00  0.00    +0.000 OA
ENDBRANCH  16  23
ENDBRANCH  14  21
ENDBRANCH   1  14
TORSDOF 3
ENDMDL
