MODEL 1
REMARK VINA RESULT:      -7.5      0.000      0.000
REMARK  Name = 
REMARK  5 active torsions:
REMARK  status: ('A' for Active; 'I' for Inactive)
REMARK    1  A    between atoms: C_1  and  C_2
REMARK    2  A    between atoms: C_3  and  C_4
REMARK    3  A    between atoms: C_8  and  N_9
REMARK    4  A    between atoms: C_11  and  N_12
REMARK    5  A    between atoms: C_13  and  C_15
REMARK                            x       y       z     vdW  Elec       q    Type
REMARK                         _______ _______ _______ _____ _____    ______ ____
ROOT
ATOM      1  C   UNL     1       1.696   8.981  18.454  0.00  0.00    +0.000 C 
ATOM      2  O   UNL     1       2.025   9.356  17.331  0.00  0.00    +0.000 OA
ATOM      3  N   UNL     1       0.798   9.707  19.224  0.00  0.00    +0.000 N 
ATOM      4  C   UNL     1       0.064  10.881  18.764  0.00  0.00    +0.000 C 
ATOM      5  C   UNL     1       0.563  11.652  19.999  0.00  0.00    +0.000 C 
ATOM      6  C   UNL     1       1.124  10.311  20.527  0.00  0.00    +0.000 C 
ENDROOT
BRANCH   1   9
ATOM      7  C   UNL     1       4.005   7.029  17.385  0.00  0.00    +0.000 C 
ATOM      8  C   UNL     1       3.093   6.809  18.558  0.00  0.00    +0.000 A 
ATOM      9  C   UNL     1       2.140   7.706  19.028  0.00  0.00    +0.000 A 
ATOM     10  S   UNL     1       1.324   7.089  20.403  0.00  0.00    +0.000 S 
ATOM     11  C   UNL     1       2.155   5.600  20.352  0.00  0.00    +0.000 A 
ATOM     12  C   UNL     1       1.946   4.503  21.214  0.00  0.00    +0.000 A 
ATOM     13  C   UNL     1       2.700   3.346  21.025  0.00  0.00    +0.000 A 
ATOM     14  C   UNL     1       3.647   3.291  20.014  0.00  0.00    +0.000 A 
ATOM     15 CL   UNL     1       4.563   1.852  19.788  0.00  0.00    +0.000 Cl
ATOM     16  C   UNL     1       3.859   4.384  19.168  0.00  0.00    +0.000 A 
ATOM     17  C   UNL     1       3.093   5.572  19.324  0.00  0.00    +0.000 A 
ENDBRANCH   1   9
BRANCH   5  18
ATOM     18  N   UNL     1       1.695  12.559  19.700  0.00  0.00    +0.000 NA
ATOM     19  C   UNL     1       1.349  13.664  18.764  0.00  0.00    +0.000 C 
ATOM     20  C   UNL     1       2.143  14.633  19.657  0.00  0.00    +0.000 C 
ATOM     21  C   UNL     1       1.846  13.601  20.770  0.00  0.00    +0.000 C 
BRANCH  20  22
ATOM     22  N   UNL     1       3.571  14.780  19.296  0.00  0.00    +0.000 N 
ATOM     23  C   UNL     1       4.102  16.009  18.972  0.00  0.00    +0.000 C 
ATOM     24  O   UNL     1       3.450  17.046  18.977  0.00  0.00    +0.000 OA
ATOM     25  H   UNL     1       4.204  14.010  19.495  0.00  0.00    +0.000 HD
BRANCH  23  26
ATOM     26  C   UNL     1       5.551  16.028  18.644  0.00  0.00    +0.000 A 
ATOM     27  C   UNL     1       6.355  17.140  18.926  0.00  0.00    +0.000 A 
ATOM     28  C   UNL     1       7.710  17.120  18.595  0.00  0.00    +0.000 A 
ATOM     29  C   UNL     1       8.265  15.991  17.992  0.00  0.00    +0.000 A 
ATOM     30  C   UNL     1       7.470  14.875  17.727  0.00  0.00    +0.000 A 
ATOM     31  C   UNL     1       6.116  14.890  18.060  0.00  0.00    +0.000 A 
ENDBRANCH  23  26
ENDBRANCH  20  22
ENDBRANCH   5  18
TORSDOF 4
ENDMDL
MODEL 2
REMARK VINA RESULT:      -7.0      5.292      7.021
REMARK  Name = 
REMARK  5 active torsions:
REMARK  status: ('A' for Active; 'I' for Inactive)
REMARK    1  A    between atoms: C_1  and  C_2
REMARK    2  A    between atoms: C_3  and  C_4
REMARK    3  A    between atoms: C_8  and  N_9
REMARK    4  A    between atoms: C_11  and  N_12
REMARK    5  A    between atoms: C_13  and  C_15
REMARK                            x       y       z     vdW  Elec       q    Type
REMARK                         _______ _______ _______ _____ _____    ______ ____
ROOT
ATOM      1  C   UNL     1       1.946  14.157  18.875  0.00  0.00    +0.000 C 
ATOM      2  O   UNL     1       2.454  13.596  17.906  0.00  0.00    +0.000 OA
ATOM      3  N   UNL     1       2.204  15.492  19.154  0.00  0.00    +0.000 N 
ATOM      4  C   UNL     1       2.966  16.391  18.294  0.00  0.00    +0.000 C 
ATOM      5  C   UNL     1       3.844  16.767  19.501  0.00  0.00    +0.000 C 
ATOM      6  C   UNL     1       2.856  15.971  20.384  0.00  0.00    +0.000 C 
ENDROOT
BRANCH   1   9
ATOM      7  C   UNL     1      -0.879  15.294  19.879  0.00  0.00    +0.000 C 
ATOM      8  C   UNL     1      -0.236  13.989  20.250  0.00  0.00    +0.000 A 
ATOM      9  C   UNL     1       0.966  13.502  19.748  0.00  0.00    +0.000 A 
ATOM     10  S   UNL     1       1.342  11.964  20.404  0.00  0.00    +0.000 S 
ATOM     11  C   UNL     1      -0.031  11.951  21.418  0.00  0.00    +0.000 A 
ATOM     12  C   UNL     1      -0.367  10.943  22.346  0.00  0.00    +0.000 A 
ATOM     13  C   UNL     1      -1.520  11.095  23.115  0.00  0.00    +0.000 A 
ATOM     14  C   UNL     1      -2.323  12.214  22.951  0.00  0.00    +0.000 A 
ATOM     15 CL   UNL     1      -3.737  12.391  23.915  0.00  0.00    +0.000 Cl
ATOM     16  C   UNL     1      -1.992  13.206  22.023  0.00  0.00    +0.000 A 
ATOM     17  C   UNL     1      -0.813  13.088  21.236  0.00  0.00    +0.000 A 
ENDBRANCH   1   9
BRANCH   5  18
ATOM     18  N   UNL     1       5.153  16.074  19.506  0.00  0.00    +0.000 NA
ATOM     19  C   UNL     1       6.196  16.753  18.689  0.00  0.00    +0.000 C 
ATOM     20  C   UNL     1       7.210  16.495  19.817  0.00  0.00    +0.000 C 
ATOM     21  C   UNL     1       5.955  16.447  20.719  0.00  0.00    +0.000 C 
BRANCH  20  22
ATOM     22  N   UNL     1       7.955  15.222  19.702  0.00  0.00    +0.000 N 
ATOM     23  C   UNL     1       9.186  15.169  19.086  0.00  0.00    +0.000 C 
ATOM     24  O   UNL     1       9.746  16.152  18.617  0.00  0.00    +0.000 OA
ATOM     25  H   UNL     1       7.655  14.431  20.264  0.00  0.00    +0.000 HD
BRANCH  23  26
ATOM     26  C   UNL     1       9.840  13.836  19.048  0.00  0.00    +0.000 A 
ATOM     27  C   UNL     1      10.049  13.152  17.843  0.00  0.00    +0.000 A 
ATOM     28  C   UNL     1      10.662  11.898  17.852  0.00  0.00    +0.000 A 
ATOM     29  C   UNL     1      11.072  11.330  19.059  0.00  0.00    +0.000 A 
ATOM     30  C   UNL     1      10.882  12.017  20.258  0.00  0.00    +0.000 A 
ATOM     31  C   UNL     1      10.273  13.273  20.253  0.00  0.00    +0.000 A 
ENDBRANCH  23  26
ENDBRANCH  20  22
ENDBRANCH   5  18
TORSDOF 4
ENDMDL
MODEL 3
REMARK VINA RESULT:      -7.0      4.946      7.046
REMARK  Name = 
REMARK  5 active torsions:
REMARK  status: ('A' for Active; 'I' for Inactive)
REMARK    1  A    between atoms: C_1  and  C_2
REMARK    2  A    between atoms: C_3  and  C_4
REMARK    3  A    between atoms: C_8  and  N_9
REMARK    4  A    between atoms: C_11  and  N_12
REMARK    5  A    between atoms: C_13  and  C_15
REMARK                            x       y       z     vdW  Elec       q    Type
REMARK                         _______ _______ _______ _____ _____    ______ ____
ROOT
ATOM      1  C   UNL     1       2.767  14.839  19.078  0.00  0.00    +0.000 C 
ATOM      2  O   UNL     1       3.476  15.316  18.194  0.00  0.00    +0.000 OA
ATOM      3  N   UNL     1       2.905  15.229  20.403  0.00  0.00    +0.000 N 
ATOM      4  C   UNL     1       3.777  16.302  20.870  0.00  0.00    +0.000 C 
ATOM      5  C   UNL     1       4.389  15.331  21.894  0.00  0.00    +0.000 C 
ATOM      6  C   UNL     1       3.287  14.322  21.497  0.00  0.00    +0.000 C 
ENDROOT
BRANCH   1   9
ATOM      7  C   UNL     1      -0.362  15.492  18.812  0.00  0.00    +0.000 C 
ATOM      8  C   UNL     1       0.301  14.147  18.738  0.00  0.00    +0.000 A 
ATOM      9  C   UNL     1       1.669  13.908  18.800  0.00  0.00    +0.000 A 
ATOM     10  S   UNL     1       2.020  12.237  18.653  0.00  0.00    +0.000 S 
ATOM     11  C   UNL     1       0.373  11.794  18.587  0.00  0.00    +0.000 A 
ATOM     12  C   UNL     1      -0.130  10.479  18.511  0.00  0.00    +0.000 A 
ATOM     13  C   UNL     1      -1.511  10.288  18.484  0.00  0.00    +0.000 A 
ATOM     14  C   UNL     1      -2.364  11.381  18.515  0.00  0.00    +0.000 A 
ATOM     15 CL   UNL     1      -4.067  11.127  18.489  0.00  0.00    +0.000 Cl
ATOM     16  C   UNL     1      -1.861  12.684  18.579  0.00  0.00    +0.000 A 
ATOM     17  C   UNL     1      -0.458  12.910  18.627  0.00  0.00    +0.000 A 
ENDBRANCH   1   9
BRANCH   5  18
ATOM     18  N   UNL     1       5.703  14.793  21.472  0.00  0.00    +0.000 NA
ATOM     19  C   UNL     1       6.834  15.740  21.676  0.00  0.00    +0.000 C 
ATOM     20  C   UNL     1       7.679  14.573  22.214  0.00  0.00    +0.000 C 
ATOM     21  C   UNL     1       6.308  13.943  22.551  0.00  0.00    +0.000 C 
BRANCH  20  22
ATOM     22  N   UNL     1       8.470  13.857  21.189  0.00  0.00    +0.000 N 
ATOM     23  C   UNL     1       9.814  14.106  21.023  0.00  0.00    +0.000 C 
ATOM     24  O   UNL     1      10.440  14.907  21.706  0.00  0.00    +0.000 OA
ATOM     25  H   UNL     1       8.069  13.030  20.756  0.00  0.00    +0.000 HD
BRANCH  23  26
ATOM     26  C   UNL     1      10.501  13.311  19.971  0.00  0.00    +0.000 A 
ATOM     27  C   UNL     1      11.364  12.255  20.293  0.00  0.00    +0.000 A 
ATOM     28  C   UNL     1      11.994  11.537  19.276  0.00  0.00    +0.000 A 
ATOM     29  C   UNL     1      11.758  11.866  17.941  0.00  0.00    +0.000 A 
ATOM     30  C   UNL     1      10.884  12.904  17.618  0.00  0.00    +0.000 A 
ATOM     31  C   UNL     1      10.249  13.622  18.632  0.00  0.00    +0.000 A 
ENDBRANCH  23  26
ENDBRANCH  20  22
ENDBRANCH   5  18
TORSDOF 4
ENDMDL
MODEL 4
REMARK VINA RESULT:      -6.9      4.448      7.904
REMARK  Name = 
REMARK  5 active torsions:
REMARK  status: ('A' for Active; 'I' for Inactive)
REMARK    1  A    between atoms: C_1  and  C_2
REMARK    2  A    between atoms: C_3  and  C_4
REMARK    3  A    between atoms: C_8  and  N_9
REMARK    4  A    between atoms: C_11  and  N_12
REMARK    5  A    between atoms: C_13  and  C_15
REMARK                            x       y       z     vdW  Elec       q    Type
REMARK                         _______ _______ _______ _____ _____    ______ ____
ROOT
ATOM      1  C   UNL     1       1.534   8.322  19.938  0.00  0.00    +0.000 C 
ATOM      2  O   UNL     1       0.964   8.312  21.028  0.00  0.00    +0.000 OA
ATOM      3  N   UNL     1       1.813   9.512  19.280  0.00  0.00    +0.000 N 
ATOM      4  C   UNL     1       1.595  10.843  19.836  0.00  0.00    +0.000 C 
ATOM      5  C   UNL     1       0.807  11.221  18.569  0.00  0.00    +0.000 C 
ATOM      6  C   UNL     1       1.268   9.876  17.962  0.00  0.00    +0.000 C 
ENDROOT
BRANCH   1   9
ATOM      7  C   UNL     1       1.047   5.274  20.809  0.00  0.00    +0.000 C 
ATOM      8  C   UNL     1       1.904   5.777  19.683  0.00  0.00    +0.000 A 
ATOM      9  C   UNL     1       2.046   7.105  19.299  0.00  0.00    +0.000 A 
ATOM     10  S   UNL     1       3.096   7.259  17.953  0.00  0.00    +0.000 S 
ATOM     11  C   UNL     1       3.443   5.589  17.907  0.00  0.00    +0.000 A 
ATOM     12  C   UNL     1       4.337   4.951  17.022  0.00  0.00    +0.000 A 
ATOM     13  C   UNL     1       4.522   3.574  17.130  0.00  0.00    +0.000 A 
ATOM     14  C   UNL     1       3.822   2.851  18.083  0.00  0.00    +0.000 A 
ATOM     15 CL   UNL     1       4.068   1.152  18.209  0.00  0.00    +0.000 Cl
ATOM     16  C   UNL     1       2.928   3.485  18.952  0.00  0.00    +0.000 A 
ATOM     17  C   UNL     1       2.731   4.891  18.879  0.00  0.00    +0.000 A 
ENDBRANCH   1   9
BRANCH   5  18
ATOM     18  N   UNL     1      -0.661  11.178  18.763  0.00  0.00    +0.000 NA
ATOM     19  C   UNL     1      -1.363  12.409  18.306  0.00  0.00    +0.000 C 
ATOM     20  C   UNL     1      -2.451  11.522  17.676  0.00  0.00    +0.000 C 
ATOM     21  C   UNL     1      -1.332  10.455  17.633  0.00  0.00    +0.000 C 
BRANCH  20  22
ATOM     22  N   UNL     1      -3.589  11.209  18.568  0.00  0.00    +0.000 N 
ATOM     23  C   UNL     1      -4.888  11.261  18.112  0.00  0.00    +0.000 C 
ATOM     24  O   UNL     1      -5.185  11.547  16.959  0.00  0.00    +0.000 OA
ATOM     25  H   UNL     1      -3.400  10.750  19.454  0.00  0.00    +0.000 HD
BRANCH  23  26
ATOM     26  C   UNL     1      -5.941  10.909  19.099  0.00  0.00    +0.000 A 
ATOM     27  C   UNL     1      -6.555   9.650  19.104  0.00  0.00    +0.000 A 
ATOM     28  C   UNL     1      -7.545   9.362  20.044  0.00  0.00    +0.000 A 
ATOM     29  C   UNL     1      -7.917  10.325  20.983  0.00  0.00    +0.000 A 
ATOM     30  C   UNL     1      -7.294  11.573  20.992  0.00  0.00    +0.000 A 
ATOM     31  C   UNL     1      -6.301  11.863  20.056  0.00  0.00    +0.000 A 
ENDBRANCH  23  26
ENDBRANCH  20  22
ENDBRANCH   5  18
TORSDOF 4
ENDMDL
MODEL 5
REMARK VINA RESULT:      -6.8      5.428      7.197
REMARK  Name = 
REMARK  5 active torsions:
REMARK  status: ('A' for Active; 'I' for Inactive)
REMARK    1  A    between atoms: C_1  and  C_2
REMARK    2  A    between atoms: C_3  and  C_4
REMARK    3  A    between atoms: C_8  and  N_9
REMARK    4  A    between atoms: C_11  and  N_12
REMARK    5  A    between atoms: C_13  and  C_15
REMARK                            x       y       z     vdW  Elec       q    Type
REMARK                         _______ _______ _______ _____ _____    ______ ____
ROOT
ATOM      1  C   UNL     1       1.658  14.925  19.314  0.00  0.00    +0.000 C 
ATOM      2  O   UNL     1       1.953  14.672  18.148  0.00  0.00    +0.000 OA
ATOM      3  N   UNL     1       2.106  16.082  19.937  0.00  0.00    +0.000 N 
ATOM      4  C   UNL     1       2.836  17.157  19.275  0.00  0.00    +0.000 C 
ATOM      5  C   UNL     1       3.915  17.070  20.368  0.00  0.00    +0.000 C 
ATOM      6  C   UNL     1       2.979  16.099  21.123  0.00  0.00    +0.000 C 
ENDROOT
BRANCH   1   9
ATOM      7  C   UNL     1      -1.262  15.677  20.408  0.00  0.00    +0.000 C 
ATOM      8  C   UNL     1      -0.498  14.405  20.641  0.00  0.00    +0.000 A 
ATOM      9  C   UNL     1       0.744  14.091  20.102  0.00  0.00    +0.000 A 
ATOM     10  S   UNL     1       1.263  12.532  20.591  0.00  0.00    +0.000 S 
ATOM     11  C   UNL     1      -0.101  12.280  21.584  0.00  0.00    +0.000 A 
ATOM     12  C   UNL     1      -0.341  11.151  22.394  0.00  0.00    +0.000 A 
ATOM     13  C   UNL     1      -1.503  11.110  23.164  0.00  0.00    +0.000 A 
ATOM     14  C   UNL     1      -2.407  12.160  23.114  0.00  0.00    +0.000 A 
ATOM     15 CL   UNL     1      -3.832  12.098  24.077  0.00  0.00    +0.000 Cl
ATOM     16  C   UNL     1      -2.171  13.273  22.301  0.00  0.00    +0.000 A 
ATOM     17  C   UNL     1      -0.987  13.353  21.519  0.00  0.00    +0.000 A 
ENDBRANCH   1   9
BRANCH   5  18
ATOM     18  N   UNL     1       5.123  16.328  19.935  0.00  0.00    +0.000 NA
ATOM     19  C   UNL     1       5.850  16.970  18.805  0.00  0.00    +0.000 C 
ATOM     20  C   UNL     1       7.176  16.671  19.524  0.00  0.00    +0.000 C 
ATOM     21  C   UNL     1       6.302  16.667  20.799  0.00  0.00    +0.000 C 
BRANCH  20  22
ATOM     22  N   UNL     1       7.791  15.371  19.176  0.00  0.00    +0.000 N 
ATOM     23  C   UNL     1       9.071  15.301  18.671  0.00  0.00    +0.000 C 
ATOM     24  O   UNL     1       9.781  16.283  18.495  0.00  0.00    +0.000 OA
ATOM     25  H   UNL     1       7.349  14.520  19.509  0.00  0.00    +0.000 HD
BRANCH  23  26
ATOM     26  C   UNL     1       9.582  13.937  18.375  0.00  0.00    +0.000 A 
ATOM     27  C   UNL     1       8.930  12.789  18.845  0.00  0.00    +0.000 A 
ATOM     28  C   UNL     1       9.446  11.527  18.550  0.00  0.00    +0.000 A 
ATOM     29  C   UNL     1      10.606  11.408  17.783  0.00  0.00    +0.000 A 
ATOM     30  C   UNL     1      11.246  12.549  17.299  0.00  0.00    +0.000 A 
ATOM     31  C   UNL     1      10.730  13.813  17.588  0.00  0.00    +0.000 A 
ENDBRANCH  23  26
ENDBRANCH  20  22
ENDBRANCH   5  18
TORSDOF 4
ENDMDL
MODEL 6
REMARK VINA RESULT:      -6.8      5.320      7.068
REMARK  Name = 
REMARK  5 active torsions:
REMARK  status: ('A' for Active; 'I' for Inactive)
REMARK    1  A    between atoms: C_1  and  C_2
REMARK    2  A    between atoms: C_3  and  C_4
REMARK    3  A    between atoms: C_8  and  N_9
REMARK    4  A    between atoms: C_11  and  N_12
REMARK    5  A    between atoms: C_13  and  C_15
REMARK                            x       y       z     vdW  Elec       q    Type
REMARK                         _______ _______ _______ _____ _____    ______ ____
ROOT
ATOM      1  C   UNL     1       2.676  15.147  19.656  0.00  0.00    +0.000 C 
ATOM      2  O   UNL     1       3.286  15.503  18.650  0.00  0.00    +0.000 OA
ATOM      3  N   UNL     1       2.986  15.660  20.908  0.00  0.00    +0.000 N 
ATOM      4  C   UNL     1       3.939  16.737  21.155  0.00  0.00    +0.000 C 
ATOM      5  C   UNL     1       4.642  15.848  22.196  0.00  0.00    +0.000 C 
ATOM      6  C   UNL     1       3.471  14.851  22.038  0.00  0.00    +0.000 C 
ENDROOT
BRANCH   1   9
ATOM      7  C   UNL     1       2.445  12.327  18.146  0.00  0.00    +0.000 C 
ATOM      8  C   UNL     1       1.372  13.042  18.916  0.00  0.00    +0.000 A 
ATOM      9  C   UNL     1       1.526  14.238  19.608  0.00  0.00    +0.000 A 
ATOM     10  S   UNL     1       0.068  14.709  20.376  0.00  0.00    +0.000 S 
ATOM     11  C   UNL     1      -0.809  13.389  19.744  0.00  0.00    +0.000 A 
ATOM     12  C   UNL     1      -2.184  13.140  19.931  0.00  0.00    +0.000 A 
ATOM     13  C   UNL     1      -2.754  12.020  19.327  0.00  0.00    +0.000 A 
ATOM     14  C   UNL     1      -1.968  11.164  18.570  0.00  0.00    +0.000 A 
ATOM     15 CL   UNL     1      -2.689   9.791  17.823  0.00  0.00    +0.000 Cl
ATOM     16  C   UNL     1      -0.603  11.408  18.395  0.00  0.00    +0.000 A 
ATOM     17  C   UNL     1       0.003  12.552  18.984  0.00  0.00    +0.000 A 
ENDBRANCH   1   9
BRANCH   5  18
ATOM     18  N   UNL     1       5.879  15.216  21.679  0.00  0.00    +0.000 NA
ATOM     19  C   UNL     1       7.090  16.075  21.804  0.00  0.00    +0.000 C 
ATOM     20  C   UNL     1       7.881  14.844  22.278  0.00  0.00    +0.000 C 
ATOM     21  C   UNL     1       6.494  14.315  22.710  0.00  0.00    +0.000 C 
BRANCH  20  22
ATOM     22  N   UNL     1       8.541  14.078  21.198  0.00  0.00    +0.000 N 
ATOM     23  C   UNL     1       9.889  14.212  20.949  0.00  0.00    +0.000 C 
ATOM     24  O   UNL     1      10.624  14.944  21.600  0.00  0.00    +0.000 OA
ATOM     25  H   UNL     1       8.042  13.297  20.781  0.00  0.00    +0.000 HD
BRANCH  23  26
ATOM     26  C   UNL     1      10.437  13.377  19.848  0.00  0.00    +0.000 A 
ATOM     27  C   UNL     1      10.044  13.564  18.517  0.00  0.00    +0.000 A 
ATOM     28  C   UNL     1      10.577  12.754  17.514  0.00  0.00    +0.000 A 
ATOM     29  C   UNL     1      11.505  11.764  17.837  0.00  0.00    +0.000 A 
ATOM     30  C   UNL     1      11.911  11.587  19.159  0.00  0.00    +0.000 A 
ATOM     31  C   UNL     1      11.384  12.398  20.164  0.00  0.00    +0.000 A 
ENDBRANCH  23  26
ENDBRANCH  20  22
ENDBRANCH   5  18
TORSDOF 4
ENDMDL
MODEL 7
REMARK VINA RESULT:      -6.7      4.260      6.005
REMARK  Name = 
REMARK  5 active torsions:
REMARK  status: ('A' for Active; 'I' for Inactive)
REMARK    1  A    between atoms: C_1  and  C_2
REMARK    2  A    between atoms: C_3  and  C_4
REMARK    3  A    between atoms: C_8  and  N_9
REMARK    4  A    between atoms: C_11  and  N_12
REMARK    5  A    between atoms: C_13  and  C_15
REMARK                            x       y       z     vdW  Elec       q    Type
REMARK                         _______ _______ _______ _____ _____    ______ ____
ROOT
ATOM      1  C   UNL     1       1.023  11.130  19.057  0.00  0.00    +0.000 C 
ATOM      2  O   UNL     1       1.893  11.978  19.245  0.00  0.00    +0.000 OA
ATOM      3  N   UNL     1      -0.254  11.484  18.645  0.00  0.00    +0.000 N 
ATOM      4  C   UNL     1      -0.665  12.833  18.270  0.00  0.00    +0.000 C 
ATOM      5  C   UNL     1      -1.845  12.723  19.252  0.00  0.00    +0.000 C 
ATOM      6  C   UNL     1      -1.476  11.233  19.426  0.00  0.00    +0.000 C 
ENDROOT
BRANCH   1   9
ATOM      7  C   UNL     1       0.445   9.182  21.538  0.00  0.00    +0.000 C 
ATOM      8  C   UNL     1       1.101   8.830  20.233  0.00  0.00    +0.000 A 
ATOM      9  C   UNL     1       1.283   9.690  19.156  0.00  0.00    +0.000 A 
ATOM     10  S   UNL     1       2.051   8.897  17.845  0.00  0.00    +0.000 S 
ATOM     11  C   UNL     1       2.229   7.433  18.704  0.00  0.00    +0.000 A 
ATOM     12  C   UNL     1       2.865   6.267  18.234  0.00  0.00    +0.000 A 
ATOM     13  C   UNL     1       2.942   5.156  19.073  0.00  0.00    +0.000 A 
ATOM     14  C   UNL     1       2.384   5.205  20.342  0.00  0.00    +0.000 A 
ATOM     15 CL   UNL     1       2.495   3.829  21.369  0.00  0.00    +0.000 Cl
ATOM     16  C   UNL     1       1.744   6.360  20.801  0.00  0.00    +0.000 A 
ATOM     17  C   UNL     1       1.666   7.514  19.975  0.00  0.00    +0.000 A 
ENDBRANCH   1   9
BRANCH   5  18
ATOM     18  N   UNL     1      -1.603  13.428  20.532  0.00  0.00    +0.000 NA
ATOM     19  C   UNL     1      -2.639  14.445  20.864  0.00  0.00    +0.000 C 
ATOM     20  C   UNL     1      -2.628  13.943  22.318  0.00  0.00    +0.000 C 
ATOM     21  C   UNL     1      -2.115  12.626  21.693  0.00  0.00    +0.000 C 
BRANCH  20  22
ATOM     22  N   UNL     1      -1.669  14.637  23.206  0.00  0.00    +0.000 N 
ATOM     23  C   UNL     1      -2.100  15.350  24.303  0.00  0.00    +0.000 C 
ATOM     24  O   UNL     1      -3.277  15.443  24.625  0.00  0.00    +0.000 OA
ATOM     25  H   UNL     1      -0.682  14.410  23.127  0.00  0.00    +0.000 HD
BRANCH  23  26
ATOM     26  C   UNL     1      -1.038  15.987  25.125  0.00  0.00    +0.000 A 
ATOM     27  C   UNL     1      -0.982  15.819  26.515  0.00  0.00    +0.000 A 
ATOM     28  C   UNL     1       0.027  16.441  27.251  0.00  0.00    +0.000 A 
ATOM     29  C   UNL     1       0.983  17.223  26.602  0.00  0.00    +0.000 A 
ATOM     30  C   UNL     1       0.940  17.377  25.216  0.00  0.00    +0.000 A 
ATOM     31  C   UNL     1      -0.065  16.753  24.476  0.00  0.00    +0.000 A 
ENDBRANCH  23  26
ENDBRANCH  20  22
ENDBRANCH   5  18
TORSDOF 4
ENDMDL
MODEL 8
REMARK VINA RESULT:      -6.6      4.265      7.360
REMARK  Name = 
REMARK  5 active torsions:
REMARK  status: ('A' for Active; 'I' for Inactive)
REMARK    1  A    between atoms: C_1  and  C_2
REMARK    2  A    between atoms: C_3  and  C_4
REMARK    3  A    between atoms: C_8  and  N_9
REMARK    4  A    between atoms: C_11  and  N_12
REMARK    5  A    between atoms: C_13  and  C_15
REMARK                            x       y       z     vdW  Elec       q    Type
REMARK                         _______ _______ _______ _____ _____    ______ ____
ROOT
ATOM      1  C   UNL     1       1.524   9.125  20.195  0.00  0.00    +0.000 C 
ATOM      2  O   UNL     1       1.524   9.695  21.284  0.00  0.00    +0.000 OA
ATOM      3  N   UNL     1       1.375   9.832  19.010  0.00  0.00    +0.000 N 
ATOM      4  C   UNL     1       1.334  11.286  18.906  0.00  0.00    +0.000 C 
ATOM      5  C   UNL     1       0.024  11.172  18.106  0.00  0.00    +0.000 C 
ATOM      6  C   UNL     1       0.257   9.644  18.070  0.00  0.00    +0.000 C 
ENDROOT
BRANCH   1   9
ATOM      7  C   UNL     1       3.212   7.632  17.913  0.00  0.00    +0.000 C 
ATOM      8  C   UNL     1       2.451   7.004  19.046  0.00  0.00    +0.000 A 
ATOM      9  C   UNL     1       1.777   7.687  20.052  0.00  0.00    +0.000 A 
ATOM     10  S   UNL     1       1.057   6.606  21.169  0.00  0.00    +0.000 S 
ATOM     11  C   UNL     1       1.552   5.222  20.302  0.00  0.00    +0.000 A 
ATOM     12  C   UNL     1       1.250   3.885  20.630  0.00  0.00    +0.000 A 
ATOM     13  C   UNL     1       1.718   2.866  19.802  0.00  0.00    +0.000 A 
ATOM     14  C   UNL     1       2.480   3.174  18.685  0.00  0.00    +0.000 A 
ATOM     15 CL   UNL     1       3.043   1.906  17.667  0.00  0.00    +0.000 Cl
ATOM     16  C   UNL     1       2.787   4.501  18.368  0.00  0.00    +0.000 A 
ATOM     17  C   UNL     1       2.309   5.563  19.184  0.00  0.00    +0.000 A 
ENDBRANCH   1   9
BRANCH   5  18
ATOM     18  N   UNL     1      -1.180  11.452  18.921  0.00  0.00    +0.000 NA
ATOM     19  C   UNL     1      -1.839  12.748  18.596  0.00  0.00    +0.000 C 
ATOM     20  C   UNL     1      -3.204  12.044  18.674  0.00  0.00    +0.000 C 
ATOM     21  C   UNL     1      -2.388  10.771  18.348  0.00  0.00    +0.000 C 
BRANCH  20  22
ATOM     22  N   UNL     1      -3.836  12.063  20.012  0.00  0.00    +0.000 N 
ATOM     23  C   UNL     1      -4.978  12.796  20.250  0.00  0.00    +0.000 C 
ATOM     24  O   UNL     1      -5.548  13.453  19.389  0.00  0.00    +0.000 OA
ATOM     25  H   UNL     1      -3.548  11.369  20.696  0.00  0.00    +0.000 HD
BRANCH  23  26
ATOM     26  C   UNL     1      -5.525  12.721  21.630  0.00  0.00    +0.000 A 
ATOM     27  C   UNL     1      -4.723  12.959  22.754  0.00  0.00    +0.000 A 
ATOM     28  C   UNL     1      -5.274  12.873  24.033  0.00  0.00    +0.000 A 
ATOM     29  C   UNL     1      -6.624  12.557  24.191  0.00  0.00    +0.000 A 
ATOM     30  C   UNL     1      -7.429  12.339  23.073  0.00  0.00    +0.000 A 
ATOM     31  C   UNL     1      -6.882  12.428  21.792  0.00  0.00    +0.000 A 
ENDBRANCH  23  26
ENDBRANCH  20  22
ENDBRANCH   5  18
TORSDOF 4
ENDMDL
MODEL 9
REMARK VINA RESULT:      -6.6      4.863      6.982
REMARK  Name = 
REMARK  5 active torsions:
REMARK  status: ('A' for Active; 'I' for Inactive)
REMARK    1  A    between atoms: C_1  and  C_2
REMARK    2  A    between atoms: C_3  and  C_4
REMARK    3  A    between atoms: C_8  and  N_9
REMARK    4  A    between atoms: C_11  and  N_12
REMARK    5  A    between atoms: C_13  and  C_15
REMARK                            x       y       z     vdW  Elec       q    Type
REMARK                         _______ _______ _______ _____ _____    ______ ____
ROOT
ATOM      1  C   UNL     1       2.799  14.993  19.116  0.00  0.00    +0.000 C 
ATOM      2  O   UNL     1       3.463  15.543  18.240  0.00  0.00    +0.000 OA
ATOM      3  N   UNL     1       2.950  15.329  20.455  0.00  0.00    +0.000 N 
ATOM      4  C   UNL     1       3.780  16.421  20.951  0.00  0.00    +0.000 C 
ATOM      5  C   UNL     1       4.462  15.435  21.917  0.00  0.00    +0.000 C 
ATOM      6  C   UNL     1       3.401  14.393  21.497  0.00  0.00    +0.000 C 
ENDROOT
BRANCH   1   9
ATOM      7  C   UNL     1      -0.362  15.507  18.937  0.00  0.00    +0.000 C 
ATOM      8  C   UNL     1       0.361  14.199  18.793  0.00  0.00    +0.000 A 
ATOM      9  C   UNL     1       1.740  14.022  18.819  0.00  0.00    +0.000 A 
ATOM     10  S   UNL     1       2.166  12.378  18.595  0.00  0.00    +0.000 S 
ATOM     11  C   UNL     1       0.540  11.860  18.541  0.00  0.00    +0.000 A 
ATOM     12  C   UNL     1       0.097  10.528  18.419  0.00  0.00    +0.000 A 
ATOM     13  C   UNL     1      -1.273  10.272  18.409  0.00  0.00    +0.000 A 
ATOM     14  C   UNL     1      -2.176  11.321  18.502  0.00  0.00    +0.000 A 
ATOM     15 CL   UNL     1      -3.865  10.988  18.498  0.00  0.00    +0.000 Cl
ATOM     16  C   UNL     1      -1.733  12.642  18.613  0.00  0.00    +0.000 A 
ATOM     17  C   UNL     1      -0.342  12.933  18.644  0.00  0.00    +0.000 A 
ENDBRANCH   1   9
BRANCH   5  18
ATOM     18  N   UNL     1       5.790  14.982  21.442  0.00  0.00    +0.000 NA
ATOM     19  C   UNL     1       6.595  16.053  20.792  0.00  0.00    +0.000 C 
ATOM     20  C   UNL     1       7.832  15.548  21.553  0.00  0.00    +0.000 C 
ATOM     21  C   UNL     1       6.794  14.996  22.557  0.00  0.00    +0.000 C 
BRANCH  20  22
ATOM     22  N   UNL     1       8.625  14.525  20.837  0.00  0.00    +0.000 N 
ATOM     23  C   UNL     1       9.680  14.879  20.025  0.00  0.00    +0.000 C 
ATOM     24  O   UNL     1      10.039  16.037  19.855  0.00  0.00    +0.000 OA
ATOM     25  H   UNL     1       8.526  13.552  21.113  0.00  0.00    +0.000 HD
BRANCH  23  26
ATOM     26  C   UNL     1      10.408  13.759  19.374  0.00  0.00    +0.000 A 
ATOM     27  C   UNL     1      10.380  13.570  17.986  0.00  0.00    +0.000 A 
ATOM     28  C   UNL     1      11.072  12.502  17.415  0.00  0.00    +0.000 A 
ATOM     29  C   UNL     1      11.796  11.627  18.225  0.00  0.00    +0.000 A 
ATOM     30  C   UNL     1      11.840  11.823  19.606  0.00  0.00    +0.000 A 
ATOM     31  C   UNL     1      11.153  12.892  20.180  0.00  0.00    +0.000 A 
ENDBRANCH  23  26
ENDBRANCH  20  22
ENDBRANCH   5  18
TORSDOF 4
ENDMDL
