MODEL 1
REMARK VINA RESULT:      -7.8      0.000      0.000
REMARK  Name = 
REMARK  5 active torsions:
REMARK  status: ('A' for Active; 'I' for Inactive)
REMARK    1  A    between atoms: C_1  and  C_2
REMARK    2  A    between atoms: C_5  and  C_6
REMARK    3  A    between atoms: C_7  and  C_8
REMARK    4  A    between atoms: C_8  and  N_9
REMARK    5  A    between atoms: C_16  and  C_17
REMARK                            x       y       z     vdW  Elec       q    Type
REMARK                         _______ _______ _______ _____ _____    ______ ____
ROOT
ATOM      1  N   UNL     1       4.014   3.178  16.868  0.00  0.00    +0.000 NA
ATOM      2  C   UNL     1       3.852   2.126  17.872  0.00  0.00    +0.000 C 
ATOM      3  C   UNL     1       2.484   2.001  18.542  0.00  0.00    +0.000 C 
ATOM      4  C   UNL     1       2.297   3.075  19.582  0.00  0.00    +0.000 A 
ATOM      5  N   UNL     1       2.397   2.674  20.866  0.00  0.00    +0.000 NA
ATOM      6  C   UNL     1       2.289   3.627  21.791  0.00  0.00    +0.000 A 
ATOM      7  N   UNL     1       2.075   4.924  21.551  0.00  0.00    +0.000 NA
ATOM      8  C   UNL     1       1.964   5.314  20.255  0.00  0.00    +0.000 A 
ATOM      9  C   UNL     1       2.105   4.403  19.205  0.00  0.00    +0.000 A 
ATOM     10  C   UNL     1       2.118   4.732  17.736  0.00  0.00    +0.000 C 
ATOM     11  C   UNL     1       3.471   4.519  17.044  0.00  0.00    +0.000 C 
ENDROOT
BRANCH   8  12
ATOM     12  C   UNL     1       1.723   6.772  20.124  0.00  0.00    +0.000 A 
ATOM     13  C   UNL     1       2.169   7.473  18.994  0.00  0.00    +0.000 A 
ATOM     14  C   UNL     1       1.908   8.832  18.875  0.00  0.00    +0.000 A 
ATOM     15  N   UNL     1       1.218   9.543  19.789  0.00  0.00    +0.000 NA
ATOM     16  C   UNL     1       0.829   8.876  20.892  0.00  0.00    +0.000 A 
ATOM     17  C   UNL     1       1.091   7.531  21.115  0.00  0.00    +0.000 A 
ENDBRANCH   8  12
BRANCH   1  18
ATOM     18  C   UNL     1       5.354   3.201  16.261  0.00  0.00    +0.000 C 
BRANCH  18  25
ATOM     19  C   UNL     1       6.958   4.851  14.057  0.00  0.00    +0.000 C 
ATOM     20  C   UNL     1       6.911   5.127  15.512  0.00  0.00    +0.000 A 
ATOM     21  N   UNL     1       7.581   6.171  16.003  0.00  0.00    +0.000 NA
ATOM     22  O   UNL     1       7.342   6.166  17.352  0.00  0.00    +0.000 OA
ATOM     23  C   UNL     1       6.535   5.122  17.680  0.00  0.00    +0.000 A 
ATOM     24  C   UNL     1       6.241   5.046  19.127  0.00  0.00    +0.000 C 
ATOM     25  C   UNL     1       6.214   4.405  16.535  0.00  0.00    +0.000 A 
ENDBRANCH  18  25
ENDBRANCH   1  18
TORSDOF 3
ENDMDL
MODEL 2
REMARK VINA RESULT:      -7.5      0.886      1.751
REMARK  Name = 
REMARK  5 active torsions:
REMARK  status: ('A' for Active; 'I' for Inactive)
REMARK    1  A    between atoms: C_1  and  C_2
REMARK    2  A    between atoms: C_5  and  C_6
REMARK    3  A    between atoms: C_7  and  C_8
REMARK    4  A    between atoms: C_8  and  N_9
REMARK    5  A    between atoms: C_16  and  C_17
REMARK                            x       y       z     vdW  Elec       q    Type
REMARK                         _______ _______ _______ _____ _____    ______ ____
ROOT
ATOM      1  N   UNL     1       4.175   2.830  16.969  0.00  0.00    +0.000 NA
ATOM      2  C   UNL     1       3.864   1.851  18.011  0.00  0.00    +0.000 C 
ATOM      3  C   UNL     1       2.442   1.852  18.571  0.00  0.00    +0.000 C 
ATOM      4  C   UNL     1       2.246   2.995  19.532  0.00  0.00    +0.000 A 
ATOM      5  N   UNL     1       2.218   2.665  20.840  0.00  0.00    +0.000 NA
ATOM      6  C   UNL     1       2.101   3.676  21.701  0.00  0.00    +0.000 A 
ATOM      7  N   UNL     1       1.994   4.967  21.374  0.00  0.00    +0.000 NA
ATOM      8  C   UNL     1       2.012   5.286  20.055  0.00  0.00    +0.000 A 
ATOM      9  C   UNL     1       2.175   4.307  19.070  0.00  0.00    +0.000 A 
ATOM     10  C   UNL     1       2.325   4.547  17.591  0.00  0.00    +0.000 C 
ATOM     11  C   UNL     1       3.711   4.211  17.026  0.00  0.00    +0.000 C 
ENDROOT
BRANCH   8  12
ATOM     12  C   UNL     1       1.881   6.746  19.826  0.00  0.00    +0.000 A 
ATOM     13  C   UNL     1       2.341   7.329  18.636  0.00  0.00    +0.000 A 
ATOM     14  C   UNL     1       2.182   8.693  18.427  0.00  0.00    +0.000 A 
ATOM     15  N   UNL     1       1.581   9.518  19.306  0.00  0.00    +0.000 NA
ATOM     16  C   UNL     1       1.179   8.963  20.465  0.00  0.00    +0.000 A 
ATOM     17  C   UNL     1       1.343   7.620  20.777  0.00  0.00    +0.000 A 
ENDBRANCH   8  12
BRANCH   1  18
ATOM     18  C   UNL     1       5.558   2.733  16.473  0.00  0.00    +0.000 C 
BRANCH  18  25
ATOM     19  C   UNL     1       7.366   4.970  17.843  0.00  0.00    +0.000 C 
ATOM     20  C   UNL     1       6.944   4.918  16.423  0.00  0.00    +0.000 A 
ATOM     21  N   UNL     1       7.346   5.872  15.583  0.00  0.00    +0.000 NA
ATOM     22  O   UNL     1       6.809   5.549  14.366  0.00  0.00    +0.000 OA
ATOM     23  C   UNL     1       6.079   4.405  14.465  0.00  0.00    +0.000 A 
ATOM     24  C   UNL     1       5.457   3.998  13.188  0.00  0.00    +0.000 C 
ATOM     25  C   UNL     1       6.124   3.938  15.772  0.00  0.00    +0.000 A 
ENDBRANCH  18  25
ENDBRANCH   1  18
TORSDOF 3
ENDMDL
MODEL 3
REMARK VINA RESULT:      -7.5      2.442      4.053
REMARK  Name = 
REMARK  5 active torsions:
REMARK  status: ('A' for Active; 'I' for Inactive)
REMARK    1  A    between atoms: C_1  and  C_2
REMARK    2  A    between atoms: C_5  and  C_6
REMARK    3  A    between atoms: C_7  and  C_8
REMARK    4  A    between atoms: C_8  and  N_9
REMARK    5  A    between atoms: C_16  and  C_17
REMARK                            x       y       z     vdW  Elec       q    Type
REMARK                         _______ _______ _______ _____ _____    ______ ____
ROOT
ATOM      1  N   UNL     1       4.168   7.070  17.649  0.00  0.00    +0.000 NA
ATOM      2  C   UNL     1       3.913   6.286  18.858  0.00  0.00    +0.000 C 
ATOM      3  C   UNL     1       2.454   6.048  19.243  0.00  0.00    +0.000 C 
ATOM      4  C   UNL     1       1.857   7.280  19.870  0.00  0.00    +0.000 A 
ATOM      5  N   UNL     1       1.687   7.236  21.208  0.00  0.00    +0.000 NA
ATOM      6  C   UNL     1       1.212   8.343  21.778  0.00  0.00    +0.000 A 
ATOM      7  N   UNL     1       0.880   9.467  21.138  0.00  0.00    +0.000 NA
ATOM      8  C   UNL     1       1.042   9.496  19.791  0.00  0.00    +0.000 A 
ATOM      9  C   UNL     1       1.575   8.405  19.097  0.00  0.00    +0.000 A 
ATOM     10  C   UNL     1       1.910   8.359  17.630  0.00  0.00    +0.000 C 
ATOM     11  C   UNL     1       3.409   8.271  17.318  0.00  0.00    +0.000 C 
ENDROOT
BRANCH   8  12
ATOM     12  C   UNL     1       0.633  10.794  19.200  0.00  0.00    +0.000 A 
ATOM     13  C   UNL     1      -0.684  11.001  18.767  0.00  0.00    +0.000 A 
ATOM     14  C   UNL     1      -1.055  12.233  18.245  0.00  0.00    +0.000 A 
ATOM     15  N   UNL     1      -0.217  13.283  18.139  0.00  0.00    +0.000 NA
ATOM     16  C   UNL     1       1.057  13.067  18.516  0.00  0.00    +0.000 A 
ATOM     17  C   UNL     1       1.526  11.854  19.002  0.00  0.00    +0.000 A 
ENDBRANCH   8  12
BRANCH   1  18
ATOM     18  C   UNL     1       5.600   7.223  17.345  0.00  0.00    +0.000 C 
BRANCH  18  25
ATOM     19  C   UNL     1       7.946   5.968  19.098  0.00  0.00    +0.000 C 
ATOM     20  C   UNL     1       7.410   5.437  17.821  0.00  0.00    +0.000 A 
ATOM     21  N   UNL     1       7.917   4.312  17.315  0.00  0.00    +0.000 NA
ATOM     22  O   UNL     1       7.224   4.080  16.157  0.00  0.00    +0.000 OA
ATOM     23  C   UNL     1       6.305   5.061  15.956  0.00  0.00    +0.000 A 
ATOM     24  C   UNL     1       5.524   4.883  14.714  0.00  0.00    +0.000 C 
ATOM     25  C   UNL     1       6.368   5.976  16.999  0.00  0.00    +0.000 A 
ENDBRANCH  18  25
ENDBRANCH   1  18
TORSDOF 3
ENDMDL
MODEL 4
REMARK VINA RESULT:      -7.5      2.228      6.380
REMARK  Name = 
REMARK  5 active torsions:
REMARK  status: ('A' for Active; 'I' for Inactive)
REMARK    1  A    between atoms: C_1  and  C_2
REMARK    2  A    between atoms: C_5  and  C_6
REMARK    3  A    between atoms: C_7  and  C_8
REMARK    4  A    between atoms: C_8  and  N_9
REMARK    5  A    between atoms: C_16  and  C_17
REMARK                            x       y       z     vdW  Elec       q    Type
REMARK                         _______ _______ _______ _____ _____    ______ ____
ROOT
ATOM      1  N   UNL     1       1.772   6.564  20.371  0.00  0.00    +0.000 NA
ATOM      2  C   UNL     1       1.291   5.260  20.828  0.00  0.00    +0.000 C 
ATOM      3  C   UNL     1       2.343   4.217  21.202  0.00  0.00    +0.000 C 
ATOM      4  C   UNL     1       2.950   3.602  19.968  0.00  0.00    +0.000 A 
ATOM      5  N   UNL     1       2.546   2.349  19.674  0.00  0.00    +0.000 NA
ATOM      6  C   UNL     1       3.036   1.820  18.553  0.00  0.00    +0.000 A 
ATOM      7  N   UNL     1       3.894   2.416  17.722  0.00  0.00    +0.000 NA
ATOM      8  C   UNL     1       4.304   3.672  18.033  0.00  0.00    +0.000 A 
ATOM      9  C   UNL     1       3.818   4.338  19.162  0.00  0.00    +0.000 A 
ATOM     10  C   UNL     1       4.105   5.764  19.548  0.00  0.00    +0.000 C 
ATOM     11  C   UNL     1       2.899   6.707  19.457  0.00  0.00    +0.000 C 
ENDROOT
BRANCH   8  12
ATOM     12  C   UNL     1       5.257   4.219  17.036  0.00  0.00    +0.000 A 
ATOM     13  C   UNL     1       6.582   4.506  17.394  0.00  0.00    +0.000 A 
ATOM     14  C   UNL     1       7.467   4.989  16.439  0.00  0.00    +0.000 A 
ATOM     15  N   UNL     1       7.138   5.189  15.148  0.00  0.00    +0.000 NA
ATOM     16  C   UNL     1       5.854   4.953  14.818  0.00  0.00    +0.000 A 
ATOM     17  C   UNL     1       4.891   4.518  15.718  0.00  0.00    +0.000 A 
ENDBRANCH   8  12
BRANCH   1  18
ATOM     18  C   UNL     1       0.688   7.509  20.062  0.00  0.00    +0.000 C 
BRANCH  18  25
ATOM     19  C   UNL     1       1.468   9.870  18.070  0.00  0.00    +0.000 C 
ATOM     20  C   UNL     1       1.232   9.982  19.530  0.00  0.00    +0.000 A 
ATOM     21  N   UNL     1       1.328  11.174  20.120  0.00  0.00    +0.000 NA
ATOM     22  O   UNL     1       1.054  10.957  21.444  0.00  0.00    +0.000 OA
ATOM     23  C   UNL     1       0.796   9.639  21.659  0.00  0.00    +0.000 A 
ATOM     24  C   UNL     1       0.500   9.327  23.073  0.00  0.00    +0.000 C 
ATOM     25  C   UNL     1       0.892   8.946  20.460  0.00  0.00    +0.000 A 
ENDBRANCH  18  25
ENDBRANCH   1  18
TORSDOF 3
ENDMDL
MODEL 5
REMARK VINA RESULT:      -7.3      2.367      3.706
REMARK  Name = 
REMARK  5 active torsions:
REMARK  status: ('A' for Active; 'I' for Inactive)
REMARK    1  A    between atoms: C_1  and  C_2
REMARK    2  A    between atoms: C_5  and  C_6
REMARK    3  A    between atoms: C_7  and  C_8
REMARK    4  A    between atoms: C_8  and  N_9
REMARK    5  A    between atoms: C_16  and  C_17
REMARK                            x       y       z     vdW  Elec       q    Type
REMARK                         _______ _______ _______ _____ _____    ______ ____
ROOT
ATOM      1  N   UNL     1       4.273   7.070  17.530  0.00  0.00    +0.000 NA
ATOM      2  C   UNL     1       4.032   6.246  18.715  0.00  0.00    +0.000 C 
ATOM      3  C   UNL     1       2.576   5.963  19.086  0.00  0.00    +0.000 C 
ATOM      4  C   UNL     1       1.948   7.163  19.745  0.00  0.00    +0.000 A 
ATOM      5  N   UNL     1       1.774   7.077  21.081  0.00  0.00    +0.000 NA
ATOM      6  C   UNL     1       1.272   8.156  21.680  0.00  0.00    +0.000 A 
ATOM      7  N   UNL     1       0.916   9.290  21.070  0.00  0.00    +0.000 NA
ATOM      8  C   UNL     1       1.084   9.361  19.724  0.00  0.00    +0.000 A 
ATOM      9  C   UNL     1       1.645   8.303  19.003  0.00  0.00    +0.000 A 
ATOM     10  C   UNL     1       1.986   8.306  17.537  0.00  0.00    +0.000 C 
ATOM     11  C   UNL     1       3.489   8.261  17.230  0.00  0.00    +0.000 C 
ENDROOT
BRANCH   8  12
ATOM     12  C   UNL     1       0.648  10.666  19.169  0.00  0.00    +0.000 A 
ATOM     13  C   UNL     1      -0.679  10.864  18.763  0.00  0.00    +0.000 A 
ATOM     14  C   UNL     1      -1.076  12.102  18.274  0.00  0.00    +0.000 A 
ATOM     15  N   UNL     1      -0.254  13.165  18.177  0.00  0.00    +0.000 NA
ATOM     16  C   UNL     1       1.030  12.958  18.528  0.00  0.00    +0.000 A 
ATOM     17  C   UNL     1       1.522  11.742  18.979  0.00  0.00    +0.000 A 
ENDBRANCH   8  12
BRANCH   1  18
ATOM     18  C   UNL     1       5.703   7.264  17.238  0.00  0.00    +0.000 C 
BRANCH  18  25
ATOM     19  C   UNL     1       5.969   5.184  14.839  0.00  0.00    +0.000 C 
ATOM     20  C   UNL     1       6.680   5.135  16.138  0.00  0.00    +0.000 A 
ATOM     21  N   UNL     1       7.544   4.147  16.376  0.00  0.00    +0.000 NA
ATOM     22  O   UNL     1       8.034   4.376  17.635  0.00  0.00    +0.000 OA
ATOM     23  C   UNL     1       7.468   5.494  18.161  0.00  0.00    +0.000 A 
ATOM     24  C   UNL     1       7.943   5.800  19.527  0.00  0.00    +0.000 C 
ATOM     25  C   UNL     1       6.580   6.041  17.244  0.00  0.00    +0.000 A 
ENDBRANCH  18  25
ENDBRANCH   1  18
TORSDOF 3
ENDMDL
MODEL 6
REMARK VINA RESULT:      -7.2      2.668      4.425
REMARK  Name = 
REMARK  5 active torsions:
REMARK  status: ('A' for Active; 'I' for Inactive)
REMARK    1  A    between atoms: C_1  and  C_2
REMARK    2  A    between atoms: C_5  and  C_6
REMARK    3  A    between atoms: C_7  and  C_8
REMARK    4  A    between atoms: C_8  and  N_9
REMARK    5  A    between atoms: C_16  and  C_17
REMARK                            x       y       z     vdW  Elec       q    Type
REMARK                         _______ _______ _______ _____ _____    ______ ____
ROOT
ATOM      1  N   UNL     1       3.395   7.172  17.910  0.00  0.00    +0.000 NA
ATOM      2  C   UNL     1       3.295   6.574  19.241  0.00  0.00    +0.000 C 
ATOM      3  C   UNL     1       1.916   6.559  19.900  0.00  0.00    +0.000 C 
ATOM      4  C   UNL     1       1.566   7.919  20.443  0.00  0.00    +0.000 A 
ATOM      5  N   UNL     1       1.643   8.056  21.783  0.00  0.00    +0.000 NA
ATOM      6  C   UNL     1       1.390   9.272  22.267  0.00  0.00    +0.000 A 
ATOM      7  N   UNL     1       1.054  10.342  21.543  0.00  0.00    +0.000 NA
ATOM      8  C   UNL     1       0.967  10.191  20.197  0.00  0.00    +0.000 A 
ATOM      9  C   UNL     1       1.255   8.969  19.581  0.00  0.00    +0.000 A 
ATOM     10  C   UNL     1       1.306   8.709  18.099  0.00  0.00    +0.000 C 
ATOM     11  C   UNL     1       2.706   8.406  17.550  0.00  0.00    +0.000 C 
ENDROOT
BRANCH   8  12
ATOM     12  C   UNL     1       0.582  11.449  19.510  0.00  0.00    +0.000 A 
ATOM     13  C   UNL     1      -0.723  11.633  19.031  0.00  0.00    +0.000 A 
ATOM     14  C   UNL     1      -1.073  12.829  18.418  0.00  0.00    +0.000 A 
ATOM     15  N   UNL     1      -0.225  13.865  18.264  0.00  0.00    +0.000 NA
ATOM     16  C   UNL     1       1.038  13.669  18.688  0.00  0.00    +0.000 A 
ATOM     17  C   UNL     1       1.486  12.489  19.265  0.00  0.00    +0.000 A 
ENDBRANCH   8  12
BRANCH   1  18
ATOM     18  C   UNL     1       4.754   7.116  17.347  0.00  0.00    +0.000 C 
BRANCH  18  25
ATOM     19  C   UNL     1       7.820   7.238  18.203  0.00  0.00    +0.000 C 
ATOM     20  C   UNL     1       6.976   6.024  18.100  0.00  0.00    +0.000 A 
ATOM     21  N   UNL     1       7.499   4.835  18.399  0.00  0.00    +0.000 NA
ATOM     22  O   UNL     1       6.489   3.928  18.216  0.00  0.00    +0.000 OA
ATOM     23  C   UNL     1       5.359   4.562  17.805  0.00  0.00    +0.000 A 
ATOM     24  C   UNL     1       4.225   3.642  17.576  0.00  0.00    +0.000 C 
ATOM     25  C   UNL     1       5.601   5.926  17.708  0.00  0.00    +0.000 A 
ENDBRANCH  18  25
ENDBRANCH   1  18
TORSDOF 3
ENDMDL
MODEL 7
REMARK VINA RESULT:      -7.2      2.070      6.459
REMARK  Name = 
REMARK  5 active torsions:
REMARK  status: ('A' for Active; 'I' for Inactive)
REMARK    1  A    between atoms: C_1  and  C_2
REMARK    2  A    between atoms: C_5  and  C_6
REMARK    3  A    between atoms: C_7  and  C_8
REMARK    4  A    between atoms: C_8  and  N_9
REMARK    5  A    between atoms: C_16  and  C_17
REMARK                            x       y       z     vdW  Elec       q    Type
REMARK                         _______ _______ _______ _____ _____    ______ ____
ROOT
ATOM      1  N   UNL     1       1.749   6.469  20.458  0.00  0.00    +0.000 NA
ATOM      2  C   UNL     1       1.300   5.145  20.892  0.00  0.00    +0.000 C 
ATOM      3  C   UNL     1       2.377   4.121  21.244  0.00  0.00    +0.000 C 
ATOM      4  C   UNL     1       2.997   3.545  19.998  0.00  0.00    +0.000 A 
ATOM      5  N   UNL     1       2.622   2.287  19.682  0.00  0.00    +0.000 NA
ATOM      6  C   UNL     1       3.122   1.791  18.550  0.00  0.00    +0.000 A 
ATOM      7  N   UNL     1       3.964   2.423  17.728  0.00  0.00    +0.000 NA
ATOM      8  C   UNL     1       4.344   3.682  18.062  0.00  0.00    +0.000 A 
ATOM      9  C   UNL     1       3.844   4.315  19.205  0.00  0.00    +0.000 A 
ATOM     10  C   UNL     1       4.098   5.741  19.616  0.00  0.00    +0.000 C 
ATOM     11  C   UNL     1       2.869   6.656  19.545  0.00  0.00    +0.000 C 
ENDROOT
BRANCH   8  12
ATOM     12  C   UNL     1       5.281   4.270  17.074  0.00  0.00    +0.000 A 
ATOM     13  C   UNL     1       4.931   4.359  15.719  0.00  0.00    +0.000 A 
ATOM     14  C   UNL     1       5.809   4.940  14.814  0.00  0.00    +0.000 A 
ATOM     15  N   UNL     1       7.004   5.458  15.160  0.00  0.00    +0.000 NA
ATOM     16  C   UNL     1       7.355   5.332  16.454  0.00  0.00    +0.000 A 
ATOM     17  C   UNL     1       6.561   4.722  17.415  0.00  0.00    +0.000 A 
ENDBRANCH   8  12
BRANCH   1  18
ATOM     18  C   UNL     1       0.641   7.393  20.168  0.00  0.00    +0.000 C 
BRANCH  18  25
ATOM     19  C   UNL     1       0.355   9.188  22.785  0.00  0.00    +0.000 C 
ATOM     20  C   UNL     1       0.805   9.638  21.446  0.00  0.00    +0.000 A 
ATOM     21  N   UNL     1       1.153  10.912  21.265  0.00  0.00    +0.000 NA
ATOM     22  O   UNL     1       1.522  11.014  19.950  0.00  0.00    +0.000 OA
ATOM     23  C   UNL     1       1.395   9.809  19.333  0.00  0.00    +0.000 A 
ATOM     24  C   UNL     1       1.767   9.844  17.903  0.00  0.00    +0.000 C 
ATOM     25  C   UNL     1       0.936   8.867  20.245  0.00  0.00    +0.000 A 
ENDBRANCH  18  25
ENDBRANCH   1  18
TORSDOF 3
ENDMDL
MODEL 8
REMARK VINA RESULT:      -7.0      2.479      6.785
REMARK  Name = 
REMARK  5 active torsions:
REMARK  status: ('A' for Active; 'I' for Inactive)
REMARK    1  A    between atoms: C_1  and  C_2
REMARK    2  A    between atoms: C_5  and  C_6
REMARK    3  A    between atoms: C_7  and  C_8
REMARK    4  A    between atoms: C_8  and  N_9
REMARK    5  A    between atoms: C_16  and  C_17
REMARK                            x       y       z     vdW  Elec       q    Type
REMARK                         _______ _______ _______ _____ _____    ______ ____
ROOT
ATOM      1  N   UNL     1       2.614   7.704  18.751  0.00  0.00    +0.000 NA
ATOM      2  C   UNL     1       2.095   6.618  19.582  0.00  0.00    +0.000 C 
ATOM      3  C   UNL     1       3.102   5.601  20.116  0.00  0.00    +0.000 C 
ATOM      4  C   UNL     1       3.508   4.632  19.037  0.00  0.00    +0.000 A 
ATOM      5  N   UNL     1       2.977   3.394  19.128  0.00  0.00    +0.000 NA
ATOM      6  C   UNL     1       3.286   2.547  18.147  0.00  0.00    +0.000 A 
ATOM      7  N   UNL     1       4.080   2.817  17.107  0.00  0.00    +0.000 NA
ATOM      8  C   UNL     1       4.618   4.061  17.032  0.00  0.00    +0.000 A 
ATOM      9  C   UNL     1       4.324   5.041  17.985  0.00  0.00    +0.000 A 
ATOM     10  C   UNL     1       4.763   6.481  17.947  0.00  0.00    +0.000 C 
ATOM     11  C   UNL     1       3.629   7.490  17.726  0.00  0.00    +0.000 C 
ENDROOT
BRANCH   8  12
ATOM     12  C   UNL     1       5.482   4.232  15.838  0.00  0.00    +0.000 A 
ATOM     13  C   UNL     1       5.060   3.783  14.578  0.00  0.00    +0.000 A 
ATOM     14  C   UNL     1       5.869   3.979  13.467  0.00  0.00    +0.000 A 
ATOM     15  N   UNL     1       7.061   4.606  13.512  0.00  0.00    +0.000 NA
ATOM     16  C   UNL     1       7.482   4.997  14.730  0.00  0.00    +0.000 A 
ATOM     17  C   UNL     1       6.761   4.797  15.898  0.00  0.00    +0.000 A 
ENDBRANCH   8  12
BRANCH   1  18
ATOM     18  C   UNL     1       1.575   8.647  18.307  0.00  0.00    +0.000 C 
BRANCH  18  25
ATOM     19  C   UNL     1       2.285  11.732  17.948  0.00  0.00    +0.000 C 
ATOM     20  C   UNL     1       1.516  11.123  19.058  0.00  0.00    +0.000 A 
ATOM     21  N   UNL     1       1.035  11.902  20.028  0.00  0.00    +0.000 NA
ATOM     22  O   UNL     1       0.377  11.063  20.888  0.00  0.00    +0.000 OA
ATOM     23  C   UNL     1       0.462   9.780  20.447  0.00  0.00    +0.000 A 
ATOM     24  C   UNL     1      -0.218   8.813  21.334  0.00  0.00    +0.000 C 
ATOM     25  C   UNL     1       1.186   9.743  19.262  0.00  0.00    +0.000 A 
ENDBRANCH  18  25
ENDBRANCH   1  18
TORSDOF 3
ENDMDL
MODEL 9
REMARK VINA RESULT:      -7.0      2.721      4.539
REMARK  Name = 
REMARK  5 active torsions:
REMARK  status: ('A' for Active; 'I' for Inactive)
REMARK    1  A    between atoms: C_1  and  C_2
REMARK    2  A    between atoms: C_5  and  C_6
REMARK    3  A    between atoms: C_7  and  C_8
REMARK    4  A    between atoms: C_8  and  N_9
REMARK    5  A    between atoms: C_16  and  C_17
REMARK                            x       y       z     vdW  Elec       q    Type
REMARK                         _______ _______ _______ _____ _____    ______ ____
ROOT
ATOM      1  N   UNL     1       3.182   7.299  17.940  0.00  0.00    +0.000 NA
ATOM      2  C   UNL     1       3.075   6.675  19.260  0.00  0.00    +0.000 C 
ATOM      3  C   UNL     1       1.707   6.707  19.940  0.00  0.00    +0.000 C 
ATOM      4  C   UNL     1       1.428   8.069  20.519  0.00  0.00    +0.000 A 
ATOM      5  N   UNL     1       1.532   8.171  21.860  0.00  0.00    +0.000 NA
ATOM      6  C   UNL     1       1.342   9.386  22.375  0.00  0.00    +0.000 A 
ATOM      7  N   UNL     1       1.044  10.487  21.681  0.00  0.00    +0.000 NA
ATOM      8  C   UNL     1       0.929  10.371  20.333  0.00  0.00    +0.000 A 
ATOM      9  C   UNL     1       1.152   9.152  19.686  0.00  0.00    +0.000 A 
ATOM     10  C   UNL     1       1.169   8.924  18.198  0.00  0.00    +0.000 C 
ATOM     11  C   UNL     1       2.545   8.570  17.620  0.00  0.00    +0.000 C 
ENDROOT
BRANCH   8  12
ATOM     12  C   UNL     1       0.592  11.660  19.682  0.00  0.00    +0.000 A 
ATOM     13  C   UNL     1       1.528  12.702  19.627  0.00  0.00    +0.000 A 
ATOM     14  C   UNL     1       1.204  13.891  18.987  0.00  0.00    +0.000 A 
ATOM     15  N   UNL     1       0.023  14.114  18.378  0.00  0.00    +0.000 NA
ATOM     16  C   UNL     1      -0.889  13.127  18.469  0.00  0.00    +0.000 A 
ATOM     17  C   UNL     1      -0.667  11.928  19.132  0.00  0.00    +0.000 A 
ENDBRANCH   8  12
BRANCH   1  18
ATOM     18  C   UNL     1       4.528   7.194  17.355  0.00  0.00    +0.000 C 
BRANCH  18  25
ATOM     19  C   UNL     1       7.605   6.942  18.141  0.00  0.00    +0.000 C 
ATOM     20  C   UNL     1       6.652   5.828  17.920  0.00  0.00    +0.000 A 
ATOM     21  N   UNL     1       7.068   4.569  18.066  0.00  0.00    +0.000 NA
ATOM     22  O   UNL     1       5.977   3.784  17.805  0.00  0.00    +0.000 OA
ATOM     23  C   UNL     1       4.904   4.560  17.498  0.00  0.00    +0.000 A 
ATOM     24  C   UNL     1       3.687   3.778  17.194  0.00  0.00    +0.000 C 
ATOM     25  C   UNL     1       5.268   5.899  17.554  0.00  0.00    +0.000 A 
ENDBRANCH  18  25
ENDBRANCH   1  18
TORSDOF 3
ENDMDL
