MODEL 1
REMARK VINA RESULT:      -8.1      0.000      0.000
REMARK  Name = 
REMARK  4 active torsions:
REMARK  status: ('A' for Active; 'I' for Inactive)
REMARK    1  A    between atoms: C_1  and  C_2
REMARK    2  A    between atoms: C_4  and  C_5
REMARK    3  A    between atoms: N_7  and  S_8
REMARK    4  A    between atoms: S_8  and  C_11
REMARK                            x       y       z     vdW  Elec       q    Type
REMARK                         _______ _______ _______ _____ _____    ______ ____
ROOT
ATOM      1  S   UNL     1       3.489   2.972  17.505  0.00  0.00    +0.000 S 
ATOM      2  O   UNL     1       4.011   1.657  17.811  0.00  0.00    +0.000 OA
ATOM      3  O   UNL     1       2.469   3.138  16.488  0.00  0.00    +0.000 OA
ENDROOT
BRANCH   1   4
ATOM      4  C   UNL     1       4.846   3.983  17.063  0.00  0.00    +0.000 A 
ATOM      5  C   UNL     1       5.060   4.388  15.723  0.00  0.00    +0.000 A 
ATOM      6  C   UNL     1       6.155   5.203  15.338  0.00  0.00    +0.000 A 
ATOM      7  C   UNL     1       7.116   5.676  16.251  0.00  0.00    +0.000 A 
ATOM      8  C   UNL     1       6.911   5.279  17.586  0.00  0.00    +0.000 A 
ATOM      9  N   UNL     1       7.640   5.568  18.669  0.00  0.00    +0.000 NA
ATOM     10  O   UNL     1       7.009   4.939  19.728  0.00  0.00    +0.000 OA
ATOM     11  N   UNL     1       5.878   4.258  19.319  0.00  0.00    +0.000 NA
ATOM     12  C   UNL     1       5.786   4.440  17.995  0.00  0.00    +0.000 A 
ENDBRANCH   1   4
BRANCH   1  19
ATOM     13  C   UNL     1       2.073   3.220  21.930  0.00  0.00    +0.000 C 
ATOM     14  C   UNL     1       1.146   3.571  20.761  0.00  0.00    +0.000 C 
ATOM     15  C   UNL     1       0.938   5.083  20.633  0.00  0.00    +0.000 C 
ATOM     16  C   UNL     1       2.215   5.779  20.154  0.00  0.00    +0.000 C 
ATOM     17  C   UNL     1       1.983   7.280  19.996  0.00  0.00    +0.000 C 
ATOM     18  C   UNL     1       2.683   5.172  18.830  0.00  0.00    +0.000 C 
ATOM     19  N   UNL     1       2.873   3.694  18.945  0.00  0.00    +0.000 NA
ATOM     20  C   UNL     1       1.649   2.988  19.433  0.00  0.00    +0.000 C 
ENDBRANCH   1  19
TORSDOF 2
ENDMDL
MODEL 2
REMARK VINA RESULT:      -7.9      1.955      5.304
REMARK  Name = 
REMARK  4 active torsions:
REMARK  status: ('A' for Active; 'I' for Inactive)
REMARK    1  A    between atoms: C_1  and  C_2
REMARK    2  A    between atoms: C_4  and  C_5
REMARK    3  A    between atoms: N_7  and  S_8
REMARK    4  A    between atoms: S_8  and  C_11
REMARK                            x       y       z     vdW  Elec       q    Type
REMARK                         _______ _______ _______ _____ _____    ______ ____
ROOT
ATOM      1  S   UNL     1       2.607   4.460  17.663  0.00  0.00    +0.000 S 
ATOM      2  O   UNL     1       1.948   5.747  17.710  0.00  0.00    +0.000 OA
ATOM      3  O   UNL     1       2.224   3.474  16.673  0.00  0.00    +0.000 OA
ENDROOT
BRANCH   1   4
ATOM      4  C   UNL     1       2.428   3.723  19.240  0.00  0.00    +0.000 A 
ATOM      5  C   UNL     1       1.236   3.865  19.990  0.00  0.00    +0.000 A 
ATOM      6  C   UNL     1       1.068   3.282  21.273  0.00  0.00    +0.000 A 
ATOM      7  C   UNL     1       2.068   2.518  21.903  0.00  0.00    +0.000 A 
ATOM      8  C   UNL     1       3.257   2.371  21.164  0.00  0.00    +0.000 A 
ATOM      9  N   UNL     1       4.371   1.707  21.489  0.00  0.00    +0.000 NA
ATOM     10  O   UNL     1       5.234   1.871  20.420  0.00  0.00    +0.000 OA
ATOM     11  N   UNL     1       4.667   2.631  19.415  0.00  0.00    +0.000 NA
ATOM     12  C   UNL     1       3.441   2.966  19.842  0.00  0.00    +0.000 A 
ENDBRANCH   1   4
BRANCH   1  19
ATOM     13  C   UNL     1       6.972   5.403  18.970  0.00  0.00    +0.000 C 
ATOM     14  C   UNL     1       6.248   6.232  17.903  0.00  0.00    +0.000 C 
ATOM     15  C   UNL     1       6.761   5.920  16.495  0.00  0.00    +0.000 C 
ATOM     16  C   UNL     1       6.338   4.517  16.049  0.00  0.00    +0.000 C 
ATOM     17  C   UNL     1       6.824   4.233  14.629  0.00  0.00    +0.000 C 
ATOM     18  C   UNL     1       4.816   4.375  16.127  0.00  0.00    +0.000 C 
ATOM     19  N   UNL     1       4.308   4.693  17.496  0.00  0.00    +0.000 NA
ATOM     20  C   UNL     1       4.726   6.049  17.968  0.00  0.00    +0.000 C 
ENDBRANCH   1  19
TORSDOF 2
ENDMDL
MODEL 3
REMARK VINA RESULT:      -7.9      1.749      2.102
REMARK  Name = 
REMARK  4 active torsions:
REMARK  status: ('A' for Active; 'I' for Inactive)
REMARK    1  A    between atoms: C_1  and  C_2
REMARK    2  A    between atoms: C_4  and  C_5
REMARK    3  A    between atoms: N_7  and  S_8
REMARK    4  A    between atoms: S_8  and  C_11
REMARK                            x       y       z     vdW  Elec       q    Type
REMARK                         _______ _______ _______ _____ _____    ______ ____
ROOT
ATOM      1  S   UNL     1       3.728   3.160  17.617  0.00  0.00    +0.000 S 
ATOM      2  O   UNL     1       4.149   1.779  17.708  0.00  0.00    +0.000 OA
ATOM      3  O   UNL     1       2.906   3.606  16.509  0.00  0.00    +0.000 OA
ENDROOT
BRANCH   1   4
ATOM      4  C   UNL     1       5.169   4.150  17.638  0.00  0.00    +0.000 A 
ATOM      5  C   UNL     1       5.662   4.712  18.840  0.00  0.00    +0.000 A 
ATOM      6  C   UNL     1       6.825   5.524  18.883  0.00  0.00    +0.000 A 
ATOM      7  C   UNL     1       7.583   5.835  17.739  0.00  0.00    +0.000 A 
ATOM      8  C   UNL     1       7.101   5.280  16.538  0.00  0.00    +0.000 A 
ATOM      9  N   UNL     1       7.600   5.390  15.303  0.00  0.00    +0.000 NA
ATOM     10  O   UNL     1       6.757   4.655  14.488  0.00  0.00    +0.000 OA
ATOM     11  N   UNL     1       5.730   4.074  15.206  0.00  0.00    +0.000 NA
ATOM     12  C   UNL     1       5.905   4.443  16.482  0.00  0.00    +0.000 A 
ENDBRANCH   1   4
BRANCH   1  19
ATOM     13  C   UNL     1       1.768   2.593  21.799  0.00  0.00    +0.000 C 
ATOM     14  C   UNL     1       0.968   3.087  20.589  0.00  0.00    +0.000 C 
ATOM     15  C   UNL     1       0.670   4.587  20.678  0.00  0.00    +0.000 C 
ATOM     16  C   UNL     1       1.943   5.417  20.490  0.00  0.00    +0.000 C 
ATOM     17  C   UNL     1       1.626   6.910  20.543  0.00  0.00    +0.000 C 
ATOM     18  C   UNL     1       2.612   5.064  19.159  0.00  0.00    +0.000 C 
ATOM     19  N   UNL     1       2.891   3.599  19.060  0.00  0.00    +0.000 NA
ATOM     20  C   UNL     1       1.670   2.761  19.264  0.00  0.00    +0.000 C 
ENDBRANCH   1  19
TORSDOF 2
ENDMDL
MODEL 4
REMARK VINA RESULT:      -7.5      1.991      2.787
REMARK  Name = 
REMARK  4 active torsions:
REMARK  status: ('A' for Active; 'I' for Inactive)
REMARK    1  A    between atoms: C_1  and  C_2
REMARK    2  A    between atoms: C_4  and  C_5
REMARK    3  A    between atoms: N_7  and  S_8
REMARK    4  A    between atoms: S_8  and  C_11
REMARK                            x       y       z     vdW  Elec       q    Type
REMARK                         _______ _______ _______ _____ _____    ______ ____
ROOT
ATOM      1  S   UNL     1       3.620   5.770  18.418  0.00  0.00    +0.000 S 
ATOM      2  O   UNL     1       2.496   6.372  17.736  0.00  0.00    +0.000 OA
ATOM      3  O   UNL     1       4.224   6.428  19.560  0.00  0.00    +0.000 OA
ENDROOT
BRANCH   1   4
ATOM      4  C   UNL     1       4.878   5.513  17.230  0.00  0.00    +0.000 A 
ATOM      5  C   UNL     1       4.667   5.794  15.859  0.00  0.00    +0.000 A 
ATOM      6  C   UNL     1       5.668   5.589  14.874  0.00  0.00    +0.000 A 
ATOM      7  C   UNL     1       6.949   5.092  15.178  0.00  0.00    +0.000 A 
ATOM      8  C   UNL     1       7.169   4.811  16.540  0.00  0.00    +0.000 A 
ATOM      9  N   UNL     1       8.271   4.340  17.132  0.00  0.00    +0.000 NA
ATOM     10  O   UNL     1       7.965   4.246  18.478  0.00  0.00    +0.000 OA
ATOM     11  N   UNL     1       6.675   4.665  18.742  0.00  0.00    +0.000 NA
ATOM     12  C   UNL     1       6.145   5.018  17.562  0.00  0.00    +0.000 A 
ENDBRANCH   1   4
BRANCH   1  19
ATOM     13  C   UNL     1       3.558   1.117  18.420  0.00  0.00    +0.000 C 
ATOM     14  C   UNL     1       2.280   1.946  18.251  0.00  0.00    +0.000 C 
ATOM     15  C   UNL     1       1.422   1.935  19.519  0.00  0.00    +0.000 C 
ATOM     16  C   UNL     1       2.088   2.733  20.644  0.00  0.00    +0.000 C 
ATOM     17  C   UNL     1       1.206   2.745  21.891  0.00  0.00    +0.000 C 
ATOM     18  C   UNL     1       2.371   4.163  20.181  0.00  0.00    +0.000 C 
ATOM     19  N   UNL     1       3.194   4.180  18.934  0.00  0.00    +0.000 NA
ATOM     20  C   UNL     1       2.581   3.388  17.824  0.00  0.00    +0.000 C 
ENDBRANCH   1  19
TORSDOF 2
ENDMDL
MODEL 5
REMARK VINA RESULT:      -7.4      2.472      5.604
REMARK  Name = 
REMARK  4 active torsions:
REMARK  status: ('A' for Active; 'I' for Inactive)
REMARK    1  A    between atoms: C_1  and  C_2
REMARK    2  A    between atoms: C_4  and  C_5
REMARK    3  A    between atoms: N_7  and  S_8
REMARK    4  A    between atoms: S_8  and  C_11
REMARK                            x       y       z     vdW  Elec       q    Type
REMARK                         _______ _______ _______ _____ _____    ______ ____
ROOT
ATOM      1  S   UNL     1       2.839   4.522  18.616  0.00  0.00    +0.000 S 
ATOM      2  O   UNL     1       1.873   4.120  17.617  0.00  0.00    +0.000 OA
ATOM      3  O   UNL     1       3.169   3.636  19.715  0.00  0.00    +0.000 OA
ENDROOT
BRANCH   1   4
ATOM      4  C   UNL     1       2.285   6.032  19.303  0.00  0.00    +0.000 A 
ATOM      5  C   UNL     1       1.775   6.101  20.621  0.00  0.00    +0.000 A 
ATOM      6  C   UNL     1       1.314   7.311  21.200  0.00  0.00    +0.000 A 
ATOM      7  C   UNL     1       1.326   8.540  20.514  0.00  0.00    +0.000 A 
ATOM      8  C   UNL     1       1.833   8.482  19.201  0.00  0.00    +0.000 A 
ATOM      9  N   UNL     1       1.976   9.470  18.312  0.00  0.00    +0.000 NA
ATOM     10  O   UNL     1       2.520   8.886  17.182  0.00  0.00    +0.000 OA
ATOM     11  N   UNL     1       2.731   7.531  17.357  0.00  0.00    +0.000 NA
ATOM     12  C   UNL     1       2.311   7.241  18.596  0.00  0.00    +0.000 A 
ENDBRANCH   1   4
BRANCH   1  19
ATOM     13  C   UNL     1       5.746   5.507  15.119  0.00  0.00    +0.000 C 
ATOM     14  C   UNL     1       5.979   4.317  16.057  0.00  0.00    +0.000 C 
ATOM     15  C   UNL     1       7.115   4.587  17.048  0.00  0.00    +0.000 C 
ATOM     16  C   UNL     1       6.710   5.643  18.081  0.00  0.00    +0.000 C 
ATOM     17  C   UNL     1       7.838   5.876  19.084  0.00  0.00    +0.000 C 
ATOM     18  C   UNL     1       5.435   5.208  18.807  0.00  0.00    +0.000 C 
ATOM     19  N   UNL     1       4.327   4.928  17.845  0.00  0.00    +0.000 NA
ATOM     20  C   UNL     1       4.702   3.918  16.808  0.00  0.00    +0.000 C 
ENDBRANCH   1  19
TORSDOF 2
ENDMDL
MODEL 6
REMARK VINA RESULT:      -7.3      3.154      5.822
REMARK  Name = 
REMARK  4 active torsions:
REMARK  status: ('A' for Active; 'I' for Inactive)
REMARK    1  A    between atoms: C_1  and  C_2
REMARK    2  A    between atoms: C_4  and  C_5
REMARK    3  A    between atoms: N_7  and  S_8
REMARK    4  A    between atoms: S_8  and  C_11
REMARK                            x       y       z     vdW  Elec       q    Type
REMARK                         _______ _______ _______ _____ _____    ______ ____
ROOT
ATOM      1  S   UNL     1       2.795   5.567  18.895  0.00  0.00    +0.000 S 
ATOM      2  O   UNL     1       1.810   4.796  18.169  0.00  0.00    +0.000 OA
ATOM      3  O   UNL     1       3.116   5.239  20.270  0.00  0.00    +0.000 OA
ENDROOT
BRANCH   1   4
ATOM      4  C   UNL     1       2.285   7.239  18.856  0.00  0.00    +0.000 A 
ATOM      5  C   UNL     1       2.506   8.053  17.719  0.00  0.00    +0.000 A 
ATOM      6  C   UNL     1       2.107   9.413  17.664  0.00  0.00    +0.000 A 
ATOM      7  C   UNL     1       1.460  10.064  18.731  0.00  0.00    +0.000 A 
ATOM      8  C   UNL     1       1.235   9.263  19.866  0.00  0.00    +0.000 A 
ATOM      9  N   UNL     1       0.646   9.590  21.021  0.00  0.00    +0.000 NA
ATOM     10  O   UNL     1       0.676   8.445  21.798  0.00  0.00    +0.000 OA
ATOM     11  N   UNL     1       1.275   7.391  21.135  0.00  0.00    +0.000 NA
ATOM     12  C   UNL     1       1.641   7.860  19.934  0.00  0.00    +0.000 A 
ENDBRANCH   1   4
BRANCH   1  19
ATOM     13  C   UNL     1       5.622   5.553  15.199  0.00  0.00    +0.000 C 
ATOM     14  C   UNL     1       5.649   4.433  16.245  0.00  0.00    +0.000 C 
ATOM     15  C   UNL     1       6.877   4.534  17.155  0.00  0.00    +0.000 C 
ATOM     16  C   UNL     1       6.776   5.744  18.089  0.00  0.00    +0.000 C 
ATOM     17  C   UNL     1       7.988   5.812  19.016  0.00  0.00    +0.000 C 
ATOM     18  C   UNL     1       5.485   5.672  18.908  0.00  0.00    +0.000 C 
ATOM     19  N   UNL     1       4.285   5.558  18.026  0.00  0.00    +0.000 NA
ATOM     20  C   UNL     1       4.365   4.399  17.085  0.00  0.00    +0.000 C 
ENDBRANCH   1  19
TORSDOF 2
ENDMDL
MODEL 7
REMARK VINA RESULT:      -7.2      2.077      2.834
REMARK  Name = 
REMARK  4 active torsions:
REMARK  status: ('A' for Active; 'I' for Inactive)
REMARK    1  A    between atoms: C_1  and  C_2
REMARK    2  A    between atoms: C_4  and  C_5
REMARK    3  A    between atoms: N_7  and  S_8
REMARK    4  A    between atoms: S_8  and  C_11
REMARK                            x       y       z     vdW  Elec       q    Type
REMARK                         _______ _______ _______ _____ _____    ______ ____
ROOT
ATOM      1  S   UNL     1       3.022   5.974  18.516  0.00  0.00    +0.000 S 
ATOM      2  O   UNL     1       2.105   6.251  17.431  0.00  0.00    +0.000 OA
ATOM      3  O   UNL     1       2.986   6.769  19.728  0.00  0.00    +0.000 OA
ENDROOT
BRANCH   1   4
ATOM      4  C   UNL     1       4.644   6.070  17.868  0.00  0.00    +0.000 A 
ATOM      5  C   UNL     1       4.883   6.453  16.527  0.00  0.00    +0.000 A 
ATOM      6  C   UNL     1       6.188   6.532  15.976  0.00  0.00    +0.000 A 
ATOM      7  C   UNL     1       7.349   6.240  16.715  0.00  0.00    +0.000 A 
ATOM      8  C   UNL     1       7.122   5.859  18.051  0.00  0.00    +0.000 A 
ATOM      9  N   UNL     1       8.012   5.528  18.993  0.00  0.00    +0.000 NA
ATOM     10  O   UNL     1       7.273   5.241  20.126  0.00  0.00    +0.000 OA
ATOM     11  N   UNL     1       5.917   5.396  19.908  0.00  0.00    +0.000 NA
ATOM     12  C   UNL     1       5.782   5.773  18.629  0.00  0.00    +0.000 A 
ENDBRANCH   1   4
BRANCH   1  19
ATOM     13  C   UNL     1       3.610   1.361  18.359  0.00  0.00    +0.000 C 
ATOM     14  C   UNL     1       2.220   2.004  18.296  0.00  0.00    +0.000 C 
ATOM     15  C   UNL     1       1.455   1.840  19.613  0.00  0.00    +0.000 C 
ATOM     16  C   UNL     1       2.074   2.694  20.723  0.00  0.00    +0.000 C 
ATOM     17  C   UNL     1       1.281   2.549  22.020  0.00  0.00    +0.000 C 
ATOM     18  C   UNL     1       2.125   4.162  20.293  0.00  0.00    +0.000 C 
ATOM     19  N   UNL     1       2.856   4.327  19.000  0.00  0.00    +0.000 NA
ATOM     20  C   UNL     1       2.289   3.486  17.902  0.00  0.00    +0.000 C 
ENDBRANCH   1  19
TORSDOF 2
ENDMDL
MODEL 8
REMARK VINA RESULT:      -7.1      1.759      5.371
REMARK  Name = 
REMARK  4 active torsions:
REMARK  status: ('A' for Active; 'I' for Inactive)
REMARK    1  A    between atoms: C_1  and  C_2
REMARK    2  A    between atoms: C_4  and  C_5
REMARK    3  A    between atoms: N_7  and  S_8
REMARK    4  A    between atoms: S_8  and  C_11
REMARK                            x       y       z     vdW  Elec       q    Type
REMARK                         _______ _______ _______ _____ _____    ______ ____
ROOT
ATOM      1  S   UNL     1       3.351   3.204  17.441  0.00  0.00    +0.000 S 
ATOM      2  O   UNL     1       2.352   3.303  16.400  0.00  0.00    +0.000 OA
ATOM      3  O   UNL     1       3.811   1.907  17.897  0.00  0.00    +0.000 OA
ENDROOT
BRANCH   1   4
ATOM      4  C   UNL     1       2.743   4.068  18.835  0.00  0.00    +0.000 A 
ATOM      5  C   UNL     1       2.246   5.389  18.726  0.00  0.00    +0.000 A 
ATOM      6  C   UNL     1       1.754   6.114  19.842  0.00  0.00    +0.000 A 
ATOM      7  C   UNL     1       1.717   5.582  21.144  0.00  0.00    +0.000 A 
ATOM      8  C   UNL     1       2.208   4.268  21.262  0.00  0.00    +0.000 A 
ATOM      9  N   UNL     1       2.298   3.501  22.353  0.00  0.00    +0.000 NA
ATOM     10  O   UNL     1       2.845   2.303  21.928  0.00  0.00    +0.000 OA
ATOM     11  N   UNL     1       3.095   2.307  20.569  0.00  0.00    +0.000 NA
ATOM     12  C   UNL     1       2.718   3.512  20.120  0.00  0.00    +0.000 A 
ENDBRANCH   1   4
BRANCH   1  19
ATOM     13  C   UNL     1       6.310   5.392  14.593  0.00  0.00    +0.000 C 
ATOM     14  C   UNL     1       6.738   4.187  15.438  0.00  0.00    +0.000 C 
ATOM     15  C   UNL     1       7.608   4.606  16.627  0.00  0.00    +0.000 C 
ATOM     16  C   UNL     1       6.787   5.364  17.674  0.00  0.00    +0.000 C 
ATOM     17  C   UNL     1       7.658   5.744  18.870  0.00  0.00    +0.000 C 
ATOM     18  C   UNL     1       5.600   4.514  18.131  0.00  0.00    +0.000 C 
ATOM     19  N   UNL     1       4.756   4.089  16.973  0.00  0.00    +0.000 NA
ATOM     20  C   UNL     1       5.535   3.366  15.922  0.00  0.00    +0.000 C 
ENDBRANCH   1  19
TORSDOF 2
ENDMDL
MODEL 9
REMARK VINA RESULT:      -7.1      1.792      5.414
REMARK  Name = 
REMARK  4 active torsions:
REMARK  status: ('A' for Active; 'I' for Inactive)
REMARK    1  A    between atoms: C_1  and  C_2
REMARK    2  A    between atoms: C_4  and  C_5
REMARK    3  A    between atoms: N_7  and  S_8
REMARK    4  A    between atoms: S_8  and  C_11
REMARK                            x       y       z     vdW  Elec       q    Type
REMARK                         _______ _______ _______ _____ _____    ______ ____
ROOT
ATOM      1  S   UNL     1       3.392   3.045  17.513  0.00  0.00    +0.000 S 
ATOM      2  O   UNL     1       2.250   3.206  16.639  0.00  0.00    +0.000 OA
ATOM      3  O   UNL     1       4.116   1.789  17.550  0.00  0.00    +0.000 OA
ENDROOT
BRANCH   1   4
ATOM      4  C   UNL     1       2.859   3.395  19.141  0.00  0.00    +0.000 A 
ATOM      5  C   UNL     1       2.813   2.390  20.136  0.00  0.00    +0.000 A 
ATOM      6  C   UNL     1       2.379   2.646  21.462  0.00  0.00    +0.000 A 
ATOM      7  C   UNL     1       1.961   3.918  21.898  0.00  0.00    +0.000 A 
ATOM      8  C   UNL     1       2.004   4.925  20.915  0.00  0.00    +0.000 A 
ATOM      9  N   UNL     1       1.678   6.217  21.023  0.00  0.00    +0.000 NA
ATOM     10  O   UNL     1       1.902   6.769  19.774  0.00  0.00    +0.000 OA
ATOM     11  N   UNL     1       2.378   5.831  18.877  0.00  0.00    +0.000 NA
ATOM     12  C   UNL     1       2.449   4.672  19.546  0.00  0.00    +0.000 A 
ENDBRANCH   1   4
BRANCH   1  19
ATOM     13  C   UNL     1       5.319   6.648  15.287  0.00  0.00    +0.000 C 
ATOM     14  C   UNL     1       6.044   5.306  15.439  0.00  0.00    +0.000 C 
ATOM     15  C   UNL     1       7.165   5.379  16.480  0.00  0.00    +0.000 C 
ATOM     16  C   UNL     1       6.597   5.516  17.896  0.00  0.00    +0.000 C 
ATOM     17  C   UNL     1       7.723   5.550  18.927  0.00  0.00    +0.000 C 
ATOM     18  C   UNL     1       5.640   4.360  18.195  0.00  0.00    +0.000 C 
ATOM     19  N   UNL     1       4.553   4.274  17.173  0.00  0.00    +0.000 NA
ATOM     20  C   UNL     1       5.077   4.164  15.777  0.00  0.00    +0.000 C 
ENDBRANCH   1  19
TORSDOF 2
ENDMDL
