MODEL 1
REMARK VINA RESULT:      -8.4      0.000      0.000
REMARK  Name = 
REMARK  5 active torsions:
REMARK  status: ('A' for Active; 'I' for Inactive)
REMARK    1  A    between atoms: C_1  and  C_2
REMARK    2  A    between atoms: C_5  and  C_6
REMARK    3  A    between atoms: C_7  and  C_8
REMARK    4  A    between atoms: C_14  and  C_15
REMARK    5  A    between atoms: N_24  and  C_25
REMARK                            x       y       z     vdW  Elec       q    Type
REMARK                         _______ _______ _______ _____ _____    ______ ____
ROOT
ATOM      1  C   UNL     1       5.028   6.181  17.532  0.00  0.00    +0.000 A 
ATOM      2  C   UNL     1       4.404   7.200  16.806  0.00  0.00    +0.000 A 
ATOM      3  C   UNL     1       3.317   7.912  17.333  0.00  0.00    +0.000 A 
ATOM      4  C   UNL     1       2.785   7.589  18.585  0.00  0.00    +0.000 A 
ATOM      5  C   UNL     1       3.366   6.540  19.300  0.00  0.00    +0.000 A 
ATOM      6  C   UNL     1       4.496   5.870  18.787  0.00  0.00    +0.000 A 
ATOM      7  C   UNL     1       2.726   6.073  20.582  0.00  0.00    +0.000 C 
ATOM      8  N   UNL     1       1.847   7.063  21.139  0.00  0.00    +0.000 N 
ATOM      9  C   UNL     1       1.180   7.989  20.408  0.00  0.00    +0.000 C 
ATOM     10  O   UNL     1       0.213   8.550  20.920  0.00  0.00    +0.000 OA
ATOM     11  N   UNL     1       1.663   8.267  19.141  0.00  0.00    +0.000 N 
ATOM     12  C   UNL     1       1.062   9.377  18.416  0.00  0.00    +0.000 C 
ATOM     13  H   UNL     1       1.406   6.859  22.024  0.00  0.00    +0.000 HD
ENDROOT
BRANCH   1  20
ATOM     14  C   UNL     1       5.456   4.644  14.585  0.00  0.00    +0.000 C 
ATOM     15  C   UNL     1       6.365   4.770  15.752  0.00  0.00    +0.000 A 
ATOM     16  N   UNL     1       7.572   4.198  15.683  0.00  0.00    +0.000 NA
ATOM     17  O   UNL     1       8.192   4.480  16.876  0.00  0.00    +0.000 OA
ATOM     18  C   UNL     1       7.366   5.214  17.667  0.00  0.00    +0.000 A 
ATOM     19  C   UNL     1       7.925   5.549  18.993  0.00  0.00    +0.000 C 
ATOM     20  C   UNL     1       6.172   5.443  17.002  0.00  0.00    +0.000 A 
ENDBRANCH   1  20
BRANCH   7  21
ATOM     21  C   UNL     1       1.994   4.745  20.427  0.00  0.00    +0.000 A 
ATOM     22  C   UNL     1       1.953   3.833  21.494  0.00  0.00    +0.000 A 
ATOM     23  C   UNL     1       1.291   2.609  21.352  0.00  0.00    +0.000 A 
ATOM     24  C   UNL     1       0.662   2.286  20.154  0.00  0.00    +0.000 A 
ATOM     25  C   UNL     1       0.683   3.185  19.092  0.00  0.00    +0.000 A 
ATOM     26  C   UNL     1       1.341   4.407  19.229  0.00  0.00    +0.000 A 
ENDBRANCH   7  21
TORSDOF 2
ENDMDL
MODEL 2
REMARK VINA RESULT:      -8.1      2.229      6.592
REMARK  Name = 
REMARK  5 active torsions:
REMARK  status: ('A' for Active; 'I' for Inactive)
REMARK    1  A    between atoms: C_1  and  C_2
REMARK    2  A    between atoms: C_5  and  C_6
REMARK    3  A    between atoms: C_7  and  C_8
REMARK    4  A    between atoms: C_14  and  C_15
REMARK    5  A    between atoms: N_24  and  C_25
REMARK                            x       y       z     vdW  Elec       q    Type
REMARK                         _______ _______ _______ _____ _____    ______ ____
ROOT
ATOM      1  C   UNL     1       1.906   7.075  20.121  0.00  0.00    +0.000 A 
ATOM      2  C   UNL     1       1.011   6.053  20.456  0.00  0.00    +0.000 A 
ATOM      3  C   UNL     1       1.414   4.711  20.487  0.00  0.00    +0.000 A 
ATOM      4  C   UNL     1       2.715   4.341  20.132  0.00  0.00    +0.000 A 
ATOM      5  C   UNL     1       3.605   5.345  19.747  0.00  0.00    +0.000 A 
ATOM      6  C   UNL     1       3.208   6.698  19.775  0.00  0.00    +0.000 A 
ATOM      7  C   UNL     1       4.965   4.967  19.219  0.00  0.00    +0.000 C 
ATOM      8  N   UNL     1       5.341   3.634  19.598  0.00  0.00    +0.000 N 
ATOM      9  C   UNL     1       4.460   2.632  19.833  0.00  0.00    +0.000 C 
ATOM     10  O   UNL     1       4.874   1.473  19.811  0.00  0.00    +0.000 OA
ATOM     11  N   UNL     1       3.153   2.987  20.122  0.00  0.00    +0.000 N 
ATOM     12  C   UNL     1       2.242   1.933  20.543  0.00  0.00    +0.000 C 
ATOM     13  H   UNL     1       6.257   3.306  19.329  0.00  0.00    +0.000 HD
ENDROOT
BRANCH   1  20
ATOM     14  C   UNL     1       0.833   9.073  22.587  0.00  0.00    +0.000 C 
ATOM     15  C   UNL     1       1.031   9.343  21.141  0.00  0.00    +0.000 A 
ATOM     16  N   UNL     1       0.756  10.566  20.677  0.00  0.00    +0.000 NA
ATOM     17  O   UNL     1       1.038  10.533  19.333  0.00  0.00    +0.000 OA
ATOM     18  C   UNL     1       1.478   9.296  18.981  0.00  0.00    +0.000 A 
ATOM     19  C   UNL     1       1.784   9.140  17.544  0.00  0.00    +0.000 C 
ATOM     20  C   UNL     1       1.504   8.479  20.100  0.00  0.00    +0.000 A 
ENDBRANCH   1  20
BRANCH   7  21
ATOM     21  C   UNL     1       5.081   5.138  17.709  0.00  0.00    +0.000 A 
ATOM     22  C   UNL     1       5.199   4.012  16.878  0.00  0.00    +0.000 A 
ATOM     23  C   UNL     1       5.317   4.166  15.492  0.00  0.00    +0.000 A 
ATOM     24  C   UNL     1       5.314   5.436  14.924  0.00  0.00    +0.000 A 
ATOM     25  C   UNL     1       5.185   6.560  15.733  0.00  0.00    +0.000 A 
ATOM     26  C   UNL     1       5.067   6.412  17.115  0.00  0.00    +0.000 A 
ENDBRANCH   7  21
TORSDOF 2
ENDMDL
MODEL 3
REMARK VINA RESULT:      -8.0      0.406      1.631
REMARK  Name = 
REMARK  5 active torsions:
REMARK  status: ('A' for Active; 'I' for Inactive)
REMARK    1  A    between atoms: C_1  and  C_2
REMARK    2  A    between atoms: C_5  and  C_6
REMARK    3  A    between atoms: C_7  and  C_8
REMARK    4  A    between atoms: C_14  and  C_15
REMARK    5  A    between atoms: N_24  and  C_25
REMARK                            x       y       z     vdW  Elec       q    Type
REMARK                         _______ _______ _______ _____ _____    ______ ____
ROOT
ATOM      1  C   UNL     1       5.093   6.109  17.615  0.00  0.00    +0.000 A 
ATOM      2  C   UNL     1       4.489   7.107  16.843  0.00  0.00    +0.000 A 
ATOM      3  C   UNL     1       3.394   7.838  17.323  0.00  0.00    +0.000 A 
ATOM      4  C   UNL     1       2.834   7.558  18.573  0.00  0.00    +0.000 A 
ATOM      5  C   UNL     1       3.395   6.531  19.334  0.00  0.00    +0.000 A 
ATOM      6  C   UNL     1       4.533   5.841  18.868  0.00  0.00    +0.000 A 
ATOM      7  C   UNL     1       2.725   6.108  20.616  0.00  0.00    +0.000 C 
ATOM      8  N   UNL     1       1.839   7.118  21.122  0.00  0.00    +0.000 N 
ATOM      9  C   UNL     1       1.192   8.022  20.347  0.00  0.00    +0.000 C 
ATOM     10  O   UNL     1       0.216   8.603  20.819  0.00  0.00    +0.000 OA
ATOM     11  N   UNL     1       1.703   8.258  19.082  0.00  0.00    +0.000 N 
ATOM     12  C   UNL     1       1.123   9.346  18.309  0.00  0.00    +0.000 C 
ATOM     13  H   UNL     1       1.378   6.944  22.003  0.00  0.00    +0.000 HD
ENDROOT
BRANCH   1  20
ATOM     14  C   UNL     1       8.008   5.392  19.104  0.00  0.00    +0.000 C 
ATOM     15  C   UNL     1       7.502   5.046  17.753  0.00  0.00    +0.000 A 
ATOM     16  N   UNL     1       8.287   4.330  16.942  0.00  0.00    +0.000 NA
ATOM     17  O   UNL     1       7.572   4.150  15.784  0.00  0.00    +0.000 OA
ATOM     18  C   UNL     1       6.360   4.757  15.888  0.00  0.00    +0.000 A 
ATOM     19  C   UNL     1       5.515   4.650  14.679  0.00  0.00    +0.000 C 
ATOM     20  C   UNL     1       6.245   5.350  17.134  0.00  0.00    +0.000 A 
ENDBRANCH   1  20
BRANCH   7  21
ATOM     21  C   UNL     1       1.991   4.778  20.489  0.00  0.00    +0.000 A 
ATOM     22  C   UNL     1       1.997   3.863  21.553  0.00  0.00    +0.000 A 
ATOM     23  C   UNL     1       1.334   2.637  21.436  0.00  0.00    +0.000 A 
ATOM     24  C   UNL     1       0.656   2.316  20.264  0.00  0.00    +0.000 A 
ATOM     25  C   UNL     1       0.629   3.218  19.205  0.00  0.00    +0.000 A 
ATOM     26  C   UNL     1       1.289   4.442  19.317  0.00  0.00    +0.000 A 
ENDBRANCH   7  21
TORSDOF 2
ENDMDL
MODEL 4
REMARK VINA RESULT:      -8.0      2.192      6.438
REMARK  Name = 
REMARK  5 active torsions:
REMARK  status: ('A' for Active; 'I' for Inactive)
REMARK    1  A    between atoms: C_1  and  C_2
REMARK    2  A    between atoms: C_5  and  C_6
REMARK    3  A    between atoms: C_7  and  C_8
REMARK    4  A    between atoms: C_14  and  C_15
REMARK    5  A    between atoms: N_24  and  C_25
REMARK                            x       y       z     vdW  Elec       q    Type
REMARK                         _______ _______ _______ _____ _____    ______ ____
ROOT
ATOM      1  C   UNL     1       1.903   7.100  20.098  0.00  0.00    +0.000 A 
ATOM      2  C   UNL     1       1.014   6.079  20.450  0.00  0.00    +0.000 A 
ATOM      3  C   UNL     1       1.423   4.740  20.500  0.00  0.00    +0.000 A 
ATOM      4  C   UNL     1       2.725   4.371  20.148  0.00  0.00    +0.000 A 
ATOM      5  C   UNL     1       3.610   5.373  19.747  0.00  0.00    +0.000 A 
ATOM      6  C   UNL     1       3.206   6.724  19.756  0.00  0.00    +0.000 A 
ATOM      7  C   UNL     1       4.971   4.994  19.222  0.00  0.00    +0.000 C 
ATOM      8  N   UNL     1       5.353   3.668  19.620  0.00  0.00    +0.000 N 
ATOM      9  C   UNL     1       4.478   2.665  19.871  0.00  0.00    +0.000 C 
ATOM     10  O   UNL     1       4.897   1.509  19.865  0.00  0.00    +0.000 OA
ATOM     11  N   UNL     1       3.170   3.019  20.157  0.00  0.00    +0.000 N 
ATOM     12  C   UNL     1       2.264   1.967  20.594  0.00  0.00    +0.000 C 
ATOM     13  H   UNL     1       6.271   3.341  19.354  0.00  0.00    +0.000 HD
ENDROOT
BRANCH   1  20
ATOM     14  C   UNL     1       1.799   9.267  17.545  0.00  0.00    +0.000 C 
ATOM     15  C   UNL     1       1.457   9.444  18.978  0.00  0.00    +0.000 A 
ATOM     16  N   UNL     1       1.029  10.642  19.387  0.00  0.00    +0.000 NA
ATOM     17  O   UNL     1       0.780  10.516  20.732  0.00  0.00    +0.000 OA
ATOM     18  C   UNL     1       1.059   9.249  21.139  0.00  0.00    +0.000 A 
ATOM     19  C   UNL     1       0.852   9.010  22.583  0.00  0.00    +0.000 C 
ATOM     20  C   UNL     1       1.495   8.502  20.057  0.00  0.00    +0.000 A 
ENDBRANCH   1  20
BRANCH   7  21
ATOM     21  C   UNL     1       5.084   5.143  17.709  0.00  0.00    +0.000 A 
ATOM     22  C   UNL     1       5.179   4.005  16.893  0.00  0.00    +0.000 A 
ATOM     23  C   UNL     1       5.295   4.138  15.505  0.00  0.00    +0.000 A 
ATOM     24  C   UNL     1       5.310   5.401  14.920  0.00  0.00    +0.000 A 
ATOM     25  C   UNL     1       5.203   6.538  15.715  0.00  0.00    +0.000 A 
ATOM     26  C   UNL     1       5.088   6.410  17.099  0.00  0.00    +0.000 A 
ENDBRANCH   7  21
TORSDOF 2
ENDMDL
MODEL 5
REMARK VINA RESULT:      -7.9      1.007      1.035
REMARK  Name = 
REMARK  5 active torsions:
REMARK  status: ('A' for Active; 'I' for Inactive)
REMARK    1  A    between atoms: C_1  and  C_2
REMARK    2  A    between atoms: C_5  and  C_6
REMARK    3  A    between atoms: C_7  and  C_8
REMARK    4  A    between atoms: C_14  and  C_15
REMARK    5  A    between atoms: N_24  and  C_25
REMARK                            x       y       z     vdW  Elec       q    Type
REMARK                         _______ _______ _______ _____ _____    ______ ____
ROOT
ATOM      1  C   UNL     1       4.606   6.955  17.442  0.00  0.00    +0.000 A 
ATOM      2  C   UNL     1       3.841   8.022  16.961  0.00  0.00    +0.000 A 
ATOM      3  C   UNL     1       2.743   8.516  17.678  0.00  0.00    +0.000 A 
ATOM      4  C   UNL     1       2.341   7.921  18.878  0.00  0.00    +0.000 A 
ATOM      5  C   UNL     1       3.064   6.822  19.346  0.00  0.00    +0.000 A 
ATOM      6  C   UNL     1       4.202   6.370  18.647  0.00  0.00    +0.000 A 
ATOM      7  C   UNL     1       2.569   6.069  20.554  0.00  0.00    +0.000 C 
ATOM      8  N   UNL     1       1.657   6.850  21.341  0.00  0.00    +0.000 N 
ATOM      9  C   UNL     1       0.857   7.823  20.840  0.00  0.00    +0.000 C 
ATOM     10  O   UNL     1      -0.111   8.184  21.507  0.00  0.00    +0.000 OA
ATOM     11  N   UNL     1       1.213   8.373  19.620  0.00  0.00    +0.000 N 
ATOM     12  C   UNL     1       0.464   9.531  19.155  0.00  0.00    +0.000 C 
ATOM     13  H   UNL     1       1.305   6.446  22.197  0.00  0.00    +0.000 HD
ENDROOT
BRANCH   1  20
ATOM     14  C   UNL     1       4.855   4.440  15.242  0.00  0.00    +0.000 C 
ATOM     15  C   UNL     1       5.888   5.360  15.781  0.00  0.00    +0.000 A 
ATOM     16  N   UNL     1       7.149   5.218  15.361  0.00  0.00    +0.000 NA
ATOM     17  O   UNL     1       7.874   6.192  16.002  0.00  0.00    +0.000 OA
ATOM     18  C   UNL     1       7.058   6.920  16.811  0.00  0.00    +0.000 A 
ATOM     19  C   UNL     1       7.745   7.982  17.576  0.00  0.00    +0.000 C 
ATOM     20  C   UNL     1       5.763   6.441  16.713  0.00  0.00    +0.000 A 
ENDBRANCH   1  20
BRANCH   7  21
ATOM     21  C   UNL     1       1.943   4.726  20.198  0.00  0.00    +0.000 A 
ATOM     22  C   UNL     1       1.739   3.757  21.193  0.00  0.00    +0.000 A 
ATOM     23  C   UNL     1       1.174   2.518  20.869  0.00  0.00    +0.000 A 
ATOM     24  C   UNL     1       0.804   2.239  19.557  0.00  0.00    +0.000 A 
ATOM     25  C   UNL     1       0.989   3.194  18.562  0.00  0.00    +0.000 A 
ATOM     26  C   UNL     1       1.550   4.430  18.881  0.00  0.00    +0.000 A 
ENDBRANCH   7  21
TORSDOF 2
ENDMDL
MODEL 6
REMARK VINA RESULT:      -7.3      1.103      1.791
REMARK  Name = 
REMARK  5 active torsions:
REMARK  status: ('A' for Active; 'I' for Inactive)
REMARK    1  A    between atoms: C_1  and  C_2
REMARK    2  A    between atoms: C_5  and  C_6
REMARK    3  A    between atoms: C_7  and  C_8
REMARK    4  A    between atoms: C_14  and  C_15
REMARK    5  A    between atoms: N_24  and  C_25
REMARK                            x       y       z     vdW  Elec       q    Type
REMARK                         _______ _______ _______ _____ _____    ______ ____
ROOT
ATOM      1  C   UNL     1       4.600   7.020  17.531  0.00  0.00    +0.000 A 
ATOM      2  C   UNL     1       3.831   8.079  17.039  0.00  0.00    +0.000 A 
ATOM      3  C   UNL     1       2.711   8.554  17.735  0.00  0.00    +0.000 A 
ATOM      4  C   UNL     1       2.291   7.946  18.923  0.00  0.00    +0.000 A 
ATOM      5  C   UNL     1       3.020   6.855  19.400  0.00  0.00    +0.000 A 
ATOM      6  C   UNL     1       4.179   6.423  18.724  0.00  0.00    +0.000 A 
ATOM      7  C   UNL     1       2.510   6.089  20.593  0.00  0.00    +0.000 C 
ATOM      8  N   UNL     1       1.570   6.853  21.365  0.00  0.00    +0.000 N 
ATOM      9  C   UNL     1       0.768   7.818  20.852  0.00  0.00    +0.000 C 
ATOM     10  O   UNL     1      -0.219   8.162  21.500  0.00  0.00    +0.000 OA
ATOM     11  N   UNL     1       1.142   8.379  19.643  0.00  0.00    +0.000 N 
ATOM     12  C   UNL     1       0.387   9.529  19.168  0.00  0.00    +0.000 C 
ATOM     13  H   UNL     1       1.207   6.440  22.212  0.00  0.00    +0.000 HD
ENDROOT
BRANCH   1  20
ATOM     14  C   UNL     1       7.777   8.082  17.581  0.00  0.00    +0.000 C 
ATOM     15  C   UNL     1       7.139   6.976  16.825  0.00  0.00    +0.000 A 
ATOM     16  N   UNL     1       7.900   6.240  16.009  0.00  0.00    +0.000 NA
ATOM     17  O   UNL     1       7.065   5.299  15.458  0.00  0.00    +0.000 OA
ATOM     18  C   UNL     1       5.802   5.465  15.933  0.00  0.00    +0.000 A 
ATOM     19  C   UNL     1       4.811   4.518  15.380  0.00  0.00    +0.000 C 
ATOM     20  C   UNL     1       5.779   6.526  16.824  0.00  0.00    +0.000 A 
ENDBRANCH   1  20
BRANCH   7  21
ATOM     21  C   UNL     1       1.910   4.739  20.218  0.00  0.00    +0.000 A 
ATOM     22  C   UNL     1       1.726   3.751  21.198  0.00  0.00    +0.000 A 
ATOM     23  C   UNL     1       1.186   2.507  20.855  0.00  0.00    +0.000 A 
ATOM     24  C   UNL     1       0.821   2.240  19.539  0.00  0.00    +0.000 A 
ATOM     25  C   UNL     1       0.985   3.214  18.559  0.00  0.00    +0.000 A 
ATOM     26  C   UNL     1       1.523   4.456  18.896  0.00  0.00    +0.000 A 
ENDBRANCH   7  21
TORSDOF 2
ENDMDL
MODEL 7
REMARK VINA RESULT:      -7.3      5.531     10.475
REMARK  Name = 
REMARK  5 active torsions:
REMARK  status: ('A' for Active; 'I' for Inactive)
REMARK    1  A    between atoms: C_1  and  C_2
REMARK    2  A    between atoms: C_5  and  C_6
REMARK    3  A    between atoms: C_7  and  C_8
REMARK    4  A    between atoms: C_14  and  C_15
REMARK    5  A    between atoms: N_24  and  C_25
REMARK                            x       y       z     vdW  Elec       q    Type
REMARK                         _______ _______ _______ _____ _____    ______ ____
ROOT
ATOM      1  C   UNL     1      -1.960  12.380  22.355  0.00  0.00    +0.000 A 
ATOM      2  C   UNL     1      -1.459  11.299  23.086  0.00  0.00    +0.000 A 
ATOM      3  C   UNL     1      -0.590  10.365  22.506  0.00  0.00    +0.000 A 
ATOM      4  C   UNL     1      -0.236  10.453  21.156  0.00  0.00    +0.000 A 
ATOM      5  C   UNL     1      -0.769  11.498  20.400  0.00  0.00    +0.000 A 
ATOM      6  C   UNL     1      -1.595  12.466  21.007  0.00  0.00    +0.000 A 
ATOM      7  C   UNL     1      -0.526  11.536  18.913  0.00  0.00    +0.000 C 
ATOM      8  N   UNL     1       0.601  10.733  18.529  0.00  0.00    +0.000 N 
ATOM      9  C   UNL     1       1.019   9.634  19.204  0.00  0.00    +0.000 C 
ATOM     10  O   UNL     1       1.753   8.836  18.622  0.00  0.00    +0.000 OA
ATOM     11  N   UNL     1       0.619   9.507  20.523  0.00  0.00    +0.000 N 
ATOM     12  C   UNL     1       1.199   8.426  21.305  0.00  0.00    +0.000 C 
ATOM     13  H   UNL     1       0.871  10.731  17.556  0.00  0.00    +0.000 HD
ENDROOT
BRANCH   1  20
ATOM     14  C   UNL     1      -1.336  14.852  24.529  0.00  0.00    +0.000 C 
ATOM     15  C   UNL     1      -2.605  14.424  23.890  0.00  0.00    +0.000 A 
ATOM     16  N   UNL     1      -3.725  15.091  24.187  0.00  0.00    +0.000 NA
ATOM     17  O   UNL     1      -4.725  14.497  23.456  0.00  0.00    +0.000 OA
ATOM     18  C   UNL     1      -4.217  13.471  22.723  0.00  0.00    +0.000 A 
ATOM     19  C   UNL     1      -5.217  12.739  21.918  0.00  0.00    +0.000 C 
ATOM     20  C   UNL     1      -2.854  13.371  22.951  0.00  0.00    +0.000 A 
ENDBRANCH   1  20
BRANCH   7  21
ATOM     21  C   UNL     1      -1.755  11.142  18.103  0.00  0.00    +0.000 A 
ATOM     22  C   UNL     1      -1.667  10.129  17.134  0.00  0.00    +0.000 A 
ATOM     23  C   UNL     1      -2.791   9.773  16.380  0.00  0.00    +0.000 A 
ATOM     24  C   UNL     1      -4.007  10.415  16.588  0.00  0.00    +0.000 A 
ATOM     25  C   UNL     1      -4.113  11.412  17.553  0.00  0.00    +0.000 A 
ATOM     26  C   UNL     1      -2.996  11.770  18.307  0.00  0.00    +0.000 A 
ENDBRANCH   7  21
TORSDOF 2
ENDMDL
MODEL 8
REMARK VINA RESULT:      -7.3      5.538     10.368
REMARK  Name = 
REMARK  5 active torsions:
REMARK  status: ('A' for Active; 'I' for Inactive)
REMARK    1  A    between atoms: C_1  and  C_2
REMARK    2  A    between atoms: C_5  and  C_6
REMARK    3  A    between atoms: C_7  and  C_8
REMARK    4  A    between atoms: C_14  and  C_15
REMARK    5  A    between atoms: N_24  and  C_25
REMARK                            x       y       z     vdW  Elec       q    Type
REMARK                         _______ _______ _______ _____ _____    ______ ____
ROOT
ATOM      1  C   UNL     1      -1.997  12.353  22.356  0.00  0.00    +0.000 A 
ATOM      2  C   UNL     1      -1.486  11.274  23.084  0.00  0.00    +0.000 A 
ATOM      3  C   UNL     1      -0.602  10.354  22.503  0.00  0.00    +0.000 A 
ATOM      4  C   UNL     1      -0.242  10.454  21.156  0.00  0.00    +0.000 A 
ATOM      5  C   UNL     1      -0.785  11.497  20.403  0.00  0.00    +0.000 A 
ATOM      6  C   UNL     1      -1.626  12.451  21.011  0.00  0.00    +0.000 A 
ATOM      7  C   UNL     1      -0.534  11.547  18.917  0.00  0.00    +0.000 C 
ATOM      8  N   UNL     1       0.605  10.760  18.535  0.00  0.00    +0.000 N 
ATOM      9  C   UNL     1       1.033   9.663  19.205  0.00  0.00    +0.000 C 
ATOM     10  O   UNL     1       1.780   8.878  18.623  0.00  0.00    +0.000 OA
ATOM     11  N   UNL     1       0.627   9.523  20.521  0.00  0.00    +0.000 N 
ATOM     12  C   UNL     1       1.217   8.444  21.300  0.00  0.00    +0.000 C 
ATOM     13  H   UNL     1       0.879  10.767  17.563  0.00  0.00    +0.000 HD
ENDROOT
BRANCH   1  20
ATOM     14  C   UNL     1      -5.302  12.766  21.984  0.00  0.00    +0.000 C 
ATOM     15  C   UNL     1      -4.317  13.526  22.794  0.00  0.00    +0.000 A 
ATOM     16  N   UNL     1      -4.752  14.559  23.522  0.00  0.00    +0.000 NA
ATOM     17  O   UNL     1      -3.648  15.059  24.168  0.00  0.00    +0.000 OA
ATOM     18  C   UNL     1      -2.547  14.337  23.832  0.00  0.00    +0.000 A 
ATOM     19  C   UNL     1      -1.291  14.810  24.451  0.00  0.00    +0.000 C 
ATOM     20  C   UNL     1      -2.906  13.328  22.953  0.00  0.00    +0.000 A 
ENDBRANCH   1  20
BRANCH   7  21
ATOM     21  C   UNL     1      -1.754  11.142  18.098  0.00  0.00    +0.000 A 
ATOM     22  C   UNL     1      -1.660  10.105  17.157  0.00  0.00    +0.000 A 
ATOM     23  C   UNL     1      -2.774   9.739  16.395  0.00  0.00    +0.000 A 
ATOM     24  C   UNL     1      -3.989  10.395  16.568  0.00  0.00    +0.000 A 
ATOM     25  C   UNL     1      -4.101  11.416  17.506  0.00  0.00    +0.000 A 
ATOM     26  C   UNL     1      -2.993  11.785  18.268  0.00  0.00    +0.000 A 
ENDBRANCH   7  21
TORSDOF 2
ENDMDL
MODEL 9
REMARK VINA RESULT:      -7.0      2.200      3.985
REMARK  Name = 
REMARK  5 active torsions:
REMARK  status: ('A' for Active; 'I' for Inactive)
REMARK    1  A    between atoms: C_1  and  C_2
REMARK    2  A    between atoms: C_5  and  C_6
REMARK    3  A    between atoms: C_7  and  C_8
REMARK    4  A    between atoms: C_14  and  C_15
REMARK    5  A    between atoms: N_24  and  C_25
REMARK                            x       y       z     vdW  Elec       q    Type
REMARK                         _______ _______ _______ _____ _____    ______ ____
ROOT
ATOM      1  C   UNL     1       5.474   4.563  17.463  0.00  0.00    +0.000 A 
ATOM      2  C   UNL     1       5.959   3.717  18.466  0.00  0.00    +0.000 A 
ATOM      3  C   UNL     1       5.108   3.179  19.441  0.00  0.00    +0.000 A 
ATOM      4  C   UNL     1       3.751   3.513  19.476  0.00  0.00    +0.000 A 
ATOM      5  C   UNL     1       3.263   4.396  18.512  0.00  0.00    +0.000 A 
ATOM      6  C   UNL     1       4.114   4.886  17.500  0.00  0.00    +0.000 A 
ATOM      7  C   UNL     1       1.842   4.890  18.610  0.00  0.00    +0.000 C 
ATOM      8  N   UNL     1       1.031   4.039  19.434  0.00  0.00    +0.000 N 
ATOM      9  C   UNL     1       1.506   3.293  20.461  0.00  0.00    +0.000 C 
ATOM     10  O   UNL     1       0.708   2.881  21.302  0.00  0.00    +0.000 OA
ATOM     11  N   UNL     1       2.862   3.012  20.468  0.00  0.00    +0.000 N 
ATOM     12  C   UNL     1       3.353   2.073  21.466  0.00  0.00    +0.000 C 
ATOM     13  H   UNL     1       0.050   4.264  19.524  0.00  0.00    +0.000 HD
ENDROOT
BRANCH   1  20
ATOM     14  C   UNL     1       5.954   3.631  14.280  0.00  0.00    +0.000 C 
ATOM     15  C   UNL     1       6.572   4.724  15.072  0.00  0.00    +0.000 A 
ATOM     16  N   UNL     1       7.479   5.506  14.478  0.00  0.00    +0.000 NA
ATOM     17  O   UNL     1       7.866   6.422  15.425  0.00  0.00    +0.000 OA
ATOM     18  C   UNL     1       7.202   6.196  16.589  0.00  0.00    +0.000 A 
ATOM     19  C   UNL     1       7.567   7.111  17.690  0.00  0.00    +0.000 C 
ATOM     20  C   UNL     1       6.346   5.119  16.431  0.00  0.00    +0.000 A 
ENDBRANCH   1  20
BRANCH   7  21
ATOM     21  C   UNL     1       1.750   6.333  19.091  0.00  0.00    +0.000 A 
ATOM     22  C   UNL     1       1.518   6.613  20.447  0.00  0.00    +0.000 A 
ATOM     23  C   UNL     1       1.421   7.936  20.890  0.00  0.00    +0.000 A 
ATOM     24  C   UNL     1       1.560   8.989  19.990  0.00  0.00    +0.000 A 
ATOM     25  C   UNL     1       1.803   8.728  18.646  0.00  0.00    +0.000 A 
ATOM     26  C   UNL     1       1.901   7.410  18.199  0.00  0.00    +0.000 A 
ENDBRANCH   7  21
TORSDOF 2
ENDMDL
