MODEL 1
REMARK VINA RESULT:      -8.2      0.000      0.000
REMARK  Name = 
REMARK  4 active torsions:
REMARK  status: ('A' for Active; 'I' for Inactive)
REMARK    1  A    between atoms: C_2  and  C_3
REMARK    2  A    between atoms: C_3  and  C_4
REMARK    3  A    between atoms: N_13  and  N_14
REMARK    4  A    between atoms: C_19  and  C_20
REMARK                            x       y       z     vdW  Elec       q    Type
REMARK                         _______ _______ _______ _____ _____    ______ ____
ROOT
ATOM      1  O   UNL     1       1.826   6.443  17.463  0.00  0.00    +0.000 OA
ATOM      2  C   UNL     1       2.457   6.982  18.372  0.00  0.00    +0.000 C 
ATOM      3  N   UNL     1       3.248   6.301  19.287  0.00  0.00    +0.000 N 
ATOM      4  H   UNL     1       3.610   6.831  20.084  0.00  0.00    +0.000 HD
ENDROOT
BRANCH   3   5
ATOM      5  N   UNL     1       3.210   4.879  19.405  0.00  0.00    +0.000 N 
ATOM      6  C   UNL     1       2.294   4.304  20.297  0.00  0.00    +0.000 C 
ATOM      7  O   UNL     1       1.330   4.861  20.812  0.00  0.00    +0.000 OA
ATOM      8  C   UNL     1       2.648   2.867  20.621  0.00  0.00    +0.000 C 
ATOM      9  S   UNL     1       4.292   2.535  19.960  0.00  0.00    +0.000 S 
ATOM     10  C   UNL     1       4.516   4.237  19.383  0.00  0.00    +0.000 C 
BRANCH  10  11
ATOM     11  C   UNL     1       5.265   4.351  18.079  0.00  0.00    +0.000 A 
ATOM     12  C   UNL     1       4.691   3.904  16.880  0.00  0.00    +0.000 A 
ATOM     13  F   UNL     1       3.471   3.347  16.880  0.00  0.00    +0.000 F 
ATOM     14  C   UNL     1       5.351   4.008  15.655  0.00  0.00    +0.000 A 
ATOM     15  C   UNL     1       6.613   4.586  15.594  0.00  0.00    +0.000 A 
ATOM     16  C   UNL     1       7.213   5.038  16.767  0.00  0.00    +0.000 A 
ATOM     17  C   UNL     1       6.549   4.918  17.997  0.00  0.00    +0.000 A 
ATOM     18 CL   UNL     1       7.395   5.502  19.388  0.00  0.00    +0.000 Cl
ENDBRANCH  10  11
ENDBRANCH   3   5
BRANCH   2  19
ATOM     19  C   UNL     1       2.558   8.504  18.441  0.00  0.00    +0.000 C 
BRANCH  19  20
ATOM     20  C   UNL     1       1.333   9.248  18.903  0.00  0.00    +0.000 A 
ATOM     21  N   UNL     1       0.505   9.750  17.981  0.00  0.00    +0.000 NA
ATOM     22  S   UNL     1      -0.776  10.472  18.732  0.00  0.00    +0.000 S 
ATOM     23  C   UNL     1      -0.306  10.089  20.339  0.00  0.00    +0.000 A 
ATOM     24  C   UNL     1      -0.955  10.380  21.548  0.00  0.00    +0.000 A 
ATOM     25  C   UNL     1      -0.372   9.940  22.740  0.00  0.00    +0.000 A 
ATOM     26  C   UNL     1       0.824   9.232  22.725  0.00  0.00    +0.000 A 
ATOM     27  C   UNL     1       1.465   8.953  21.514  0.00  0.00    +0.000 A 
ATOM     28  C   UNL     1       0.905   9.389  20.285  0.00  0.00    +0.000 A 
ENDBRANCH  19  20
ENDBRANCH   2  19
TORSDOF 4
ENDMDL
MODEL 2
REMARK VINA RESULT:      -8.1      1.271      1.747
REMARK  Name = 
REMARK  4 active torsions:
REMARK  status: ('A' for Active; 'I' for Inactive)
REMARK    1  A    between atoms: C_2  and  C_3
REMARK    2  A    between atoms: C_3  and  C_4
REMARK    3  A    between atoms: N_13  and  N_14
REMARK    4  A    between atoms: C_19  and  C_20
REMARK                            x       y       z     vdW  Elec       q    Type
REMARK                         _______ _______ _______ _____ _____    ______ ____
ROOT
ATOM      1  O   UNL     1       1.818   6.207  17.491  0.00  0.00    +0.000 OA
ATOM      2  C   UNL     1       2.305   6.757  18.479  0.00  0.00    +0.000 C 
ATOM      3  N   UNL     1       3.069   6.108  19.440  0.00  0.00    +0.000 N 
ATOM      4  H   UNL     1       3.301   6.628  20.289  0.00  0.00    +0.000 HD
ENDROOT
BRANCH   3   5
ATOM      5  N   UNL     1       3.159   4.684  19.496  0.00  0.00    +0.000 N 
ATOM      6  C   UNL     1       2.314   3.992  20.374  0.00  0.00    +0.000 C 
ATOM      7  O   UNL     1       1.314   4.439  20.928  0.00  0.00    +0.000 OA
ATOM      8  C   UNL     1       2.799   2.580  20.630  0.00  0.00    +0.000 C 
ATOM      9  S   UNL     1       4.453   2.424  19.931  0.00  0.00    +0.000 S 
ATOM     10  C   UNL     1       4.516   4.162  19.426  0.00  0.00    +0.000 C 
BRANCH  10  11
ATOM     11  C   UNL     1       5.227   4.397  18.117  0.00  0.00    +0.000 A 
ATOM     12  C   UNL     1       4.653   3.989  16.904  0.00  0.00    +0.000 A 
ATOM     13  F   UNL     1       3.468   3.361  16.894  0.00  0.00    +0.000 F 
ATOM     14  C   UNL     1       5.279   4.205  15.675  0.00  0.00    +0.000 A 
ATOM     15  C   UNL     1       6.503   4.859  15.626  0.00  0.00    +0.000 A 
ATOM     16  C   UNL     1       7.102   5.275  16.813  0.00  0.00    +0.000 A 
ATOM     17  C   UNL     1       6.474   5.043  18.045  0.00  0.00    +0.000 A 
ATOM     18 CL   UNL     1       7.316   5.593  19.453  0.00  0.00    +0.000 Cl
ENDBRANCH  10  11
ENDBRANCH   3   5
BRANCH   2  19
ATOM     19  C   UNL     1       2.251   8.276  18.620  0.00  0.00    +0.000 C 
BRANCH  19  20
ATOM     20  C   UNL     1       1.420   8.826  19.750  0.00  0.00    +0.000 A 
ATOM     21  N   UNL     1       1.534   8.266  20.959  0.00  0.00    +0.000 NA
ATOM     22  S   UNL     1       0.564   9.070  22.027  0.00  0.00    +0.000 S 
ATOM     23  C   UNL     1      -0.011  10.252  20.921  0.00  0.00    +0.000 A 
ATOM     24  C   UNL     1      -0.893  11.320  21.143  0.00  0.00    +0.000 A 
ATOM     25  C   UNL     1      -1.198  12.165  20.072  0.00  0.00    +0.000 A 
ATOM     26  C   UNL     1      -0.640  11.949  18.818  0.00  0.00    +0.000 A 
ATOM     27  C   UNL     1       0.233  10.878  18.607  0.00  0.00    +0.000 A 
ATOM     28  C   UNL     1       0.561   9.996  19.670  0.00  0.00    +0.000 A 
ENDBRANCH  19  20
ENDBRANCH   2  19
TORSDOF 4
ENDMDL
MODEL 3
REMARK VINA RESULT:      -8.1      1.406      1.681
REMARK  Name = 
REMARK  4 active torsions:
REMARK  status: ('A' for Active; 'I' for Inactive)
REMARK    1  A    between atoms: C_2  and  C_3
REMARK    2  A    between atoms: C_3  and  C_4
REMARK    3  A    between atoms: N_13  and  N_14
REMARK    4  A    between atoms: C_19  and  C_20
REMARK                            x       y       z     vdW  Elec       q    Type
REMARK                         _______ _______ _______ _____ _____    ______ ____
ROOT
ATOM      1  O   UNL     1       1.818   6.400  17.490  0.00  0.00    +0.000 OA
ATOM      2  C   UNL     1       2.431   6.960  18.400  0.00  0.00    +0.000 C 
ATOM      3  N   UNL     1       3.195   6.299  19.352  0.00  0.00    +0.000 N 
ATOM      4  H   UNL     1       3.541   6.847  20.143  0.00  0.00    +0.000 HD
ENDROOT
BRANCH   3   5
ATOM      5  N   UNL     1       3.146   4.880  19.506  0.00  0.00    +0.000 N 
ATOM      6  C   UNL     1       2.226   4.335  20.412  0.00  0.00    +0.000 C 
ATOM      7  O   UNL     1       1.266   4.913  20.913  0.00  0.00    +0.000 OA
ATOM      8  C   UNL     1       2.568   2.905  20.773  0.00  0.00    +0.000 C 
ATOM      9  S   UNL     1       4.210   2.543  20.121  0.00  0.00    +0.000 S 
ATOM     10  C   UNL     1       4.448   4.228  19.500  0.00  0.00    +0.000 C 
BRANCH  10  11
ATOM     11  C   UNL     1       5.196   4.302  18.194  0.00  0.00    +0.000 A 
ATOM     12  C   UNL     1       6.512   4.787  18.146  0.00  0.00    +0.000 A 
ATOM     13  F   UNL     1       7.116   5.213  19.264  0.00  0.00    +0.000 F 
ATOM     14  C   UNL     1       7.236   4.855  16.955  0.00  0.00    +0.000 A 
ATOM     15  C   UNL     1       6.663   4.417  15.768  0.00  0.00    +0.000 A 
ATOM     16  C   UNL     1       5.357   3.933  15.781  0.00  0.00    +0.000 A 
ATOM     17  C   UNL     1       4.629   3.880  16.978  0.00  0.00    +0.000 A 
ATOM     18 CL   UNL     1       3.014   3.271  16.871  0.00  0.00    +0.000 Cl
ENDBRANCH  10  11
ENDBRANCH   3   5
BRANCH   2  19
ATOM     19  C   UNL     1       2.540   8.482  18.432  0.00  0.00    +0.000 C 
BRANCH  19  20
ATOM     20  C   UNL     1       1.329   9.241  18.909  0.00  0.00    +0.000 A 
ATOM     21  N   UNL     1       0.502   9.763  17.997  0.00  0.00    +0.000 NA
ATOM     22  S   UNL     1      -0.762  10.499  18.764  0.00  0.00    +0.000 S 
ATOM     23  C   UNL     1      -0.284  10.097  20.364  0.00  0.00    +0.000 A 
ATOM     24  C   UNL     1      -0.920  10.390  21.580  0.00  0.00    +0.000 A 
ATOM     25  C   UNL     1      -0.333   9.933  22.764  0.00  0.00    +0.000 A 
ATOM     26  C   UNL     1       0.851   9.207  22.735  0.00  0.00    +0.000 A 
ATOM     27  C   UNL     1       1.478   8.926  21.517  0.00  0.00    +0.000 A 
ATOM     28  C   UNL     1       0.915   9.379  20.295  0.00  0.00    +0.000 A 
ENDBRANCH  19  20
ENDBRANCH   2  19
TORSDOF 4
ENDMDL
MODEL 4
REMARK VINA RESULT:      -7.9      1.906      2.434
REMARK  Name = 
REMARK  4 active torsions:
REMARK  status: ('A' for Active; 'I' for Inactive)
REMARK    1  A    between atoms: C_2  and  C_3
REMARK    2  A    between atoms: C_3  and  C_4
REMARK    3  A    between atoms: N_13  and  N_14
REMARK    4  A    between atoms: C_19  and  C_20
REMARK                            x       y       z     vdW  Elec       q    Type
REMARK                         _______ _______ _______ _____ _____    ______ ____
ROOT
ATOM      1  O   UNL     1       1.951   6.242  17.563  0.00  0.00    +0.000 OA
ATOM      2  C   UNL     1       2.368   6.778  18.590  0.00  0.00    +0.000 C 
ATOM      3  N   UNL     1       3.055   6.114  19.598  0.00  0.00    +0.000 N 
ATOM      4  H   UNL     1       3.227   6.624  20.467  0.00  0.00    +0.000 HD
ENDROOT
BRANCH   3   5
ATOM      5  N   UNL     1       3.131   4.689  19.645  0.00  0.00    +0.000 N 
ATOM      6  C   UNL     1       2.225   3.995  20.458  0.00  0.00    +0.000 C 
ATOM      7  O   UNL     1       1.193   4.443  20.948  0.00  0.00    +0.000 OA
ATOM      8  C   UNL     1       2.683   2.577  20.731  0.00  0.00    +0.000 C 
ATOM      9  S   UNL     1       4.380   2.416  20.143  0.00  0.00    +0.000 S 
ATOM     10  C   UNL     1       4.487   4.159  19.661  0.00  0.00    +0.000 C 
BRANCH  10  11
ATOM     11  C   UNL     1       5.285   4.401  18.405  0.00  0.00    +0.000 A 
ATOM     12  C   UNL     1       6.545   5.016  18.462  0.00  0.00    +0.000 A 
ATOM     13  F   UNL     1       7.049   5.417  19.637  0.00  0.00    +0.000 F 
ATOM     14  C   UNL     1       7.315   5.242  17.319  0.00  0.00    +0.000 A 
ATOM     15  C   UNL     1       6.845   4.837  16.076  0.00  0.00    +0.000 A 
ATOM     16  C   UNL     1       5.597   4.227  15.985  0.00  0.00    +0.000 A 
ATOM     17  C   UNL     1       4.823   4.015  17.134  0.00  0.00    +0.000 A 
ATOM     18 CL   UNL     1       3.285   3.259  16.898  0.00  0.00    +0.000 Cl
ENDBRANCH  10  11
ENDBRANCH   3   5
BRANCH   2  19
ATOM     19  C   UNL     1       2.313   8.296  18.743  0.00  0.00    +0.000 C 
BRANCH  19  20
ATOM     20  C   UNL     1       1.425   8.839  19.832  0.00  0.00    +0.000 A 
ATOM     21  N   UNL     1       1.494   8.286  21.048  0.00  0.00    +0.000 NA
ATOM     22  S   UNL     1       0.467   9.081  22.069  0.00  0.00    +0.000 S 
ATOM     23  C   UNL     1      -0.076  10.250  20.933  0.00  0.00    +0.000 A 
ATOM     24  C   UNL     1      -0.982  11.306  21.111  0.00  0.00    +0.000 A 
ATOM     25  C   UNL     1      -1.251  12.142  20.022  0.00  0.00    +0.000 A 
ATOM     26  C   UNL     1      -0.637  11.928  18.795  0.00  0.00    +0.000 A 
ATOM     27  C   UNL     1       0.260  10.868  18.629  0.00  0.00    +0.000 A 
ATOM     28  C   UNL     1       0.554   9.996  19.709  0.00  0.00    +0.000 A 
ENDBRANCH  19  20
ENDBRANCH   2  19
TORSDOF 4
ENDMDL
MODEL 5
REMARK VINA RESULT:      -7.2      1.525      2.130
REMARK  Name = 
REMARK  4 active torsions:
REMARK  status: ('A' for Active; 'I' for Inactive)
REMARK    1  A    between atoms: C_2  and  C_3
REMARK    2  A    between atoms: C_3  and  C_4
REMARK    3  A    between atoms: N_13  and  N_14
REMARK    4  A    between atoms: C_19  and  C_20
REMARK                            x       y       z     vdW  Elec       q    Type
REMARK                         _______ _______ _______ _____ _____    ______ ____
ROOT
ATOM      1  O   UNL     1       2.481   6.693  20.519  0.00  0.00    +0.000 OA
ATOM      2  C   UNL     1       2.377   6.856  19.303  0.00  0.00    +0.000 C 
ATOM      3  N   UNL     1       2.353   5.824  18.374  0.00  0.00    +0.000 N 
ATOM      4  H   UNL     1       2.408   6.079  17.385  0.00  0.00    +0.000 HD
ENDROOT
BRANCH   3   5
ATOM      5  N   UNL     1       2.692   4.483  18.728  0.00  0.00    +0.000 N 
ATOM      6  C   UNL     1       1.821   3.769  19.561  0.00  0.00    +0.000 C 
ATOM      7  O   UNL     1       0.660   4.064  19.827  0.00  0.00    +0.000 OA
ATOM      8  C   UNL     1       2.493   2.558  20.175  0.00  0.00    +0.000 C 
ATOM      9  S   UNL     1       4.259   2.665  19.828  0.00  0.00    +0.000 S 
ATOM     10  C   UNL     1       4.105   4.272  19.006  0.00  0.00    +0.000 C 
BRANCH  10  11
ATOM     11  C   UNL     1       5.025   4.449  17.826  0.00  0.00    +0.000 A 
ATOM     12  C   UNL     1       4.635   4.039  16.542  0.00  0.00    +0.000 A 
ATOM     13  F   UNL     1       3.440   3.462  16.351  0.00  0.00    +0.000 F 
ATOM     14  C   UNL     1       5.458   4.203  15.427  0.00  0.00    +0.000 A 
ATOM     15  C   UNL     1       6.703   4.805  15.565  0.00  0.00    +0.000 A 
ATOM     16  C   UNL     1       7.121   5.220  16.827  0.00  0.00    +0.000 A 
ATOM     17  C   UNL     1       6.296   5.041  17.946  0.00  0.00    +0.000 A 
ATOM     18 CL   UNL     1       6.925   5.585  19.462  0.00  0.00    +0.000 Cl
ENDBRANCH  10  11
ENDBRANCH   3   5
BRANCH   2  19
ATOM     19  C   UNL     1       2.073   8.239  18.735  0.00  0.00    +0.000 C 
BRANCH  19  20
ATOM     20  C   UNL     1       1.173   9.129  19.553  0.00  0.00    +0.000 A 
ATOM     21  N   UNL     1       1.492   9.359  20.831  0.00  0.00    +0.000 NA
ATOM     22  S   UNL     1       0.386  10.392  21.492  0.00  0.00    +0.000 S 
ATOM     23  C   UNL     1      -0.544  10.626  20.067  0.00  0.00    +0.000 A 
ATOM     24  C   UNL     1      -1.678  11.428  19.869  0.00  0.00    +0.000 A 
ATOM     25  C   UNL     1      -2.253  11.464  18.595  0.00  0.00    +0.000 A 
ATOM     26  C   UNL     1      -1.714  10.720  17.553  0.00  0.00    +0.000 A 
ATOM     27  C   UNL     1      -0.588   9.919  17.764  0.00  0.00    +0.000 A 
ATOM     28  C   UNL     1       0.020   9.854  19.046  0.00  0.00    +0.000 A 
ENDBRANCH  19  20
ENDBRANCH   2  19
TORSDOF 4
ENDMDL
MODEL 6
REMARK VINA RESULT:      -7.2      1.647      2.153
REMARK  Name = 
REMARK  4 active torsions:
REMARK  status: ('A' for Active; 'I' for Inactive)
REMARK    1  A    between atoms: C_2  and  C_3
REMARK    2  A    between atoms: C_3  and  C_4
REMARK    3  A    between atoms: N_13  and  N_14
REMARK    4  A    between atoms: C_19  and  C_20
REMARK                            x       y       z     vdW  Elec       q    Type
REMARK                         _______ _______ _______ _____ _____    ______ ____
ROOT
ATOM      1  O   UNL     1       1.623   6.810  17.455  0.00  0.00    +0.000 OA
ATOM      2  C   UNL     1       2.452   7.359  18.181  0.00  0.00    +0.000 C 
ATOM      3  N   UNL     1       3.368   6.681  18.975  0.00  0.00    +0.000 N 
ATOM      4  H   UNL     1       3.911   7.232  19.644  0.00  0.00    +0.000 HD
ENDROOT
BRANCH   3   5
ATOM      5  N   UNL     1       3.271   5.275  19.206  0.00  0.00    +0.000 N 
ATOM      6  C   UNL     1       2.359   4.814  20.165  0.00  0.00    +0.000 C 
ATOM      7  O   UNL     1       1.437   5.454  20.661  0.00  0.00    +0.000 OA
ATOM      8  C   UNL     1       2.659   3.392  20.591  0.00  0.00    +0.000 C 
ATOM      9  S   UNL     1       4.265   2.934  19.913  0.00  0.00    +0.000 S 
ATOM     10  C   UNL     1       4.546   4.574  19.198  0.00  0.00    +0.000 C 
BRANCH  10  11
ATOM     11  C   UNL     1       5.258   4.551  17.869  0.00  0.00    +0.000 A 
ATOM     12  C   UNL     1       4.605   4.100  16.712  0.00  0.00    +0.000 A 
ATOM     13  F   UNL     1       3.341   3.661  16.777  0.00  0.00    +0.000 F 
ATOM     14  C   UNL     1       5.232   4.081  15.465  0.00  0.00    +0.000 A 
ATOM     15  C   UNL     1       6.539   4.535  15.338  0.00  0.00    +0.000 A 
ATOM     16  C   UNL     1       7.216   4.986  16.468  0.00  0.00    +0.000 A 
ATOM     17  C   UNL     1       6.586   4.991  17.720  0.00  0.00    +0.000 A 
ATOM     18 CL   UNL     1       7.528   5.563  19.054  0.00  0.00    +0.000 Cl
ENDBRANCH  10  11
ENDBRANCH   3   5
BRANCH   2  19
ATOM     19  C   UNL     1       2.654   8.870  18.114  0.00  0.00    +0.000 C 
BRANCH  19  20
ATOM     20  C   UNL     1       1.614   9.727  18.787  0.00  0.00    +0.000 A 
ATOM     21  N   UNL     1       0.708   9.134  19.572  0.00  0.00    +0.000 NA
ATOM     22  S   UNL     1      -0.284  10.282  20.224  0.00  0.00    +0.000 S 
ATOM     23  C   UNL     1       0.499  11.641  19.526  0.00  0.00    +0.000 A 
ATOM     24  C   UNL     1       0.201  13.005  19.664  0.00  0.00    +0.000 A 
ATOM     25  C   UNL     1       1.008  13.933  18.999  0.00  0.00    +0.000 A 
ATOM     26  C   UNL     1       2.078  13.512  18.219  0.00  0.00    +0.000 A 
ATOM     27  C   UNL     1       2.362  12.150  18.084  0.00  0.00    +0.000 A 
ATOM     28  C   UNL     1       1.560  11.179  18.740  0.00  0.00    +0.000 A 
ENDBRANCH  19  20
ENDBRANCH   2  19
TORSDOF 4
ENDMDL
MODEL 7
REMARK VINA RESULT:      -7.1      1.959      3.548
REMARK  Name = 
REMARK  4 active torsions:
REMARK  status: ('A' for Active; 'I' for Inactive)
REMARK    1  A    between atoms: C_2  and  C_3
REMARK    2  A    between atoms: C_3  and  C_4
REMARK    3  A    between atoms: N_13  and  N_14
REMARK    4  A    between atoms: C_19  and  C_20
REMARK                            x       y       z     vdW  Elec       q    Type
REMARK                         _______ _______ _______ _____ _____    ______ ____
ROOT
ATOM      1  O   UNL     1       2.747   7.371  19.557  0.00  0.00    +0.000 OA
ATOM      2  C   UNL     1       2.452   7.643  18.393  0.00  0.00    +0.000 C 
ATOM      3  N   UNL     1       2.957   6.981  17.282  0.00  0.00    +0.000 N 
ATOM      4  H   UNL     1       2.756   7.381  16.363  0.00  0.00    +0.000 HD
ENDROOT
BRANCH   3   5
ATOM      5  N   UNL     1       4.056   6.074  17.379  0.00  0.00    +0.000 N 
ATOM      6  C   UNL     1       5.254   6.402  16.732  0.00  0.00    +0.000 C 
ATOM      7  O   UNL     1       5.569   7.504  16.294  0.00  0.00    +0.000 OA
ATOM      8  C   UNL     1       6.156   5.196  16.569  0.00  0.00    +0.000 C 
ATOM      9  S   UNL     1       5.208   3.727  17.012  0.00  0.00    +0.000 S 
ATOM     10  C   UNL     1       3.687   4.669  17.295  0.00  0.00    +0.000 C 
BRANCH  10  11
ATOM     11  C   UNL     1       2.849   4.155  18.438  0.00  0.00    +0.000 A 
ATOM     12  C   UNL     1       1.466   3.972  18.291  0.00  0.00    +0.000 A 
ATOM     13  F   UNL     1       0.864   4.273  17.132  0.00  0.00    +0.000 F 
ATOM     14  C   UNL     1       0.666   3.485  19.326  0.00  0.00    +0.000 A 
ATOM     15  C   UNL     1       1.239   3.148  20.546  0.00  0.00    +0.000 A 
ATOM     16  C   UNL     1       2.609   3.321  20.726  0.00  0.00    +0.000 A 
ATOM     17  C   UNL     1       3.406   3.823  19.687  0.00  0.00    +0.000 A 
ATOM     18 CL   UNL     1       5.092   4.006  20.029  0.00  0.00    +0.000 Cl
ENDBRANCH  10  11
ENDBRANCH   3   5
BRANCH   2  19
ATOM     19  C   UNL     1       1.335   8.640  18.095  0.00  0.00    +0.000 C 
BRANCH  19  20
ATOM     20  C   UNL     1       1.178   9.793  19.051  0.00  0.00    +0.000 A 
ATOM     21  N   UNL     1       1.551  11.012  18.649  0.00  0.00    +0.000 NA
ATOM     22  S   UNL     1       1.238  12.103  19.850  0.00  0.00    +0.000 S 
ATOM     23  C   UNL     1       0.526  10.990  20.948  0.00  0.00    +0.000 A 
ATOM     24  C   UNL     1      -0.014  11.222  22.222  0.00  0.00    +0.000 A 
ATOM     25  C   UNL     1      -0.557  10.140  22.921  0.00  0.00    +0.000 A 
ATOM     26  C   UNL     1      -0.559   8.866  22.367  0.00  0.00    +0.000 A 
ATOM     27  C   UNL     1      -0.012   8.646  21.099  0.00  0.00    +0.000 A 
ATOM     28  C   UNL     1       0.554   9.720  20.362  0.00  0.00    +0.000 A 
ENDBRANCH  19  20
ENDBRANCH   2  19
TORSDOF 4
ENDMDL
MODEL 8
REMARK VINA RESULT:      -6.9      2.294      3.832
REMARK  Name = 
REMARK  4 active torsions:
REMARK  status: ('A' for Active; 'I' for Inactive)
REMARK    1  A    between atoms: C_2  and  C_3
REMARK    2  A    between atoms: C_3  and  C_4
REMARK    3  A    between atoms: N_13  and  N_14
REMARK    4  A    between atoms: C_19  and  C_20
REMARK                            x       y       z     vdW  Elec       q    Type
REMARK                         _______ _______ _______ _____ _____    ______ ____
ROOT
ATOM      1  O   UNL     1       2.692   7.241  19.772  0.00  0.00    +0.000 OA
ATOM      2  C   UNL     1       2.489   7.518  18.589  0.00  0.00    +0.000 C 
ATOM      3  N   UNL     1       3.116   6.892  17.520  0.00  0.00    +0.000 N 
ATOM      4  H   UNL     1       2.981   7.298  16.591  0.00  0.00    +0.000 HD
ENDROOT
BRANCH   3   5
ATOM      5  N   UNL     1       4.238   6.029  17.704  0.00  0.00    +0.000 N 
ATOM      6  C   UNL     1       5.470   6.403  17.150  0.00  0.00    +0.000 C 
ATOM      7  O   UNL     1       5.775   7.518  16.736  0.00  0.00    +0.000 OA
ATOM      8  C   UNL     1       6.428   5.233  17.061  0.00  0.00    +0.000 C 
ATOM      9  S   UNL     1       5.506   3.729  17.432  0.00  0.00    +0.000 S 
ATOM     10  C   UNL     1       3.932   4.610  17.594  0.00  0.00    +0.000 C 
BRANCH  10  11
ATOM     11  C   UNL     1       3.029   4.064  18.671  0.00  0.00    +0.000 A 
ATOM     12  C   UNL     1       3.548   3.675  19.915  0.00  0.00    +0.000 A 
ATOM     13  F   UNL     1       4.863   3.764  20.157  0.00  0.00    +0.000 F 
ATOM     14  C   UNL     1       2.736   3.179  20.936  0.00  0.00    +0.000 A 
ATOM     15  C   UNL     1       1.364   3.075  20.744  0.00  0.00    +0.000 A 
ATOM     16  C   UNL     1       0.818   3.450  19.519  0.00  0.00    +0.000 A 
ATOM     17  C   UNL     1       1.640   3.934  18.492  0.00  0.00    +0.000 A 
ATOM     18 CL   UNL     1       0.853   4.359  17.011  0.00  0.00    +0.000 Cl
ENDBRANCH  10  11
ENDBRANCH   3   5
BRANCH   2  19
ATOM     19  C   UNL     1       1.363   8.474  18.205  0.00  0.00    +0.000 C 
BRANCH  19  20
ATOM     20  C   UNL     1       1.184   9.697  19.065  0.00  0.00    +0.000 A 
ATOM     21  N   UNL     1       1.548  10.885  18.570  0.00  0.00    +0.000 NA
ATOM     22  S   UNL     1       1.211  12.064  19.677  0.00  0.00    +0.000 S 
ATOM     23  C   UNL     1       0.503  11.034  20.855  0.00  0.00    +0.000 A 
ATOM     24  C   UNL     1      -0.051  11.360  22.102  0.00  0.00    +0.000 A 
ATOM     25  C   UNL     1      -0.588  10.331  22.881  0.00  0.00    +0.000 A 
ATOM     26  C   UNL     1      -0.570   9.017  22.431  0.00  0.00    +0.000 A 
ATOM     27  C   UNL     1      -0.010   8.703  21.189  0.00  0.00    +0.000 A 
ATOM     28  C   UNL     1       0.550   9.721  20.372  0.00  0.00    +0.000 A 
ENDBRANCH  19  20
ENDBRANCH   2  19
TORSDOF 4
ENDMDL
MODEL 9
REMARK VINA RESULT:      -6.9      1.122      1.133
REMARK  Name = 
REMARK  4 active torsions:
REMARK  status: ('A' for Active; 'I' for Inactive)
REMARK    1  A    between atoms: C_2  and  C_3
REMARK    2  A    between atoms: C_3  and  C_4
REMARK    3  A    between atoms: N_13  and  N_14
REMARK    4  A    between atoms: C_19  and  C_20
REMARK                            x       y       z     vdW  Elec       q    Type
REMARK                         _______ _______ _______ _____ _____    ______ ____
ROOT
ATOM      1  O   UNL     1       2.931   7.049  19.817  0.00  0.00    +0.000 OA
ATOM      2  C   UNL     1       2.467   6.900  18.686  0.00  0.00    +0.000 C 
ATOM      3  N   UNL     1       2.210   5.667  18.102  0.00  0.00    +0.000 N 
ATOM      4  H   UNL     1       1.962   5.658  17.110  0.00  0.00    +0.000 HD
ENDROOT
BRANCH   3   5
ATOM      5  N   UNL     1       2.688   4.448  18.671  0.00  0.00    +0.000 N 
ATOM      6  C   UNL     1       1.905   3.809  19.643  0.00  0.00    +0.000 C 
ATOM      7  O   UNL     1       0.723   4.032  19.889  0.00  0.00    +0.000 OA
ATOM      8  C   UNL     1       2.704   2.796  20.436  0.00  0.00    +0.000 C 
ATOM      9  S   UNL     1       4.445   3.012  20.021  0.00  0.00    +0.000 S 
ATOM     10  C   UNL     1       4.118   4.427  18.939  0.00  0.00    +0.000 C 
BRANCH  10  11
ATOM     11  C   UNL     1       5.000   4.484  17.717  0.00  0.00    +0.000 A 
ATOM     12  C   UNL     1       4.564   3.958  16.492  0.00  0.00    +0.000 A 
ATOM     13  F   UNL     1       3.360   3.377  16.395  0.00  0.00    +0.000 F 
ATOM     14  C   UNL     1       5.351   4.008  15.340  0.00  0.00    +0.000 A 
ATOM     15  C   UNL     1       6.603   4.609  15.380  0.00  0.00    +0.000 A 
ATOM     16  C   UNL     1       7.067   5.137  16.582  0.00  0.00    +0.000 A 
ATOM     17  C   UNL     1       6.278   5.072  17.739  0.00  0.00    +0.000 A 
ATOM     18 CL   UNL     1       6.961   5.751  19.176  0.00  0.00    +0.000 Cl
ENDBRANCH  10  11
ENDBRANCH   3   5
BRANCH   2  19
ATOM     19  C   UNL     1       1.958   8.103  17.898  0.00  0.00    +0.000 C 
BRANCH  19  20
ATOM     20  C   UNL     1       1.655   9.353  18.683  0.00  0.00    +0.000 A 
ATOM     21  N   UNL     1       2.000  10.535  18.160  0.00  0.00    +0.000 NA
ATOM     22  S   UNL     1       1.524  11.743  19.181  0.00  0.00    +0.000 S 
ATOM     23  C   UNL     1       0.774  10.732  20.349  0.00  0.00    +0.000 A 
ATOM     24  C   UNL     1       0.109  11.085  21.533  0.00  0.00    +0.000 A 
ATOM     25  C   UNL     1      -0.438  10.065  22.318  0.00  0.00    +0.000 A 
ATOM     26  C   UNL     1      -0.324   8.735  21.934  0.00  0.00    +0.000 A 
ATOM     27  C   UNL     1       0.346   8.395  20.755  0.00  0.00    +0.000 A 
ATOM     28  C   UNL     1       0.920   9.403  19.935  0.00  0.00    +0.000 A 
ENDBRANCH  19  20
ENDBRANCH   2  19
TORSDOF 4
ENDMDL
