MODEL 1
REMARK VINA RESULT:      -8.7      0.000      0.000
REMARK  Name = 
REMARK  6 active torsions:
REMARK  status: ('A' for Active; 'I' for Inactive)
REMARK    1  A    between atoms: C_2  and  C_4
REMARK    2  A    between atoms: C_7  and  N_8
REMARK    3  A    between atoms: N_8  and  C_9
REMARK    4  A    between atoms: C_14  and  N_15
REMARK    5  A    between atoms: C_17  and  N_18
REMARK    6  A    between atoms: C_23  and  N_24
REMARK                            x       y       z     vdW  Elec       q    Type
REMARK                         _______ _______ _______ _____ _____    ______ ____
ROOT
ATOM      1  C   UNL     1       2.351   3.788  19.314  0.00  0.00    +0.000 A 
ATOM      2  N   UNL     1       1.917   4.087  20.579  0.00  0.00    +0.000 NA
ATOM      3  C   UNL     1       1.825   5.404  20.884  0.00  0.00    +0.000 A 
ATOM      4  C   UNL     1       2.150   6.449  20.026  0.00  0.00    +0.000 A 
ATOM      5  C   UNL     1       2.650   6.081  18.777  0.00  0.00    +0.000 A 
ATOM      6  C   UNL     1       2.702   4.741  18.351  0.00  0.00    +0.000 A 
ENDROOT
BRANCH   6   7
ATOM      7  N   UNL     1       3.187   4.424  17.057  0.00  0.00    +0.000 N 
ATOM      8  C   UNL     1       4.508   4.661  16.622  0.00  0.00    +0.000 A 
ATOM      9  C   UNL     1       5.043   3.870  15.613  0.00  0.00    +0.000 A 
ATOM     10  C   UNL     1       6.385   4.028  15.264  0.00  0.00    +0.000 A 
ATOM     11  C   UNL     1       7.148   5.005  15.898  0.00  0.00    +0.000 A 
ATOM     12  C   UNL     1       6.538   5.792  16.867  0.00  0.00    +0.000 A 
ATOM     13  N   UNL     1       5.240   5.617  17.229  0.00  0.00    +0.000 NA
ATOM     14  H   UNL     1       2.514   4.670  16.321  0.00  0.00    +0.000 HD
BRANCH  12  15
ATOM     15  N   UNL     1       7.299   6.819  17.515  0.00  0.00    +0.000 N 
ATOM     16  N   UNL     1       8.011   6.594  18.661  0.00  0.00    +0.000 NA
ATOM     17  C   UNL     1       8.532   7.794  18.916  0.00  0.00    +0.000 A 
ATOM     18  C   UNL     1       8.128   8.706  17.942  0.00  0.00    +0.000 A 
ATOM     19  N   UNL     1       7.357   8.102  17.035  0.00  0.00    +0.000 NA
ENDBRANCH  12  15
ENDBRANCH   6   7
BRANCH   1  21
ATOM     20  N   UNL     1       1.221   1.678  18.892  0.00  0.00    +0.000 N 
ATOM     21  C   UNL     1       2.428   2.316  19.017  0.00  0.00    +0.000 C 
ATOM     22  O   UNL     1       3.488   1.713  18.892  0.00  0.00    +0.000 OA
ATOM     23  H   UNL     1       1.186   0.694  18.684  0.00  0.00    +0.000 HD
ATOM     24  H   UNL     1       0.364   2.219  18.975  0.00  0.00    +0.000 HD
ENDBRANCH   1  21
BRANCH   4  25
ATOM     25  N   UNL     1       2.118   7.809  20.345  0.00  0.00    +0.000 N 
ATOM     26  H   UNL     1       2.852   8.006  21.028  0.00  0.00    +0.000 HD
BRANCH  25  27
ATOM     27  C   UNL     1       0.843   8.452  20.730  0.00  0.00    +0.000 C 
ATOM     28  C   UNL     1       0.639   9.767  19.951  0.00  0.00    +0.000 C 
ATOM     29  C   UNL     1      -0.578  10.549  20.440  0.00  0.00    +0.000 C 
ATOM     30  C   UNL     1      -0.529  10.816  21.938  0.00  0.00    +0.000 C 
ATOM     31  C   UNL     1      -0.345   9.520  22.725  0.00  0.00    +0.000 C 
ATOM     32  C   UNL     1       0.879   8.716  22.272  0.00  0.00    +0.000 C 
BRANCH  32  33
ATOM     33  N   UNL     1       2.130   9.380  22.696  0.00  0.00    +0.000 NA
ATOM     34  H   UNL     1       2.820   8.671  22.945  0.00  0.00    +0.000 HD
ATOM     35  H   UNL     1       1.932   9.829  23.597  0.00  0.00    +0.000 HD
ENDBRANCH  32  33
ENDBRANCH  25  27
ENDBRANCH   4  25
TORSDOF 6
ENDMDL
MODEL 2
REMARK VINA RESULT:      -8.4      0.611      1.082
REMARK  Name = 
REMARK  6 active torsions:
REMARK  status: ('A' for Active; 'I' for Inactive)
REMARK    1  A    between atoms: C_2  and  C_4
REMARK    2  A    between atoms: C_7  and  N_8
REMARK    3  A    between atoms: N_8  and  C_9
REMARK    4  A    between atoms: C_14  and  N_15
REMARK    5  A    between atoms: C_17  and  N_18
REMARK    6  A    between atoms: C_23  and  N_24
REMARK                            x       y       z     vdW  Elec       q    Type
REMARK                         _______ _______ _______ _____ _____    ______ ____
ROOT
ATOM      1  C   UNL     1       2.527   3.519  19.309  0.00  0.00    +0.000 A 
ATOM      2  N   UNL     1       2.122   3.739  20.600  0.00  0.00    +0.000 NA
ATOM      3  C   UNL     1       1.997   5.035  20.975  0.00  0.00    +0.000 A 
ATOM      4  C   UNL     1       2.263   6.132  20.163  0.00  0.00    +0.000 A 
ATOM      5  C   UNL     1       2.736   5.845  18.883  0.00  0.00    +0.000 A 
ATOM      6  C   UNL     1       2.818   4.531  18.388  0.00  0.00    +0.000 A 
ENDROOT
BRANCH   6   7
ATOM      7  N   UNL     1       3.273   4.297  17.065  0.00  0.00    +0.000 N 
ATOM      8  C   UNL     1       4.568   4.611  16.602  0.00  0.00    +0.000 A 
ATOM      9  C   UNL     1       5.103   3.892  15.540  0.00  0.00    +0.000 A 
ATOM     10  C   UNL     1       6.424   4.124  15.158  0.00  0.00    +0.000 A 
ATOM     11  C   UNL     1       7.166   5.102  15.815  0.00  0.00    +0.000 A 
ATOM     12  C   UNL     1       6.556   5.816  16.839  0.00  0.00    +0.000 A 
ATOM     13  N   UNL     1       5.279   5.568  17.231  0.00  0.00    +0.000 NA
ATOM     14  H   UNL     1       2.567   4.548  16.363  0.00  0.00    +0.000 HD
BRANCH  12  15
ATOM     15  N   UNL     1       7.294   6.844  17.512  0.00  0.00    +0.000 N 
ATOM     16  N   UNL     1       7.379   8.122  17.033  0.00  0.00    +0.000 NA
ATOM     17  C   UNL     1       8.158   8.718  17.935  0.00  0.00    +0.000 A 
ATOM     18  C   UNL     1       8.527   7.803  18.922  0.00  0.00    +0.000 A 
ATOM     19  N   UNL     1       7.976   6.613  18.678  0.00  0.00    +0.000 NA
ENDBRANCH  12  15
ENDBRANCH   6   7
BRANCH   1  21
ATOM     20  N   UNL     1       1.452   1.393  18.828  0.00  0.00    +0.000 N 
ATOM     21  C   UNL     1       2.640   2.068  18.935  0.00  0.00    +0.000 C 
ATOM     22  O   UNL     1       3.714   1.511  18.733  0.00  0.00    +0.000 OA
ATOM     23  H   UNL     1       1.441   0.420  18.572  0.00  0.00    +0.000 HD
ATOM     24  H   UNL     1       0.581   1.898  18.975  0.00  0.00    +0.000 HD
ENDBRANCH   1  21
BRANCH   4  25
ATOM     25  N   UNL     1       2.198   7.473  20.553  0.00  0.00    +0.000 N 
ATOM     26  H   UNL     1       2.289   7.526  21.570  0.00  0.00    +0.000 HD
BRANCH  25  27
ATOM     27  C   UNL     1       1.098   8.335  20.069  0.00  0.00    +0.000 C 
ATOM     28  C   UNL     1       1.612   9.326  19.005  0.00  0.00    +0.000 C 
ATOM     29  C   UNL     1       0.550  10.347  18.602  0.00  0.00    +0.000 C 
ATOM     30  C   UNL     1      -0.016  11.095  19.802  0.00  0.00    +0.000 C 
ATOM     31  C   UNL     1      -0.545  10.127  20.857  0.00  0.00    +0.000 C 
ATOM     32  C   UNL     1       0.501   9.096  21.299  0.00  0.00    +0.000 C 
BRANCH  32  33
ATOM     33  N   UNL     1       1.548   9.732  22.126  0.00  0.00    +0.000 NA
ATOM     34  H   UNL     1       2.466   9.415  21.811  0.00  0.00    +0.000 HD
ATOM     35  H   UNL     1       1.475   9.317  23.061  0.00  0.00    +0.000 HD
ENDBRANCH  32  33
ENDBRANCH  25  27
ENDBRANCH   4  25
TORSDOF 6
ENDMDL
MODEL 3
REMARK VINA RESULT:      -8.2      2.719      8.461
REMARK  Name = 
REMARK  6 active torsions:
REMARK  status: ('A' for Active; 'I' for Inactive)
REMARK    1  A    between atoms: C_2  and  C_4
REMARK    2  A    between atoms: C_7  and  N_8
REMARK    3  A    between atoms: N_8  and  C_9
REMARK    4  A    between atoms: C_14  and  N_15
REMARK    5  A    between atoms: C_17  and  N_18
REMARK    6  A    between atoms: C_23  and  N_24
REMARK                            x       y       z     vdW  Elec       q    Type
REMARK                         _______ _______ _______ _____ _____    ______ ____
ROOT
ATOM      1  C   UNL     1       6.956   5.443  17.576  0.00  0.00    +0.000 A 
ATOM      2  N   UNL     1       7.467   6.106  16.491  0.00  0.00    +0.000 NA
ATOM      3  C   UNL     1       6.960   5.757  15.284  0.00  0.00    +0.000 A 
ATOM      4  C   UNL     1       5.992   4.780  15.074  0.00  0.00    +0.000 A 
ATOM      5  C   UNL     1       5.561   4.094  16.209  0.00  0.00    +0.000 A 
ATOM      6  C   UNL     1       5.975   4.448  17.506  0.00  0.00    +0.000 A 
ENDROOT
BRANCH   6   7
ATOM      7  N   UNL     1       5.479   3.739  18.629  0.00  0.00    +0.000 N 
ATOM      8  C   UNL     1       4.291   4.067  19.317  0.00  0.00    +0.000 A 
ATOM      9  C   UNL     1       3.605   3.071  20.003  0.00  0.00    +0.000 A 
ATOM     10  C   UNL     1       2.374   3.371  20.584  0.00  0.00    +0.000 A 
ATOM     11  C   UNL     1       1.877   4.670  20.508  0.00  0.00    +0.000 A 
ATOM     12  C   UNL     1       2.635   5.628  19.846  0.00  0.00    +0.000 A 
ATOM     13  N   UNL     1       3.820   5.328  19.253  0.00  0.00    +0.000 NA
ATOM     14  H   UNL     1       6.224   3.493  19.291  0.00  0.00    +0.000 HD
BRANCH  12  15
ATOM     15  N   UNL     1       2.153   6.976  19.777  0.00  0.00    +0.000 N 
ATOM     16  N   UNL     1       1.507   7.579  20.820  0.00  0.00    +0.000 NA
ATOM     17  C   UNL     1       1.225   8.785  20.327  0.00  0.00    +0.000 A 
ATOM     18  C   UNL     1       1.692   8.883  19.016  0.00  0.00    +0.000 A 
ATOM     19  N   UNL     1       2.297   7.749  18.655  0.00  0.00    +0.000 NA
ENDBRANCH  12  15
ENDBRANCH   6   7
BRANCH   1  21
ATOM     20  N   UNL     1       8.308   7.005  18.856  0.00  0.00    +0.000 N 
ATOM     21  C   UNL     1       7.540   5.871  18.894  0.00  0.00    +0.000 C 
ATOM     22  O   UNL     1       7.350   5.259  19.940  0.00  0.00    +0.000 OA
ATOM     23  H   UNL     1       8.727   7.364  19.698  0.00  0.00    +0.000 HD
ATOM     24  H   UNL     1       8.418   7.499  17.974  0.00  0.00    +0.000 HD
ENDBRANCH   1  21
BRANCH   4  25
ATOM     25  N   UNL     1       5.503   4.366  13.832  0.00  0.00    +0.000 N 
ATOM     26  H   UNL     1       4.495   4.215  13.907  0.00  0.00    +0.000 HD
BRANCH  25  27
ATOM     27  C   UNL     1       6.159   3.256  13.108  0.00  0.00    +0.000 C 
ATOM     28  C   UNL     1       7.302   3.785  12.219  0.00  0.00    +0.000 C 
ATOM     29  C   UNL     1       7.894   2.698  11.325  0.00  0.00    +0.000 C 
ATOM     30  C   UNL     1       6.834   2.006  10.479  0.00  0.00    +0.000 C 
ATOM     31  C   UNL     1       5.703   1.459  11.348  0.00  0.00    +0.000 C 
ATOM     32  C   UNL     1       5.073   2.529  12.247  0.00  0.00    +0.000 C 
BRANCH  32  33
ATOM     33  N   UNL     1       4.265   3.477  11.450  0.00  0.00    +0.000 NA
ATOM     34  H   UNL     1       4.812   3.795  10.649  0.00  0.00    +0.000 HD
ATOM     35  H   UNL     1       4.173   4.329  12.013  0.00  0.00    +0.000 HD
ENDBRANCH  32  33
ENDBRANCH  25  27
ENDBRANCH   4  25
TORSDOF 6
ENDMDL
MODEL 4
REMARK VINA RESULT:      -8.2      1.134      1.475
REMARK  Name = 
REMARK  6 active torsions:
REMARK  status: ('A' for Active; 'I' for Inactive)
REMARK    1  A    between atoms: C_2  and  C_4
REMARK    2  A    between atoms: C_7  and  N_8
REMARK    3  A    between atoms: N_8  and  C_9
REMARK    4  A    between atoms: C_14  and  N_15
REMARK    5  A    between atoms: C_17  and  N_18
REMARK    6  A    between atoms: C_23  and  N_24
REMARK                            x       y       z     vdW  Elec       q    Type
REMARK                         _______ _______ _______ _____ _____    ______ ____
ROOT
ATOM      1  C   UNL     1       3.186   3.386  19.568  0.00  0.00    +0.000 A 
ATOM      2  N   UNL     1       2.907   3.508  20.904  0.00  0.00    +0.000 NA
ATOM      3  C   UNL     1       2.423   4.708  21.306  0.00  0.00    +0.000 A 
ATOM      4  C   UNL     1       2.212   5.805  20.477  0.00  0.00    +0.000 A 
ATOM      5  C   UNL     1       2.578   5.641  19.142  0.00  0.00    +0.000 A 
ATOM      6  C   UNL     1       3.011   4.406  18.626  0.00  0.00    +0.000 A 
ENDROOT
BRANCH   6   7
ATOM      7  N   UNL     1       3.339   4.285  17.251  0.00  0.00    +0.000 N 
ATOM      8  C   UNL     1       4.574   4.672  16.690  0.00  0.00    +0.000 A 
ATOM      9  C   UNL     1       5.017   4.050  15.528  0.00  0.00    +0.000 A 
ATOM     10  C   UNL     1       6.289   4.350  15.040  0.00  0.00    +0.000 A 
ATOM     11  C   UNL     1       7.070   5.298  15.695  0.00  0.00    +0.000 A 
ATOM     12  C   UNL     1       6.548   5.914  16.826  0.00  0.00    +0.000 A 
ATOM     13  N   UNL     1       5.322   5.599  17.320  0.00  0.00    +0.000 NA
ATOM     14  H   UNL     1       2.561   4.567  16.642  0.00  0.00    +0.000 HD
BRANCH  12  15
ATOM     15  N   UNL     1       7.327   6.910  17.502  0.00  0.00    +0.000 N 
ATOM     16  N   UNL     1       8.015   6.647  18.654  0.00  0.00    +0.000 NA
ATOM     17  C   UNL     1       8.564   7.828  18.937  0.00  0.00    +0.000 A 
ATOM     18  C   UNL     1       8.198   8.766  17.972  0.00  0.00    +0.000 A 
ATOM     19  N   UNL     1       7.426   8.198  17.044  0.00  0.00    +0.000 NA
ENDBRANCH  12  15
ENDBRANCH   6   7
BRANCH   1  21
ATOM     20  N   UNL     1       4.856   1.636  19.801  0.00  0.00    +0.000 N 
ATOM     21  C   UNL     1       3.710   2.036  19.166  0.00  0.00    +0.000 C 
ATOM     22  O   UNL     1       3.161   1.326  18.329  0.00  0.00    +0.000 OA
ATOM     23  H   UNL     1       5.266   0.740  19.595  0.00  0.00    +0.000 HD
ATOM     24  H   UNL     1       5.266   2.241  20.509  0.00  0.00    +0.000 HD
ENDBRANCH   1  21
BRANCH   4  25
ATOM     25  N   UNL     1       1.771   7.067  20.887  0.00  0.00    +0.000 N 
ATOM     26  H   UNL     1       1.244   6.966  21.757  0.00  0.00    +0.000 HD
BRANCH  25  27
ATOM     27  C   UNL     1       1.067   7.953  19.935  0.00  0.00    +0.000 C 
ATOM     28  C   UNL     1       2.057   8.553  18.916  0.00  0.00    +0.000 C 
ATOM     29  C   UNL     1       1.405   9.605  18.023  0.00  0.00    +0.000 C 
ATOM     30  C   UNL     1       0.728  10.707  18.828  0.00  0.00    +0.000 C 
ATOM     31  C   UNL     1      -0.269  10.129  19.828  0.00  0.00    +0.000 C 
ATOM     32  C   UNL     1       0.356   9.080  20.755  0.00  0.00    +0.000 C 
BRANCH  32  33
ATOM     33  N   UNL     1       1.265   9.717  21.732  0.00  0.00    +0.000 NA
ATOM     34  H   UNL     1       2.222   9.672  21.382  0.00  0.00    +0.000 HD
ATOM     35  H   UNL     1       1.295   9.099  22.550  0.00  0.00    +0.000 HD
ENDBRANCH  32  33
ENDBRANCH  25  27
ENDBRANCH   4  25
TORSDOF 6
ENDMDL
MODEL 5
REMARK VINA RESULT:      -7.9      1.710      2.272
REMARK  Name = 
REMARK  6 active torsions:
REMARK  status: ('A' for Active; 'I' for Inactive)
REMARK    1  A    between atoms: C_2  and  C_4
REMARK    2  A    between atoms: C_7  and  N_8
REMARK    3  A    between atoms: N_8  and  C_9
REMARK    4  A    between atoms: C_14  and  N_15
REMARK    5  A    between atoms: C_17  and  N_18
REMARK    6  A    between atoms: C_23  and  N_24
REMARK                            x       y       z     vdW  Elec       q    Type
REMARK                         _______ _______ _______ _____ _____    ______ ____
ROOT
ATOM      1  C   UNL     1       2.147   5.425  19.837  0.00  0.00    +0.000 A 
ATOM      2  N   UNL     1       1.640   6.153  20.882  0.00  0.00    +0.000 NA
ATOM      3  C   UNL     1       1.440   7.473  20.649  0.00  0.00    +0.000 A 
ATOM      4  C   UNL     1       1.723   8.128  19.456  0.00  0.00    +0.000 A 
ATOM      5  C   UNL     1       2.299   7.348  18.453  0.00  0.00    +0.000 A 
ATOM      6  C   UNL     1       2.466   5.957  18.583  0.00  0.00    +0.000 A 
ENDROOT
BRANCH   6   7
ATOM      7  N   UNL     1       3.026   5.206  17.519  0.00  0.00    +0.000 N 
ATOM      8  C   UNL     1       4.399   5.185  17.194  0.00  0.00    +0.000 A 
ATOM      9  C   UNL     1       4.929   4.072  16.552  0.00  0.00    +0.000 A 
ATOM     10  C   UNL     1       6.305   4.003  16.336  0.00  0.00    +0.000 A 
ATOM     11  C   UNL     1       7.114   5.067  16.724  0.00  0.00    +0.000 A 
ATOM     12  C   UNL     1       6.514   6.169  17.321  0.00  0.00    +0.000 A 
ATOM     13  N   UNL     1       5.177   6.223  17.560  0.00  0.00    +0.000 NA
ATOM     14  H   UNL     1       2.454   5.256  16.667  0.00  0.00    +0.000 HD
BRANCH  12  15
ATOM     15  N   UNL     1       7.326   7.285  17.707  0.00  0.00    +0.000 N 
ATOM     16  N   UNL     1       8.271   7.201  18.692  0.00  0.00    +0.000 NA
ATOM     17  C   UNL     1       8.758   8.441  18.732  0.00  0.00    +0.000 A 
ATOM     18  C   UNL     1       8.105   9.238  17.791  0.00  0.00    +0.000 A 
ATOM     19  N   UNL     1       7.204   8.518  17.121  0.00  0.00    +0.000 NA
ENDBRANCH  12  15
ENDBRANCH   6   7
BRANCH   1  21
ATOM     20  N   UNL     1       1.210   3.284  20.502  0.00  0.00    +0.000 N 
ATOM     21  C   UNL     1       2.342   3.965  20.137  0.00  0.00    +0.000 C 
ATOM     22  O   UNL     1       3.432   3.407  20.065  0.00  0.00    +0.000 OA
ATOM     23  H   UNL     1       1.255   2.299  20.710  0.00  0.00    +0.000 HD
ATOM     24  H   UNL     1       0.321   3.776  20.523  0.00  0.00    +0.000 HD
ENDBRANCH   1  21
BRANCH   4  25
ATOM     25  N   UNL     1       1.579   9.498  19.220  0.00  0.00    +0.000 N 
ATOM     26  H   UNL     1       2.203  10.009  19.849  0.00  0.00    +0.000 HD
BRANCH  25  27
ATOM     27  C   UNL     1       0.233  10.109  19.189  0.00  0.00    +0.000 C 
ATOM     28  C   UNL     1      -0.517   9.710  17.902  0.00  0.00    +0.000 C 
ATOM     29  C   UNL     1      -1.841  10.453  17.746  0.00  0.00    +0.000 C 
ATOM     30  C   UNL     1      -1.667  11.965  17.819  0.00  0.00    +0.000 C 
ATOM     31  C   UNL     1      -0.942  12.377  19.099  0.00  0.00    +0.000 C 
ATOM     32  C   UNL     1       0.402  11.662  19.279  0.00  0.00    +0.000 C 
BRANCH  32  33
ATOM     33  N   UNL     1       1.401  12.172  18.317  0.00  0.00    +0.000 NA
ATOM     34  H   UNL     1       1.424  13.191  18.362  0.00  0.00    +0.000 HD
ATOM     35  H   UNL     1       1.021  11.997  17.380  0.00  0.00    +0.000 HD
ENDBRANCH  32  33
ENDBRANCH  25  27
ENDBRANCH   4  25
TORSDOF 6
ENDMDL
MODEL 6
REMARK VINA RESULT:      -7.7      1.205      1.406
REMARK  Name = 
REMARK  6 active torsions:
REMARK  status: ('A' for Active; 'I' for Inactive)
REMARK    1  A    between atoms: C_2  and  C_4
REMARK    2  A    between atoms: C_7  and  N_8
REMARK    3  A    between atoms: N_8  and  C_9
REMARK    4  A    between atoms: C_14  and  N_15
REMARK    5  A    between atoms: C_17  and  N_18
REMARK    6  A    between atoms: C_23  and  N_24
REMARK                            x       y       z     vdW  Elec       q    Type
REMARK                         _______ _______ _______ _____ _____    ______ ____
ROOT
ATOM      1  C   UNL     1       2.282   4.669  19.762  0.00  0.00    +0.000 A 
ATOM      2  N   UNL     1       1.832   5.199  20.944  0.00  0.00    +0.000 NA
ATOM      3  C   UNL     1       1.632   6.538  20.960  0.00  0.00    +0.000 A 
ATOM      4  C   UNL     1       1.862   7.396  19.889  0.00  0.00    +0.000 A 
ATOM      5  C   UNL     1       2.383   6.808  18.737  0.00  0.00    +0.000 A 
ATOM      6  C   UNL     1       2.544   5.416  18.609  0.00  0.00    +0.000 A 
ENDROOT
BRANCH   6   7
ATOM      7  N   UNL     1       3.046   4.867  17.401  0.00  0.00    +0.000 N 
ATOM      8  C   UNL     1       4.391   4.953  16.985  0.00  0.00    +0.000 A 
ATOM      9  C   UNL     1       4.904   3.979  16.137  0.00  0.00    +0.000 A 
ATOM     10  C   UNL     1       6.262   4.002  15.820  0.00  0.00    +0.000 A 
ATOM     11  C   UNL     1       7.067   5.023  16.318  0.00  0.00    +0.000 A 
ATOM     12  C   UNL     1       6.480   5.990  17.125  0.00  0.00    +0.000 A 
ATOM     13  N   UNL     1       5.164   5.951  17.459  0.00  0.00    +0.000 NA
ATOM     14  H   UNL     1       2.411   5.028  16.610  0.00  0.00    +0.000 HD
BRANCH  12  15
ATOM     15  N   UNL     1       7.286   7.063  17.629  0.00  0.00    +0.000 N 
ATOM     16  N   UNL     1       8.149   6.904  18.678  0.00  0.00    +0.000 NA
ATOM     17  C   UNL     1       8.660   8.127  18.819  0.00  0.00    +0.000 A 
ATOM     18  C   UNL     1       8.101   8.987  17.875  0.00  0.00    +0.000 A 
ATOM     19  N   UNL     1       7.238   8.326  17.100  0.00  0.00    +0.000 NA
ENDBRANCH  12  15
ENDBRANCH   6   7
BRANCH   1  21
ATOM     20  N   UNL     1       3.106   2.688  20.904  0.00  0.00    +0.000 N 
ATOM     21  C   UNL     1       2.480   3.179  19.788  0.00  0.00    +0.000 C 
ATOM     22  O   UNL     1       2.111   2.439  18.881  0.00  0.00    +0.000 OA
ATOM     23  H   UNL     1       3.267   1.699  21.002  0.00  0.00    +0.000 HD
ATOM     24  H   UNL     1       3.370   3.331  21.646  0.00  0.00    +0.000 HD
ENDBRANCH   1  21
BRANCH   4  25
ATOM     25  N   UNL     1       1.718   8.786  19.909  0.00  0.00    +0.000 N 
ATOM     26  H   UNL     1       2.241   9.161  20.703  0.00  0.00    +0.000 HD
BRANCH  25  27
ATOM     27  C   UNL     1       0.373   9.395  19.817  0.00  0.00    +0.000 C 
ATOM     28  C   UNL     1       0.178  10.079  18.449  0.00  0.00    +0.000 C 
ATOM     29  C   UNL     1      -1.128  10.867  18.375  0.00  0.00    +0.000 C 
ATOM     30  C   UNL     1      -1.257  11.879  19.505  0.00  0.00    +0.000 C 
ATOM     31  C   UNL     1      -1.084  11.212  20.868  0.00  0.00    +0.000 C 
ATOM     32  C   UNL     1       0.227  10.426  20.984  0.00  0.00    +0.000 C 
BRANCH  32  33
ATOM     33  N   UNL     1       1.383  11.343  21.068  0.00  0.00    +0.000 NA
ATOM     34  H   UNL     1       2.219  10.811  21.315  0.00  0.00    +0.000 HD
ATOM     35  H   UNL     1       1.235  11.927  21.899  0.00  0.00    +0.000 HD
ENDBRANCH  32  33
ENDBRANCH  25  27
ENDBRANCH   4  25
TORSDOF 6
ENDMDL
MODEL 7
REMARK VINA RESULT:      -7.6      1.109      1.431
REMARK  Name = 
REMARK  6 active torsions:
REMARK  status: ('A' for Active; 'I' for Inactive)
REMARK    1  A    between atoms: C_2  and  C_4
REMARK    2  A    between atoms: C_7  and  N_8
REMARK    3  A    between atoms: N_8  and  C_9
REMARK    4  A    between atoms: C_14  and  N_15
REMARK    5  A    between atoms: C_17  and  N_18
REMARK    6  A    between atoms: C_23  and  N_24
REMARK                            x       y       z     vdW  Elec       q    Type
REMARK                         _______ _______ _______ _____ _____    ______ ____
ROOT
ATOM      1  C   UNL     1       2.464   4.624  19.763  0.00  0.00    +0.000 A 
ATOM      2  N   UNL     1       1.994   5.167  20.930  0.00  0.00    +0.000 NA
ATOM      3  C   UNL     1       1.647   6.476  20.882  0.00  0.00    +0.000 A 
ATOM      4  C   UNL     1       1.751   7.292  19.760  0.00  0.00    +0.000 A 
ATOM      5  C   UNL     1       2.299   6.700  18.623  0.00  0.00    +0.000 A 
ATOM      6  C   UNL     1       2.609   5.329  18.562  0.00  0.00    +0.000 A 
ENDROOT
BRANCH   6   7
ATOM      7  N   UNL     1       3.132   4.771  17.369  0.00  0.00    +0.000 N 
ATOM      8  C   UNL     1       4.480   4.875  16.965  0.00  0.00    +0.000 A 
ATOM      9  C   UNL     1       5.019   3.898  16.137  0.00  0.00    +0.000 A 
ATOM     10  C   UNL     1       6.380   3.940  15.833  0.00  0.00    +0.000 A 
ATOM     11  C   UNL     1       7.161   4.983  16.323  0.00  0.00    +0.000 A 
ATOM     12  C   UNL     1       6.549   5.952  17.109  0.00  0.00    +0.000 A 
ATOM     13  N   UNL     1       5.230   5.894  17.431  0.00  0.00    +0.000 NA
ATOM     14  H   UNL     1       2.503   4.909  16.569  0.00  0.00    +0.000 HD
BRANCH  12  15
ATOM     15  N   UNL     1       7.330   7.047  17.604  0.00  0.00    +0.000 N 
ATOM     16  N   UNL     1       8.167   6.925  18.679  0.00  0.00    +0.000 NA
ATOM     17  C   UNL     1       8.661   8.157  18.800  0.00  0.00    +0.000 A 
ATOM     18  C   UNL     1       8.118   8.986  17.819  0.00  0.00    +0.000 A 
ATOM     19  N   UNL     1       7.282   8.295  17.041  0.00  0.00    +0.000 NA
ENDBRANCH  12  15
ENDBRANCH   6   7
BRANCH   1  21
ATOM     20  N   UNL     1       1.835   2.346  20.329  0.00  0.00    +0.000 N 
ATOM     21  C   UNL     1       2.826   3.168  19.859  0.00  0.00    +0.000 C 
ATOM     22  O   UNL     1       3.927   2.729  19.543  0.00  0.00    +0.000 OA
ATOM     23  H   UNL     1       1.994   1.356  20.415  0.00  0.00    +0.000 HD
ATOM     24  H   UNL     1       0.927   2.745  20.554  0.00  0.00    +0.000 HD
ENDBRANCH   1  21
BRANCH   4  25
ATOM     25  N   UNL     1       1.454   8.657  19.712  0.00  0.00    +0.000 N 
ATOM     26  H   UNL     1       2.198   9.139  19.202  0.00  0.00    +0.000 HD
BRANCH  25  27
ATOM     27  C   UNL     1       1.096   9.384  20.948  0.00  0.00    +0.000 C 
ATOM     28  C   UNL     1      -0.101   8.709  21.649  0.00  0.00    +0.000 C 
ATOM     29  C   UNL     1      -0.613   9.522  22.836  0.00  0.00    +0.000 C 
ATOM     30  C   UNL     1      -0.956  10.955  22.449  0.00  0.00    +0.000 C 
ATOM     31  C   UNL     1       0.226  11.643  21.770  0.00  0.00    +0.000 C 
ATOM     32  C   UNL     1       0.757  10.862  20.562  0.00  0.00    +0.000 C 
BRANCH  32  33
ATOM     33  N   UNL     1      -0.190  10.940  19.429  0.00  0.00    +0.000 NA
ATOM     34  H   UNL     1      -1.092  10.557  19.716  0.00  0.00    +0.000 HD
ATOM     35  H   UNL     1       0.132  10.261  18.731  0.00  0.00    +0.000 HD
ENDBRANCH  32  33
ENDBRANCH  25  27
ENDBRANCH   4  25
TORSDOF 6
ENDMDL
MODEL 8
REMARK VINA RESULT:      -7.4      3.947      8.518
REMARK  Name = 
REMARK  6 active torsions:
REMARK  status: ('A' for Active; 'I' for Inactive)
REMARK    1  A    between atoms: C_2  and  C_4
REMARK    2  A    between atoms: C_7  and  N_8
REMARK    3  A    between atoms: N_8  and  C_9
REMARK    4  A    between atoms: C_14  and  N_15
REMARK    5  A    between atoms: C_17  and  N_18
REMARK    6  A    between atoms: C_23  and  N_24
REMARK                            x       y       z     vdW  Elec       q    Type
REMARK                         _______ _______ _______ _____ _____    ______ ____
ROOT
ATOM      1  C   UNL     1       0.625  10.194  19.017  0.00  0.00    +0.000 A 
ATOM      2  N   UNL     1       1.385   9.556  18.072  0.00  0.00    +0.000 NA
ATOM      3  C   UNL     1       1.966   8.394  18.458  0.00  0.00    +0.000 A 
ATOM      4  C   UNL     1       1.860   7.827  19.723  0.00  0.00    +0.000 A 
ATOM      5  C   UNL     1       1.130   8.557  20.660  0.00  0.00    +0.000 A 
ATOM      6  C   UNL     1       0.429   9.729  20.322  0.00  0.00    +0.000 A 
ENDROOT
BRANCH   6   7
ATOM      7  N   UNL     1      -0.328  10.414  21.307  0.00  0.00    +0.000 N 
ATOM      8  C   UNL     1      -0.150  11.771  21.645  0.00  0.00    +0.000 A 
ATOM      9  C   UNL     1      -1.219  12.487  22.171  0.00  0.00    +0.000 A 
ATOM     10  C   UNL     1      -1.076  13.856  22.397  0.00  0.00    +0.000 A 
ATOM     11  C   UNL     1       0.146  14.470  22.137  0.00  0.00    +0.000 A 
ATOM     12  C   UNL     1       1.188  13.687  21.654  0.00  0.00    +0.000 A 
ATOM     13  N   UNL     1       1.039  12.360  21.405  0.00  0.00    +0.000 NA
ATOM     14  H   UNL     1      -0.468   9.846  22.151  0.00  0.00    +0.000 HD
BRANCH  12  15
ATOM     15  N   UNL     1       2.461  14.295  21.403  0.00  0.00    +0.000 N 
ATOM     16  N   UNL     1       2.994  14.393  20.147  0.00  0.00    +0.000 NA
ATOM     17  C   UNL     1       4.163  14.990  20.375  0.00  0.00    +0.000 A 
ATOM     18  C   UNL     1       4.315  15.232  21.740  0.00  0.00    +0.000 A 
ATOM     19  N   UNL     1       3.238  14.812  22.407  0.00  0.00    +0.000 NA
ENDBRANCH  12  15
ENDBRANCH   6   7
BRANCH   1  21
ATOM     20  N   UNL     1       0.858  12.508  18.314  0.00  0.00    +0.000 N 
ATOM     21  C   UNL     1      -0.008  11.472  18.542  0.00  0.00    +0.000 C 
ATOM     22  O   UNL     1      -1.216  11.595  18.365  0.00  0.00    +0.000 OA
ATOM     23  H   UNL     1       0.515  13.396  17.985  0.00  0.00    +0.000 HD
ATOM     24  H   UNL     1       1.856  12.358  18.445  0.00  0.00    +0.000 HD
ENDBRANCH   1  21
BRANCH   4  25
ATOM     25  N   UNL     1       2.502   6.662  20.154  0.00  0.00    +0.000 N 
ATOM     26  H   UNL     1       3.412   6.596  19.692  0.00  0.00    +0.000 HD
BRANCH  25  27
ATOM     27  C   UNL     1       1.790   5.366  20.121  0.00  0.00    +0.000 C 
ATOM     28  C   UNL     1       2.254   4.461  21.281  0.00  0.00    +0.000 C 
ATOM     29  C   UNL     1       1.672   3.053  21.187  0.00  0.00    +0.000 C 
ATOM     30  C   UNL     1       1.964   2.396  19.844  0.00  0.00    +0.000 C 
ATOM     31  C   UNL     1       1.494   3.273  18.686  0.00  0.00    +0.000 C 
ATOM     32  C   UNL     1       2.073   4.691  18.738  0.00  0.00    +0.000 C 
BRANCH  32  33
ATOM     33  N   UNL     1       3.513   4.684  18.404  0.00  0.00    +0.000 NA
ATOM     34  H   UNL     1       3.639   4.303  17.466  0.00  0.00    +0.000 HD
ATOM     35  H   UNL     1       3.947   3.968  18.997  0.00  0.00    +0.000 HD
ENDBRANCH  32  33
ENDBRANCH  25  27
ENDBRANCH   4  25
TORSDOF 6
ENDMDL
MODEL 9
REMARK VINA RESULT:      -7.3      6.515     10.006
REMARK  Name = 
REMARK  6 active torsions:
REMARK  status: ('A' for Active; 'I' for Inactive)
REMARK    1  A    between atoms: C_2  and  C_4
REMARK    2  A    between atoms: C_7  and  N_8
REMARK    3  A    between atoms: N_8  and  C_9
REMARK    4  A    between atoms: C_14  and  N_15
REMARK    5  A    between atoms: C_17  and  N_18
REMARK    6  A    between atoms: C_23  and  N_24
REMARK                            x       y       z     vdW  Elec       q    Type
REMARK                         _______ _______ _______ _____ _____    ______ ____
ROOT
ATOM      1  C   UNL     1      -6.270  11.728  20.393  0.00  0.00    +0.000 A 
ATOM      2  N   UNL     1      -6.543  11.854  21.730  0.00  0.00    +0.000 NA
ATOM      3  C   UNL     1      -5.969  12.908  22.360  0.00  0.00    +0.000 A 
ATOM      4  C   UNL     1      -5.127  13.837  21.760  0.00  0.00    +0.000 A 
ATOM      5  C   UNL     1      -4.832  13.617  20.415  0.00  0.00    +0.000 A 
ATOM      6  C   UNL     1      -5.448  12.597  19.667  0.00  0.00    +0.000 A 
ENDROOT
BRANCH   6   7
ATOM      7  N   UNL     1      -5.138  12.438  18.293  0.00  0.00    +0.000 N 
ATOM      8  C   UNL     1      -4.054  11.679  17.803  0.00  0.00    +0.000 A 
ATOM      9  C   UNL     1      -4.129  11.130  16.528  0.00  0.00    +0.000 A 
ATOM     10  C   UNL     1      -3.109  10.286  16.091  0.00  0.00    +0.000 A 
ATOM     11  C   UNL     1      -2.014  10.047  16.917  0.00  0.00    +0.000 A 
ATOM     12  C   UNL     1      -1.981  10.662  18.163  0.00  0.00    +0.000 A 
ATOM     13  N   UNL     1      -2.990  11.460  18.601  0.00  0.00    +0.000 NA
ATOM     14  H   UNL     1      -5.228  13.318  17.772  0.00  0.00    +0.000 HD
BRANCH  12  15
ATOM     15  N   UNL     1      -0.852  10.448  19.019  0.00  0.00    +0.000 N 
ATOM     16  N   UNL     1       0.292   9.835  18.588  0.00  0.00    +0.000 NA
ATOM     17  C   UNL     1       1.047   9.828  19.686  0.00  0.00    +0.000 A 
ATOM     18  C   UNL     1       0.355  10.420  20.743  0.00  0.00    +0.000 A 
ATOM     19  N   UNL     1      -0.846  10.833  20.335  0.00  0.00    +0.000 NA
ENDBRANCH  12  15
ENDBRANCH   6   7
BRANCH   1  21
ATOM     20  N   UNL     1      -7.360   9.564  20.583  0.00  0.00    +0.000 N 
ATOM     21  C   UNL     1      -6.936  10.552  19.734  0.00  0.00    +0.000 C 
ATOM     22  O   UNL     1      -7.098  10.469  18.521  0.00  0.00    +0.000 OA
ATOM     23  H   UNL     1      -7.824   8.747  20.222  0.00  0.00    +0.000 HD
ATOM     24  H   UNL     1      -7.232   9.684  21.585  0.00  0.00    +0.000 HD
ENDBRANCH   1  21
BRANCH   4  25
ATOM     25  N   UNL     1      -4.479  14.893  22.409  0.00  0.00    +0.000 N 
ATOM     26  H   UNL     1      -4.205  15.590  21.714  0.00  0.00    +0.000 HD
BRANCH  25  27
ATOM     27  C   UNL     1      -3.377  14.619  23.356  0.00  0.00    +0.000 C 
ATOM     28  C   UNL     1      -3.586  15.393  24.674  0.00  0.00    +0.000 C 
ATOM     29  C   UNL     1      -2.388  15.275  25.613  0.00  0.00    +0.000 C 
ATOM     30  C   UNL     1      -1.086  15.698  24.944  0.00  0.00    +0.000 C 
ATOM     31  C   UNL     1      -0.856  14.927  23.646  0.00  0.00    +0.000 C 
ATOM     32  C   UNL     1      -2.034  15.037  22.670  0.00  0.00    +0.000 C 
BRANCH  32  33
ATOM     33  N   UNL     1      -2.104  16.391  22.082  0.00  0.00    +0.000 NA
ATOM     34  H   UNL     1      -2.388  17.057  22.802  0.00  0.00    +0.000 HD
ATOM     35  H   UNL     1      -2.907  16.392  21.444  0.00  0.00    +0.000 HD
ENDBRANCH  32  33
ENDBRANCH  25  27
ENDBRANCH   4  25
TORSDOF 6
ENDMDL
