MODEL 1
REMARK VINA RESULT:      -7.3      0.000      0.000
REMARK  Name = 
REMARK  6 active torsions:
REMARK  status: ('A' for Active; 'I' for Inactive)
REMARK    1  A    between atoms: C_1  and  S_2
REMARK    2  A    between atoms: S_2  and  C_3
REMARK    3  A    between atoms: C_9  and  C_10
REMARK    4  A    between atoms: N_12  and  C_13
REMARK    5  A    between atoms: N_12  and  C_14
REMARK    6  A    between atoms: C_20  and  O_21
REMARK                            x       y       z     vdW  Elec       q    Type
REMARK                         _______ _______ _______ _____ _____    ______ ____
ROOT
ATOM      1  C   UNL     1      -1.718  12.284  21.115  0.00  0.00    +0.000 A 
ATOM      2  C   UNL     1      -1.579  11.763  22.400  0.00  0.00    +0.000 A 
ATOM      3  C   UNL     1      -0.735  10.671  22.622  0.00  0.00    +0.000 A 
ATOM      4  C   UNL     1      -0.028  10.067  21.589  0.00  0.00    +0.000 A 
ATOM      5  N   UNL     1       0.811   9.064  21.868  0.00  0.00    +0.000 NA
ATOM      6  C   UNL     1       1.504   8.506  20.841  0.00  0.00    +0.000 A 
ATOM      7  C   UNL     1       1.374   8.862  19.499  0.00  0.00    +0.000 A 
ATOM      8  C   UNL     1       0.411   9.825  19.229  0.00  0.00    +0.000 A 
ATOM      9  C   UNL     1      -0.236  10.526  20.273  0.00  0.00    +0.000 A 
ATOM     10  C   UNL     1      -1.073  11.640  20.058  0.00  0.00    +0.000 A 
ENDROOT
BRANCH   7  11
ATOM     11  C   UNL     1       2.226   8.107  18.535  0.00  0.00    +0.000 C 
ATOM     12  O   UNL     1       2.389   8.709  17.471  0.00  0.00    +0.000 OA
ATOM     13  N   UNL     1       2.730   6.801  18.787  0.00  0.00    +0.000 N 
ATOM     14  C   UNL     1       2.401   6.032  19.995  0.00  0.00    +0.000 C 
BRANCH  13  15
ATOM     15  C   UNL     1       3.565   6.134  17.790  0.00  0.00    +0.000 A 
ATOM     16  C   UNL     1       3.448   4.756  17.533  0.00  0.00    +0.000 A 
ATOM     17  C   UNL     1       4.301   4.093  16.638  0.00  0.00    +0.000 A 
ATOM     18  C   UNL     1       5.278   4.795  15.950  0.00  0.00    +0.000 A 
ATOM     19  C   UNL     1       5.390   6.165  16.145  0.00  0.00    +0.000 A 
ATOM     20  C   UNL     1       4.539   6.825  17.045  0.00  0.00    +0.000 A 
ENDBRANCH  13  15
ENDBRANCH   7  11
BRANCH   1  22
ATOM     21  C   UNL     1      -4.381  13.018  21.066  0.00  0.00    +0.000 C 
ATOM     22  S   UNL     1      -2.729  13.711  20.777  0.00  0.00    +0.000 S 
ENDBRANCH   1  22
BRANCH   8  23
ATOM     23  O   UNL     1      -0.007  10.099  17.948  0.00  0.00    +0.000 OA
ATOM     24  H   UNL     1      -0.915  10.451  17.998  0.00  0.00    +0.000 HD
ENDBRANCH   8  23
TORSDOF 4
ENDMDL
MODEL 2
REMARK VINA RESULT:      -7.2      2.202      3.217
REMARK  Name = 
REMARK  6 active torsions:
REMARK  status: ('A' for Active; 'I' for Inactive)
REMARK    1  A    between atoms: C_1  and  S_2
REMARK    2  A    between atoms: S_2  and  C_3
REMARK    3  A    between atoms: C_9  and  C_10
REMARK    4  A    between atoms: N_12  and  C_13
REMARK    5  A    between atoms: N_12  and  C_14
REMARK    6  A    between atoms: C_20  and  O_21
REMARK                            x       y       z     vdW  Elec       q    Type
REMARK                         _______ _______ _______ _____ _____    ______ ____
ROOT
ATOM      1  C   UNL     1       0.294  12.126  20.788  0.00  0.00    +0.000 A 
ATOM      2  C   UNL     1       0.659  12.679  19.563  0.00  0.00    +0.000 A 
ATOM      3  C   UNL     1       1.233  11.872  18.576  0.00  0.00    +0.000 A 
ATOM      4  C   UNL     1       1.467  10.518  18.779  0.00  0.00    +0.000 A 
ATOM      5  N   UNL     1       1.962   9.781  17.779  0.00  0.00    +0.000 NA
ATOM      6  C   UNL     1       2.162   8.455  18.001  0.00  0.00    +0.000 A 
ATOM      7  C   UNL     1       1.940   7.802  19.212  0.00  0.00    +0.000 A 
ATOM      8  C   UNL     1       1.537   8.616  20.263  0.00  0.00    +0.000 A 
ATOM      9  C   UNL     1       1.189   9.970  20.047  0.00  0.00    +0.000 A 
ATOM     10  C   UNL     1       0.593  10.784  21.032  0.00  0.00    +0.000 A 
ENDROOT
BRANCH   7  11
ATOM     11  C   UNL     1       2.239   6.340  19.234  0.00  0.00    +0.000 C 
ATOM     12  O   UNL     1       1.597   5.736  20.096  0.00  0.00    +0.000 OA
ATOM     13  N   UNL     1       3.217   5.726  18.403  0.00  0.00    +0.000 N 
ATOM     14  C   UNL     1       4.084   6.482  17.489  0.00  0.00    +0.000 C 
BRANCH  13  15
ATOM     15  C   UNL     1       3.443   4.285  18.483  0.00  0.00    +0.000 A 
ATOM     16  C   UNL     1       2.815   3.390  17.598  0.00  0.00    +0.000 A 
ATOM     17  C   UNL     1       2.961   2.000  17.720  0.00  0.00    +0.000 A 
ATOM     18  C   UNL     1       3.765   1.464  18.714  0.00  0.00    +0.000 A 
ATOM     19  C   UNL     1       4.438   2.321  19.575  0.00  0.00    +0.000 A 
ATOM     20  C   UNL     1       4.285   3.711  19.454  0.00  0.00    +0.000 A 
ENDBRANCH  13  15
ENDBRANCH   7  11
BRANCH   1  22
ATOM     21  C   UNL     1      -1.378  11.779  22.960  0.00  0.00    +0.000 C 
ATOM     22  S   UNL     1      -0.496  13.086  22.063  0.00  0.00    +0.000 S 
ENDBRANCH   1  22
BRANCH   8  23
ATOM     23  O   UNL     1       1.519   8.172  21.563  0.00  0.00    +0.000 OA
ATOM     24  H   UNL     1       2.180   7.458  21.645  0.00  0.00    +0.000 HD
ENDBRANCH   8  23
TORSDOF 4
ENDMDL
MODEL 3
REMARK VINA RESULT:      -7.2      1.546      2.152
REMARK  Name = 
REMARK  6 active torsions:
REMARK  status: ('A' for Active; 'I' for Inactive)
REMARK    1  A    between atoms: C_1  and  S_2
REMARK    2  A    between atoms: S_2  and  C_3
REMARK    3  A    between atoms: C_9  and  C_10
REMARK    4  A    between atoms: N_12  and  C_13
REMARK    5  A    between atoms: N_12  and  C_14
REMARK    6  A    between atoms: C_20  and  O_21
REMARK                            x       y       z     vdW  Elec       q    Type
REMARK                         _______ _______ _______ _____ _____    ______ ____
ROOT
ATOM      1  C   UNL     1      -0.374  11.332  20.746  0.00  0.00    +0.000 A 
ATOM      2  C   UNL     1      -0.664  10.474  21.805  0.00  0.00    +0.000 A 
ATOM      3  C   UNL     1      -0.101   9.196  21.842  0.00  0.00    +0.000 A 
ATOM      4  C   UNL     1       0.743   8.736  20.838  0.00  0.00    +0.000 A 
ATOM      5  N   UNL     1       1.302   7.527  20.954  0.00  0.00    +0.000 NA
ATOM      6  C   UNL     1       2.138   7.112  19.967  0.00  0.00    +0.000 A 
ATOM      7  C   UNL     1       2.427   7.828  18.806  0.00  0.00    +0.000 A 
ATOM      8  C   UNL     1       1.741   9.027  18.660  0.00  0.00    +0.000 A 
ATOM      9  C   UNL     1       0.967   9.561  19.717  0.00  0.00    +0.000 A 
ATOM     10  C   UNL     1       0.411  10.856  19.695  0.00  0.00    +0.000 A 
ENDROOT
BRANCH   7  11
ATOM     11  C   UNL     1       3.366   7.175  17.848  0.00  0.00    +0.000 C 
ATOM     12  O   UNL     1       3.303   7.660  16.715  0.00  0.00    +0.000 OA
ATOM     13  N   UNL     1       4.186   6.063  18.186  0.00  0.00    +0.000 N 
ATOM     14  C   UNL     1       4.137   5.398  19.495  0.00  0.00    +0.000 C 
BRANCH  13  15
ATOM     15  C   UNL     1       5.085   5.487  17.188  0.00  0.00    +0.000 A 
ATOM     16  C   UNL     1       6.388   5.979  16.999  0.00  0.00    +0.000 A 
ATOM     17  C   UNL     1       7.228   5.488  15.989  0.00  0.00    +0.000 A 
ATOM     18  C   UNL     1       6.798   4.468  15.154  0.00  0.00    +0.000 A 
ATOM     19  C   UNL     1       5.533   3.927  15.344  0.00  0.00    +0.000 A 
ATOM     20  C   UNL     1       4.694   4.424  16.353  0.00  0.00    +0.000 A 
ENDBRANCH  13  15
ENDBRANCH   7  11
BRANCH   1  22
ATOM     21  C   UNL     1      -0.589  13.431  18.964  0.00  0.00    +0.000 C 
ATOM     22  S   UNL     1      -1.011  12.994  20.673  0.00  0.00    +0.000 S 
ENDBRANCH   1  22
BRANCH   8  23
ATOM     23  O   UNL     1       1.725   9.718  17.472  0.00  0.00    +0.000 OA
ATOM     24  H   UNL     1       2.270  10.520  17.585  0.00  0.00    +0.000 HD
ENDBRANCH   8  23
TORSDOF 4
ENDMDL
MODEL 4
REMARK VINA RESULT:      -7.1      2.316      3.096
REMARK  Name = 
REMARK  6 active torsions:
REMARK  status: ('A' for Active; 'I' for Inactive)
REMARK    1  A    between atoms: C_1  and  S_2
REMARK    2  A    between atoms: S_2  and  C_3
REMARK    3  A    between atoms: C_9  and  C_10
REMARK    4  A    between atoms: N_12  and  C_13
REMARK    5  A    between atoms: N_12  and  C_14
REMARK    6  A    between atoms: C_20  and  O_21
REMARK                            x       y       z     vdW  Elec       q    Type
REMARK                         _______ _______ _______ _____ _____    ______ ____
ROOT
ATOM      1  C   UNL     1      -0.329  11.298  21.299  0.00  0.00    +0.000 A 
ATOM      2  C   UNL     1      -0.256  12.039  20.122  0.00  0.00    +0.000 A 
ATOM      3  C   UNL     1       0.365  11.496  18.993  0.00  0.00    +0.000 A 
ATOM      4  C   UNL     1       0.932  10.228  19.006  0.00  0.00    +0.000 A 
ATOM      5  N   UNL     1       1.459   9.735  17.880  0.00  0.00    +0.000 NA
ATOM      6  C   UNL     1       1.990   8.484  17.917  0.00  0.00    +0.000 A 
ATOM      7  C   UNL     1       2.076   7.683  19.055  0.00  0.00    +0.000 A 
ATOM      8  C   UNL     1       1.626   8.269  20.231  0.00  0.00    +0.000 A 
ATOM      9  C   UNL     1       0.947   9.509  20.218  0.00  0.00    +0.000 A 
ATOM     10  C   UNL     1       0.303  10.054  21.347  0.00  0.00    +0.000 A 
ENDROOT
BRANCH   7  11
ATOM     11  C   UNL     1       2.709   6.345  18.869  0.00  0.00    +0.000 C 
ATOM     12  O   UNL     1       3.727   6.393  18.174  0.00  0.00    +0.000 OA
ATOM     13  N   UNL     1       2.155   5.136  19.375  0.00  0.00    +0.000 N 
ATOM     14  C   UNL     1       0.861   5.074  20.068  0.00  0.00    +0.000 C 
BRANCH  13  15
ATOM     15  C   UNL     1       2.844   3.867  19.154  0.00  0.00    +0.000 A 
ATOM     16  C   UNL     1       2.583   3.073  18.023  0.00  0.00    +0.000 A 
ATOM     17  C   UNL     1       3.179   1.816  17.844  0.00  0.00    +0.000 A 
ATOM     18  C   UNL     1       4.078   1.327  18.779  0.00  0.00    +0.000 A 
ATOM     19  C   UNL     1       4.395   2.106  19.884  0.00  0.00    +0.000 A 
ATOM     20  C   UNL     1       3.793   3.362  20.062  0.00  0.00    +0.000 A 
ENDBRANCH  13  15
ENDBRANCH   7  11
BRANCH   1  22
ATOM     21  C   UNL     1      -2.665  12.592  22.006  0.00  0.00    +0.000 C 
ATOM     22  S   UNL     1      -1.159  11.908  22.752  0.00  0.00    +0.000 S 
ENDBRANCH   1  22
BRANCH   8  23
ATOM     23  O   UNL     1       1.871   7.711  21.463  0.00  0.00    +0.000 OA
ATOM     24  H   UNL     1       2.636   8.174  21.855  0.00  0.00    +0.000 HD
ENDBRANCH   8  23
TORSDOF 4
ENDMDL
MODEL 5
REMARK VINA RESULT:      -7.1      3.398      8.707
REMARK  Name = 
REMARK  6 active torsions:
REMARK  status: ('A' for Active; 'I' for Inactive)
REMARK    1  A    between atoms: C_1  and  S_2
REMARK    2  A    between atoms: S_2  and  C_3
REMARK    3  A    between atoms: C_9  and  C_10
REMARK    4  A    between atoms: N_12  and  C_13
REMARK    5  A    between atoms: N_12  and  C_14
REMARK    6  A    between atoms: C_20  and  O_21
REMARK                            x       y       z     vdW  Elec       q    Type
REMARK                         _______ _______ _______ _____ _____    ______ ____
ROOT
ATOM      1  C   UNL     1       2.588   6.862  19.273  0.00  0.00    +0.000 A 
ATOM      2  C   UNL     1       2.730   7.485  18.035  0.00  0.00    +0.000 A 
ATOM      3  C   UNL     1       2.171   8.748  17.821  0.00  0.00    +0.000 A 
ATOM      4  C   UNL     1       1.455   9.411  18.810  0.00  0.00    +0.000 A 
ATOM      5  N   UNL     1       0.994  10.643  18.570  0.00  0.00    +0.000 NA
ATOM      6  C   UNL     1       0.314  11.275  19.563  0.00  0.00    +0.000 A 
ATOM      7  C   UNL     1       0.011  10.722  20.806  0.00  0.00    +0.000 A 
ATOM      8  C   UNL     1       0.403   9.400  20.981  0.00  0.00    +0.000 A 
ATOM      9  C   UNL     1       1.225   8.749  20.033  0.00  0.00    +0.000 A 
ATOM     10  C   UNL     1       1.808   7.484  20.249  0.00  0.00    +0.000 A 
ENDROOT
BRANCH   7  11
ATOM     11  C   UNL     1      -0.758  11.592  21.743  0.00  0.00    +0.000 C 
ATOM     12  O   UNL     1      -0.321  11.553  22.896  0.00  0.00    +0.000 OA
ATOM     13  N   UNL     1      -1.915  12.327  21.362  0.00  0.00    +0.000 N 
ATOM     14  C   UNL     1      -2.515  12.243  20.024  0.00  0.00    +0.000 C 
BRANCH  13  15
ATOM     15  C   UNL     1      -2.605  13.163  22.342  0.00  0.00    +0.000 A 
ATOM     16  C   UNL     1      -2.274  14.518  22.518  0.00  0.00    +0.000 A 
ATOM     17  C   UNL     1      -2.873  15.306  23.512  0.00  0.00    +0.000 A 
ATOM     18  C   UNL     1      -3.845  14.768  24.342  0.00  0.00    +0.000 A 
ATOM     19  C   UNL     1      -4.230  13.446  24.163  0.00  0.00    +0.000 A 
ATOM     20  C   UNL     1      -3.624  12.659  23.172  0.00  0.00    +0.000 A 
ENDBRANCH  13  15
ENDBRANCH   7  11
BRANCH   1  22
ATOM     21  C   UNL     1       2.158   4.640  20.856  0.00  0.00    +0.000 C 
ATOM     22  S   UNL     1       3.328   5.282  19.628  0.00  0.00    +0.000 S 
ENDBRANCH   1  22
BRANCH   8  23
ATOM     23  O   UNL     1      -0.038   8.644  22.041  0.00  0.00    +0.000 OA
ATOM     24  H   UNL     1      -0.663   9.188  22.557  0.00  0.00    +0.000 HD
ENDBRANCH   8  23
TORSDOF 4
ENDMDL
MODEL 6
REMARK VINA RESULT:      -7.0      3.324      8.669
REMARK  Name = 
REMARK  6 active torsions:
REMARK  status: ('A' for Active; 'I' for Inactive)
REMARK    1  A    between atoms: C_1  and  S_2
REMARK    2  A    between atoms: S_2  and  C_3
REMARK    3  A    between atoms: C_9  and  C_10
REMARK    4  A    between atoms: N_12  and  C_13
REMARK    5  A    between atoms: N_12  and  C_14
REMARK    6  A    between atoms: C_20  and  O_21
REMARK                            x       y       z     vdW  Elec       q    Type
REMARK                         _______ _______ _______ _____ _____    ______ ____
ROOT
ATOM      1  C   UNL     1       2.749   6.520  19.036  0.00  0.00    +0.000 A 
ATOM      2  C   UNL     1       2.874   7.260  17.862  0.00  0.00    +0.000 A 
ATOM      3  C   UNL     1       2.343   8.551  17.791  0.00  0.00    +0.000 A 
ATOM      4  C   UNL     1       1.673   9.129  18.863  0.00  0.00    +0.000 A 
ATOM      5  N   UNL     1       1.238  10.389  18.760  0.00  0.00    +0.000 NA
ATOM      6  C   UNL     1       0.603  10.935  19.831  0.00  0.00    +0.000 A 
ATOM      7  C   UNL     1       0.320  10.268  21.021  0.00  0.00    +0.000 A 
ATOM      8  C   UNL     1       0.681   8.927  21.052  0.00  0.00    +0.000 A 
ATOM      9  C   UNL     1       1.459   8.354  20.020  0.00  0.00    +0.000 A 
ATOM     10  C   UNL     1       2.014   7.060  20.092  0.00  0.00    +0.000 A 
ENDROOT
BRANCH   7  11
ATOM     11  C   UNL     1      -0.398  11.059  22.063  0.00  0.00    +0.000 C 
ATOM     12  O   UNL     1      -0.061  10.753  23.209  0.00  0.00    +0.000 OA
ATOM     13  N   UNL     1      -1.416  12.007  21.766  0.00  0.00    +0.000 N 
ATOM     14  C   UNL     1      -1.916  12.249  20.406  0.00  0.00    +0.000 C 
BRANCH  13  15
ATOM     15  C   UNL     1      -2.066  12.745  22.847  0.00  0.00    +0.000 A 
ATOM     16  C   UNL     1      -3.311  12.349  23.366  0.00  0.00    +0.000 A 
ATOM     17  C   UNL     1      -3.979  13.098  24.346  0.00  0.00    +0.000 A 
ATOM     18  C   UNL     1      -3.407  14.252  24.857  0.00  0.00    +0.000 A 
ATOM     19  C   UNL     1      -2.157  14.647  24.400  0.00  0.00    +0.000 A 
ATOM     20  C   UNL     1      -1.493  13.898  23.416  0.00  0.00    +0.000 A 
ENDBRANCH  13  15
ENDBRANCH   7  11
BRANCH   1  22
ATOM     21  C   UNL     1       4.640   4.903  17.835  0.00  0.00    +0.000 C 
ATOM     22  S   UNL     1       3.457   4.895  19.210  0.00  0.00    +0.000 S 
ENDBRANCH   1  22
BRANCH   8  23
ATOM     23  O   UNL     1       0.250   8.079  22.045  0.00  0.00    +0.000 OA
ATOM     24  H   UNL     1       0.486   8.479  22.904  0.00  0.00    +0.000 HD
ENDBRANCH   8  23
TORSDOF 4
ENDMDL
MODEL 7
REMARK VINA RESULT:      -7.0      2.363      3.143
REMARK  Name = 
REMARK  6 active torsions:
REMARK  status: ('A' for Active; 'I' for Inactive)
REMARK    1  A    between atoms: C_1  and  S_2
REMARK    2  A    between atoms: S_2  and  C_3
REMARK    3  A    between atoms: C_9  and  C_10
REMARK    4  A    between atoms: N_12  and  C_13
REMARK    5  A    between atoms: N_12  and  C_14
REMARK    6  A    between atoms: C_20  and  O_21
REMARK                            x       y       z     vdW  Elec       q    Type
REMARK                         _______ _______ _______ _____ _____    ______ ____
ROOT
ATOM      1  C   UNL     1      -0.280  11.392  21.269  0.00  0.00    +0.000 A 
ATOM      2  C   UNL     1      -0.211  12.102  20.072  0.00  0.00    +0.000 A 
ATOM      3  C   UNL     1       0.384  11.519  18.950  0.00  0.00    +0.000 A 
ATOM      4  C   UNL     1       0.929  10.241  18.987  0.00  0.00    +0.000 A 
ATOM      5  N   UNL     1       1.431   9.710  17.868  0.00  0.00    +0.000 NA
ATOM      6  C   UNL     1       1.939   8.451  17.930  0.00  0.00    +0.000 A 
ATOM      7  C   UNL     1       2.027   7.678  19.086  0.00  0.00    +0.000 A 
ATOM      8  C   UNL     1       1.604   8.302  20.253  0.00  0.00    +0.000 A 
ATOM      9  C   UNL     1       0.948   9.553  20.217  0.00  0.00    +0.000 A 
ATOM     10  C   UNL     1       0.330  10.138  21.341  0.00  0.00    +0.000 A 
ENDROOT
BRANCH   7  11
ATOM     11  C   UNL     1       2.634   6.324  18.926  0.00  0.00    +0.000 C 
ATOM     12  O   UNL     1       3.641   6.335  18.215  0.00  0.00    +0.000 OA
ATOM     13  N   UNL     1       2.066   5.139  19.472  0.00  0.00    +0.000 N 
ATOM     14  C   UNL     1       0.783   5.119  20.187  0.00  0.00    +0.000 C 
BRANCH  13  15
ATOM     15  C   UNL     1       2.729   3.852  19.274  0.00  0.00    +0.000 A 
ATOM     16  C   UNL     1       3.718   3.389  20.160  0.00  0.00    +0.000 A 
ATOM     17  C   UNL     1       4.418   2.195  19.933  0.00  0.00    +0.000 A 
ATOM     18  C   UNL     1       4.128   1.412  18.826  0.00  0.00    +0.000 A 
ATOM     19  C   UNL     1       3.124   1.817  17.956  0.00  0.00    +0.000 A 
ATOM     20  C   UNL     1       2.430   3.015  18.184  0.00  0.00    +0.000 A 
ENDBRANCH  13  15
ENDBRANCH   7  11
BRANCH   1  22
ATOM     21  C   UNL     1      -2.715  12.447  22.038  0.00  0.00    +0.000 C 
ATOM     22  S   UNL     1      -1.079  12.054  22.717  0.00  0.00    +0.000 S 
ENDBRANCH   1  22
BRANCH   8  23
ATOM     23  O   UNL     1       1.857   7.771  21.496  0.00  0.00    +0.000 OA
ATOM     24  H   UNL     1       2.697   7.277  21.445  0.00  0.00    +0.000 HD
ENDBRANCH   8  23
TORSDOF 4
ENDMDL
MODEL 8
REMARK VINA RESULT:      -7.0      2.240      3.247
REMARK  Name = 
REMARK  6 active torsions:
REMARK  status: ('A' for Active; 'I' for Inactive)
REMARK    1  A    between atoms: C_1  and  S_2
REMARK    2  A    between atoms: S_2  and  C_3
REMARK    3  A    between atoms: C_9  and  C_10
REMARK    4  A    between atoms: N_12  and  C_13
REMARK    5  A    between atoms: N_12  and  C_14
REMARK    6  A    between atoms: C_20  and  O_21
REMARK                            x       y       z     vdW  Elec       q    Type
REMARK                         _______ _______ _______ _____ _____    ______ ____
ROOT
ATOM      1  C   UNL     1       0.167  12.009  20.958  0.00  0.00    +0.000 A 
ATOM      2  C   UNL     1       0.541  12.562  19.735  0.00  0.00    +0.000 A 
ATOM      3  C   UNL     1       1.127  11.756  18.755  0.00  0.00    +0.000 A 
ATOM      4  C   UNL     1       1.364  10.403  18.963  0.00  0.00    +0.000 A 
ATOM      5  N   UNL     1       1.872   9.667  17.969  0.00  0.00    +0.000 NA
ATOM      6  C   UNL     1       2.076   8.342  18.194  0.00  0.00    +0.000 A 
ATOM      7  C   UNL     1       1.845   7.690  19.404  0.00  0.00    +0.000 A 
ATOM      8  C   UNL     1       1.429   8.504  20.450  0.00  0.00    +0.000 A 
ATOM      9  C   UNL     1       1.077   9.856  20.229  0.00  0.00    +0.000 A 
ATOM     10  C   UNL     1       0.469  10.669  21.207  0.00  0.00    +0.000 A 
ENDROOT
BRANCH   7  11
ATOM     11  C   UNL     1       2.151   6.230  19.431  0.00  0.00    +0.000 C 
ATOM     12  O   UNL     1       1.516   5.627  20.300  0.00  0.00    +0.000 OA
ATOM     13  N   UNL     1       3.125   5.615  18.597  0.00  0.00    +0.000 N 
ATOM     14  C   UNL     1       3.984   6.370  17.674  0.00  0.00    +0.000 C 
BRANCH  13  15
ATOM     15  C   UNL     1       3.358   4.175  18.682  0.00  0.00    +0.000 A 
ATOM     16  C   UNL     1       4.154   3.616  19.698  0.00  0.00    +0.000 A 
ATOM     17  C   UNL     1       4.449   2.245  19.740  0.00  0.00    +0.000 A 
ATOM     18  C   UNL     1       3.932   1.387  18.782  0.00  0.00    +0.000 A 
ATOM     19  C   UNL     1       3.104   1.899  17.792  0.00  0.00    +0.000 A 
ATOM     20  C   UNL     1       2.814   3.272  17.750  0.00  0.00    +0.000 A 
ENDBRANCH  13  15
ENDBRANCH   7  11
BRANCH   1  22
ATOM     21  C   UNL     1      -1.596  11.673  23.058  0.00  0.00    +0.000 C 
ATOM     22  S   UNL     1      -0.639  12.968  22.224  0.00  0.00    +0.000 S 
ENDBRANCH   1  22
BRANCH   8  23
ATOM     23  O   UNL     1       1.401   8.062  21.751  0.00  0.00    +0.000 OA
ATOM     24  H   UNL     1       1.458   8.842  22.334  0.00  0.00    +0.000 HD
ENDBRANCH   8  23
TORSDOF 4
ENDMDL
MODEL 9
REMARK VINA RESULT:      -7.0      1.179      1.409
REMARK  Name = 
REMARK  6 active torsions:
REMARK  status: ('A' for Active; 'I' for Inactive)
REMARK    1  A    between atoms: C_1  and  S_2
REMARK    2  A    between atoms: S_2  and  C_3
REMARK    3  A    between atoms: C_9  and  C_10
REMARK    4  A    between atoms: N_12  and  C_13
REMARK    5  A    between atoms: N_12  and  C_14
REMARK    6  A    between atoms: C_20  and  O_21
REMARK                            x       y       z     vdW  Elec       q    Type
REMARK                         _______ _______ _______ _____ _____    ______ ____
ROOT
ATOM      1  C   UNL     1      -0.573  11.487  21.193  0.00  0.00    +0.000 A 
ATOM      2  C   UNL     1      -0.814  10.612  22.249  0.00  0.00    +0.000 A 
ATOM      3  C   UNL     1      -0.238   9.337  22.244  0.00  0.00    +0.000 A 
ATOM      4  C   UNL     1       0.569   8.900  21.201  0.00  0.00    +0.000 A 
ATOM      5  N   UNL     1       1.142   7.695  21.277  0.00  0.00    +0.000 NA
ATOM      6  C   UNL     1       1.942   7.302  20.251  0.00  0.00    +0.000 A 
ATOM      7  C   UNL     1       2.178   8.038  19.091  0.00  0.00    +0.000 A 
ATOM      8  C   UNL     1       1.476   9.233  18.990  0.00  0.00    +0.000 A 
ATOM      9  C   UNL     1       0.741   9.743  20.084  0.00  0.00    +0.000 A 
ATOM     10  C   UNL     1       0.174  11.034  20.104  0.00  0.00    +0.000 A 
ENDROOT
BRANCH   7  11
ATOM     11  C   UNL     1       3.084   7.407  18.086  0.00  0.00    +0.000 C 
ATOM     12  O   UNL     1       3.022   7.953  16.982  0.00  0.00    +0.000 OA
ATOM     13  N   UNL     1       3.873   6.254  18.354  0.00  0.00    +0.000 N 
ATOM     14  C   UNL     1       3.819   5.522  19.627  0.00  0.00    +0.000 C 
BRANCH  13  15
ATOM     15  C   UNL     1       4.740   5.704  17.315  0.00  0.00    +0.000 A 
ATOM     16  C   UNL     1       4.372   4.567  16.574  0.00  0.00    +0.000 A 
ATOM     17  C   UNL     1       5.233   3.984  15.632  0.00  0.00    +0.000 A 
ATOM     18  C   UNL     1       6.479   4.540  15.383  0.00  0.00    +0.000 A 
ATOM     19  C   UNL     1       6.854   5.690  16.063  0.00  0.00    +0.000 A 
ATOM     20  C   UNL     1       5.993   6.268  17.008  0.00  0.00    +0.000 A 
ENDBRANCH  13  15
ENDBRANCH   7  11
BRANCH   1  22
ATOM     21  C   UNL     1      -2.800  12.864  20.311  0.00  0.00    +0.000 C 
ATOM     22  S   UNL     1      -1.226  13.144  21.169  0.00  0.00    +0.000 S 
ENDBRANCH   1  22
BRANCH   8  23
ATOM     23  O   UNL     1       1.408   9.940  17.814  0.00  0.00    +0.000 OA
ATOM     24  H   UNL     1       1.699  10.854  17.997  0.00  0.00    +0.000 HD
ENDBRANCH   8  23
TORSDOF 4
ENDMDL
