MODEL 1
REMARK VINA RESULT:      -9.0      0.000      0.000
REMARK  Name = 
REMARK  7 active torsions:
REMARK  status: ('A' for Active; 'I' for Inactive)
REMARK    1  A    between atoms: C_1  and  C_2
REMARK    2  A    between atoms: C_6  and  C_8
REMARK    3  A    between atoms: N_17  and  C_18
REMARK    4  A    between atoms: C_18  and  C_19
REMARK    5  A    between atoms: C_25  and  O_26
REMARK    6  A    between atoms: O_26  and  C_27
REMARK    7  A    between atoms: C_27  and  C_28
REMARK                            x       y       z     vdW  Elec       q    Type
REMARK                         _______ _______ _______ _____ _____    ______ ____
ROOT
ATOM      1  C   UNL     1       6.931   4.427  18.116  0.00  0.00    +0.000 C 
ATOM      2  C   UNL     1       7.254   5.874  18.076  0.00  0.00    +0.000 A 
ATOM      3  C   UNL     1       8.275   6.557  18.714  0.00  0.00    +0.000 A 
ATOM      4  C   UNL     1       8.154   7.905  18.312  0.00  0.00    +0.000 A 
ATOM      5  N   UNL     1       8.993   8.922  18.730  0.00  0.00    +0.000 N 
ATOM      6  C   UNL     1       8.881  10.237  18.302  0.00  0.00    +0.000 C 
ATOM      7  O   UNL     1       8.081  10.670  17.484  0.00  0.00    +0.000 OA
ATOM      8  N   UNL     1       7.118   8.052  17.490  0.00  0.00    +0.000 NA
ATOM      9  N   UNL     1       6.581   6.830  17.339  0.00  0.00    +0.000 N 
ATOM     10  H   UNL     1       9.699   8.667  19.405  0.00  0.00    +0.000 HD
ENDROOT
BRANCH   6  11
ATOM     11  C   UNL     1       9.813  11.209  18.904  0.00  0.00    +0.000 A 
ATOM     12  C   UNL     1       9.749  11.455  20.279  0.00  0.00    +0.000 A 
ATOM     13  F   UNL     1       8.770  10.938  21.036  0.00  0.00    +0.000 F 
ATOM     14  C   UNL     1      10.690  12.265  20.913  0.00  0.00    +0.000 A 
ATOM     15  C   UNL     1      11.714  12.851  20.173  0.00  0.00    +0.000 A 
ATOM     16  C   UNL     1      11.770  12.646  18.795  0.00  0.00    +0.000 A 
ATOM     17  C   UNL     1      10.819  11.833  18.169  0.00  0.00    +0.000 A 
ATOM     18  F   UNL     1      10.913  11.661  16.843  0.00  0.00    +0.000 F 
ENDBRANCH   6  11
BRANCH   9  19
ATOM     19  C   UNL     1       5.418   6.685  16.438  0.00  0.00    +0.000 C 
BRANCH  19  20
ATOM     20  C   UNL     1       4.082   6.899  17.135  0.00  0.00    +0.000 A 
ATOM     21  C   UNL     1       3.568   8.210  17.247  0.00  0.00    +0.000 A 
ATOM     22  C   UNL     1       2.385   8.481  17.926  0.00  0.00    +0.000 A 
ATOM     23 CL   UNL     1       1.809  10.097  18.032  0.00  0.00    +0.000 Cl
ATOM     24  C   UNL     1       1.678   7.453  18.523  0.00  0.00    +0.000 A 
ATOM     25  C   UNL     1       2.136   6.144  18.390  0.00  0.00    +0.000 A 
ATOM     26  C   UNL     1       3.297   5.839  17.651  0.00  0.00    +0.000 A 
BRANCH  26  27
ATOM     27  O   UNL     1       3.681   4.536  17.401  0.00  0.00    +0.000 OA
BRANCH  27  28
ATOM     28  C   UNL     1       2.633   3.558  17.566  0.00  0.00    +0.000 C 
BRANCH  28  29
ATOM     29  C   UNL     1       2.382   3.220  19.016  0.00  0.00    +0.000 A 
ATOM     30  C   UNL     1       1.079   3.192  19.526  0.00  0.00    +0.000 A 
ATOM     31  C   UNL     1       0.852   2.865  20.865  0.00  0.00    +0.000 A 
ATOM     32  C   UNL     1       1.922   2.556  21.702  0.00  0.00    +0.000 A 
ATOM     33  C   UNL     1       3.221   2.553  21.200  0.00  0.00    +0.000 A 
ATOM     34  C   UNL     1       3.450   2.878  19.862  0.00  0.00    +0.000 A 
ENDBRANCH  28  29
ENDBRANCH  27  28
ENDBRANCH  26  27
ENDBRANCH  19  20
ENDBRANCH   9  19
TORSDOF 6
ENDMDL
MODEL 2
REMARK VINA RESULT:      -8.9      2.098      4.042
REMARK  Name = 
REMARK  7 active torsions:
REMARK  status: ('A' for Active; 'I' for Inactive)
REMARK    1  A    between atoms: C_1  and  C_2
REMARK    2  A    between atoms: C_6  and  C_8
REMARK    3  A    between atoms: N_17  and  C_18
REMARK    4  A    between atoms: C_18  and  C_19
REMARK    5  A    between atoms: C_25  and  O_26
REMARK    6  A    between atoms: O_26  and  C_27
REMARK    7  A    between atoms: C_27  and  C_28
REMARK                            x       y       z     vdW  Elec       q    Type
REMARK                         _______ _______ _______ _____ _____    ______ ____
ROOT
ATOM      1  C   UNL     1       6.908   4.354  18.131  0.00  0.00    +0.000 C 
ATOM      2  C   UNL     1       7.216   5.805  18.123  0.00  0.00    +0.000 A 
ATOM      3  C   UNL     1       8.218   6.487  18.792  0.00  0.00    +0.000 A 
ATOM      4  C   UNL     1       8.090   7.841  18.411  0.00  0.00    +0.000 A 
ATOM      5  N   UNL     1       8.911   8.858  18.863  0.00  0.00    +0.000 N 
ATOM      6  C   UNL     1       8.793  10.179  18.456  0.00  0.00    +0.000 C 
ATOM      7  O   UNL     1       8.004  10.618  17.630  0.00  0.00    +0.000 OA
ATOM      8  N   UNL     1       7.069   7.991  17.571  0.00  0.00    +0.000 NA
ATOM      9  N   UNL     1       6.549   6.767  17.389  0.00  0.00    +0.000 N 
ATOM     10  H   UNL     1       9.606   8.599  19.548  0.00  0.00    +0.000 HD
ENDROOT
BRANCH   6  11
ATOM     11  C   UNL     1       9.703  11.151  19.093  0.00  0.00    +0.000 A 
ATOM     12  C   UNL     1      10.719  11.735  18.331  0.00  0.00    +0.000 A 
ATOM     13  F   UNL     1      10.977  11.327  17.080  0.00  0.00    +0.000 F 
ATOM     14  C   UNL     1      11.519  12.751  18.853  0.00  0.00    +0.000 A 
ATOM     15  C   UNL     1      11.316  13.196  20.156  0.00  0.00    +0.000 A 
ATOM     16  C   UNL     1      10.331  12.598  20.941  0.00  0.00    +0.000 A 
ATOM     17  C   UNL     1       9.535  11.578  20.409  0.00  0.00    +0.000 A 
ATOM     18  F   UNL     1       8.599  11.033  21.199  0.00  0.00    +0.000 F 
ENDBRANCH   6  11
BRANCH   9  19
ATOM     19  C   UNL     1       5.405   6.626  16.463  0.00  0.00    +0.000 C 
BRANCH  19  20
ATOM     20  C   UNL     1       4.214   5.902  17.075  0.00  0.00    +0.000 A 
ATOM     21  C   UNL     1       4.138   4.495  16.969  0.00  0.00    +0.000 A 
ATOM     22  C   UNL     1       3.047   3.780  17.451  0.00  0.00    +0.000 A 
ATOM     23 CL   UNL     1       3.008   2.069  17.292  0.00  0.00    +0.000 Cl
ATOM     24  C   UNL     1       1.992   4.445  18.048  0.00  0.00    +0.000 A 
ATOM     25  C   UNL     1       2.061   5.827  18.209  0.00  0.00    +0.000 A 
ATOM     26  C   UNL     1       3.186   6.564  17.787  0.00  0.00    +0.000 A 
BRANCH  26  27
ATOM     27  O   UNL     1       3.320   7.911  18.063  0.00  0.00    +0.000 OA
BRANCH  27  28
ATOM     28  C   UNL     1       2.153   8.706  17.764  0.00  0.00    +0.000 C 
BRANCH  28  29
ATOM     29  C   UNL     1       1.505   9.268  19.007  0.00  0.00    +0.000 A 
ATOM     30  C   UNL     1       1.512   8.544  20.204  0.00  0.00    +0.000 A 
ATOM     31  C   UNL     1       0.923   9.075  21.354  0.00  0.00    +0.000 A 
ATOM     32  C   UNL     1       0.331  10.337  21.320  0.00  0.00    +0.000 A 
ATOM     33  C   UNL     1       0.342  11.079  20.142  0.00  0.00    +0.000 A 
ATOM     34  C   UNL     1       0.931  10.551  18.992  0.00  0.00    +0.000 A 
ENDBRANCH  28  29
ENDBRANCH  27  28
ENDBRANCH  26  27
ENDBRANCH  19  20
ENDBRANCH   9  19
TORSDOF 6
ENDMDL
MODEL 3
REMARK VINA RESULT:      -8.8      6.587      9.634
REMARK  Name = 
REMARK  7 active torsions:
REMARK  status: ('A' for Active; 'I' for Inactive)
REMARK    1  A    between atoms: C_1  and  C_2
REMARK    2  A    between atoms: C_6  and  C_8
REMARK    3  A    between atoms: N_17  and  C_18
REMARK    4  A    between atoms: C_18  and  C_19
REMARK    5  A    between atoms: C_25  and  O_26
REMARK    6  A    between atoms: O_26  and  C_27
REMARK    7  A    between atoms: C_27  and  C_28
REMARK                            x       y       z     vdW  Elec       q    Type
REMARK                         _______ _______ _______ _____ _____    ______ ____
ROOT
ATOM      1  C   UNL     1      -0.371  10.186  22.783  0.00  0.00    +0.000 C 
ATOM      2  C   UNL     1       0.355   9.668  21.598  0.00  0.00    +0.000 A 
ATOM      3  C   UNL     1       0.986   8.447  21.427  0.00  0.00    +0.000 A 
ATOM      4  C   UNL     1       1.487   8.449  20.107  0.00  0.00    +0.000 A 
ATOM      5  N   UNL     1       2.187   7.400  19.538  0.00  0.00    +0.000 N 
ATOM      6  C   UNL     1       2.647   7.402  18.229  0.00  0.00    +0.000 C 
ATOM      7  O   UNL     1       2.467   8.282  17.397  0.00  0.00    +0.000 OA
ATOM      8  N   UNL     1       1.198   9.598  19.503  0.00  0.00    +0.000 NA
ATOM      9  N   UNL     1       0.509  10.329  20.395  0.00  0.00    +0.000 N 
ATOM     10  H   UNL     1       2.383   6.615  20.143  0.00  0.00    +0.000 HD
ENDROOT
BRANCH   6  11
ATOM     11  C   UNL     1       3.440   6.233  17.805  0.00  0.00    +0.000 A 
ATOM     12  C   UNL     1       2.827   4.978  17.745  0.00  0.00    +0.000 A 
ATOM     13  F   UNL     1       1.580   4.787  18.200  0.00  0.00    +0.000 F 
ATOM     14  C   UNL     1       3.498   3.870  17.228  0.00  0.00    +0.000 A 
ATOM     15  C   UNL     1       4.805   4.003  16.766  0.00  0.00    +0.000 A 
ATOM     16  C   UNL     1       5.443   5.239  16.854  0.00  0.00    +0.000 A 
ATOM     17  C   UNL     1       4.761   6.343  17.376  0.00  0.00    +0.000 A 
ATOM     18  F   UNL     1       5.413   7.513  17.439  0.00  0.00    +0.000 F 
ENDBRANCH   6  11
BRANCH   9  19
ATOM     19  C   UNL     1       0.023  11.661  19.978  0.00  0.00    +0.000 C 
BRANCH  19  20
ATOM     20  C   UNL     1      -1.345  11.626  19.311  0.00  0.00    +0.000 A 
ATOM     21  C   UNL     1      -1.458  11.097  18.005  0.00  0.00    +0.000 A 
ATOM     22  C   UNL     1      -2.665  11.093  17.316  0.00  0.00    +0.000 A 
ATOM     23 CL   UNL     1      -2.743  10.438  15.729  0.00  0.00    +0.000 Cl
ATOM     24  C   UNL     1      -3.799  11.623  17.903  0.00  0.00    +0.000 A 
ATOM     25  C   UNL     1      -3.728  12.110  19.207  0.00  0.00    +0.000 A 
ATOM     26  C   UNL     1      -2.530  12.064  19.947  0.00  0.00    +0.000 A 
BRANCH  26  27
ATOM     27  O   UNL     1      -2.485  12.418  21.281  0.00  0.00    +0.000 OA
BRANCH  27  28
ATOM     28  C   UNL     1      -3.444  13.424  21.671  0.00  0.00    +0.000 C 
BRANCH  28  29
ATOM     29  C   UNL     1      -3.045  14.141  22.938  0.00  0.00    +0.000 A 
ATOM     30  C   UNL     1      -1.710  14.159  23.357  0.00  0.00    +0.000 A 
ATOM     31  C   UNL     1      -1.344  14.836  24.522  0.00  0.00    +0.000 A 
ATOM     32  C   UNL     1      -2.307  15.508  25.274  0.00  0.00    +0.000 A 
ATOM     33  C   UNL     1      -3.634  15.521  24.853  0.00  0.00    +0.000 A 
ATOM     34  C   UNL     1      -4.002  14.846  23.688  0.00  0.00    +0.000 A 
ENDBRANCH  28  29
ENDBRANCH  27  28
ENDBRANCH  26  27
ENDBRANCH  19  20
ENDBRANCH   9  19
TORSDOF 6
ENDMDL
MODEL 4
REMARK VINA RESULT:      -8.8      6.732      9.781
REMARK  Name = 
REMARK  7 active torsions:
REMARK  status: ('A' for Active; 'I' for Inactive)
REMARK    1  A    between atoms: C_1  and  C_2
REMARK    2  A    between atoms: C_6  and  C_8
REMARK    3  A    between atoms: N_17  and  C_18
REMARK    4  A    between atoms: C_18  and  C_19
REMARK    5  A    between atoms: C_25  and  O_26
REMARK    6  A    between atoms: O_26  and  C_27
REMARK    7  A    between atoms: C_27  and  C_28
REMARK                            x       y       z     vdW  Elec       q    Type
REMARK                         _______ _______ _______ _____ _____    ______ ____
ROOT
ATOM      1  C   UNL     1      -0.200   9.956  22.990  0.00  0.00    +0.000 C 
ATOM      2  C   UNL     1       0.491   9.449  21.781  0.00  0.00    +0.000 A 
ATOM      3  C   UNL     1       1.088   8.217  21.569  0.00  0.00    +0.000 A 
ATOM      4  C   UNL     1       1.564   8.237  20.240  0.00  0.00    +0.000 A 
ATOM      5  N   UNL     1       2.227   7.185  19.634  0.00  0.00    +0.000 N 
ATOM      6  C   UNL     1       2.663   7.207  18.317  0.00  0.00    +0.000 C 
ATOM      7  O   UNL     1       2.491   8.110  17.509  0.00  0.00    +0.000 OA
ATOM      8  N   UNL     1       1.294   9.408  19.669  0.00  0.00    +0.000 NA
ATOM      9  N   UNL     1       0.640  10.134  20.590  0.00  0.00    +0.000 N 
ATOM     10  H   UNL     1       2.414   6.382  20.217  0.00  0.00    +0.000 HD
ENDROOT
BRANCH   6  11
ATOM     11  C   UNL     1       3.419   6.029  17.852  0.00  0.00    +0.000 A 
ATOM     12  C   UNL     1       2.755   4.808  17.703  0.00  0.00    +0.000 A 
ATOM     13  F   UNL     1       1.487   4.648  18.109  0.00  0.00    +0.000 F 
ATOM     14  C   UNL     1       3.394   3.702  17.144  0.00  0.00    +0.000 A 
ATOM     15  C   UNL     1       4.720   3.801  16.729  0.00  0.00    +0.000 A 
ATOM     16  C   UNL     1       5.407   5.001  16.905  0.00  0.00    +0.000 A 
ATOM     17  C   UNL     1       4.757   6.104  17.468  0.00  0.00    +0.000 A 
ATOM     18  F   UNL     1       5.455   7.239  17.617  0.00  0.00    +0.000 F 
ENDBRANCH   6  11
BRANCH   9  19
ATOM     19  C   UNL     1       0.180  11.488  20.214  0.00  0.00    +0.000 C 
BRANCH  19  20
ATOM     20  C   UNL     1      -1.224  11.509  19.626  0.00  0.00    +0.000 A 
ATOM     21  C   UNL     1      -1.519  10.678  18.522  0.00  0.00    +0.000 A 
ATOM     22  C   UNL     1      -2.762  10.697  17.899  0.00  0.00    +0.000 A 
ATOM     23 CL   UNL     1      -3.062   9.665  16.557  0.00  0.00    +0.000 Cl
ATOM     24  C   UNL     1      -3.751  11.549  18.353  0.00  0.00    +0.000 A 
ATOM     25  C   UNL     1      -3.505  12.346  19.469  0.00  0.00    +0.000 A 
ATOM     26  C   UNL     1      -2.275  12.296  20.155  0.00  0.00    +0.000 A 
BRANCH  26  27
ATOM     27  O   UNL     1      -2.072  12.980  21.338  0.00  0.00    +0.000 OA
BRANCH  27  28
ATOM     28  C   UNL     1      -2.905  12.547  22.434  0.00  0.00    +0.000 C 
BRANCH  28  29
ATOM     29  C   UNL     1      -3.743  13.669  23.000  0.00  0.00    +0.000 A 
ATOM     30  C   UNL     1      -3.235  14.500  24.005  0.00  0.00    +0.000 A 
ATOM     31  C   UNL     1      -4.009  15.545  24.514  0.00  0.00    +0.000 A 
ATOM     32  C   UNL     1      -5.292  15.774  24.018  0.00  0.00    +0.000 A 
ATOM     33  C   UNL     1      -5.797  14.972  22.999  0.00  0.00    +0.000 A 
ATOM     34  C   UNL     1      -5.025  13.927  22.487  0.00  0.00    +0.000 A 
ENDBRANCH  28  29
ENDBRANCH  27  28
ENDBRANCH  26  27
ENDBRANCH  19  20
ENDBRANCH   9  19
TORSDOF 6
ENDMDL
MODEL 5
REMARK VINA RESULT:      -8.7      2.132      4.065
REMARK  Name = 
REMARK  7 active torsions:
REMARK  status: ('A' for Active; 'I' for Inactive)
REMARK    1  A    between atoms: C_1  and  C_2
REMARK    2  A    between atoms: C_6  and  C_8
REMARK    3  A    between atoms: N_17  and  C_18
REMARK    4  A    between atoms: C_18  and  C_19
REMARK    5  A    between atoms: C_25  and  O_26
REMARK    6  A    between atoms: O_26  and  C_27
REMARK    7  A    between atoms: C_27  and  C_28
REMARK                            x       y       z     vdW  Elec       q    Type
REMARK                         _______ _______ _______ _____ _____    ______ ____
ROOT
ATOM      1  C   UNL     1       6.850   4.349  18.118  0.00  0.00    +0.000 C 
ATOM      2  C   UNL     1       7.167   5.797  18.090  0.00  0.00    +0.000 A 
ATOM      3  C   UNL     1       8.193   6.477  18.724  0.00  0.00    +0.000 A 
ATOM      4  C   UNL     1       8.062   7.829  18.337  0.00  0.00    +0.000 A 
ATOM      5  N   UNL     1       8.903   8.844  18.757  0.00  0.00    +0.000 N 
ATOM      6  C   UNL     1       8.782  10.163  18.344  0.00  0.00    +0.000 C 
ATOM      7  O   UNL     1       7.971  10.601  17.538  0.00  0.00    +0.000 OA
ATOM      8  N   UNL     1       7.018   7.981  17.527  0.00  0.00    +0.000 NA
ATOM      9  N   UNL     1       6.484   6.758  17.370  0.00  0.00    +0.000 N 
ATOM     10  H   UNL     1       9.617   8.585  19.422  0.00  0.00    +0.000 HD
ENDROOT
BRANCH   6  11
ATOM     11  C   UNL     1       9.717  11.132  18.946  0.00  0.00    +0.000 A 
ATOM     12  C   UNL     1       9.619  11.416  20.311  0.00  0.00    +0.000 A 
ATOM     13  F   UNL     1       8.609  10.940  21.054  0.00  0.00    +0.000 F 
ATOM     14  C   UNL     1      10.559  12.225  20.950  0.00  0.00    +0.000 A 
ATOM     15  C   UNL     1      11.615  12.770  20.224  0.00  0.00    +0.000 A 
ATOM     16  C   UNL     1      11.705  12.526  18.854  0.00  0.00    +0.000 A 
ATOM     17  C   UNL     1      10.756  11.716  18.223  0.00  0.00    +0.000 A 
ATOM     18  F   UNL     1      10.883  11.507  16.905  0.00  0.00    +0.000 F 
ENDBRANCH   6  11
BRANCH   9  19
ATOM     19  C   UNL     1       5.312   6.618  16.480  0.00  0.00    +0.000 C 
BRANCH  19  20
ATOM     20  C   UNL     1       4.140   5.896  17.129  0.00  0.00    +0.000 A 
ATOM     21  C   UNL     1       4.096   4.484  17.088  0.00  0.00    +0.000 A 
ATOM     22  C   UNL     1       3.023   3.767  17.606  0.00  0.00    +0.000 A 
ATOM     23 CL   UNL     1       3.024   2.050  17.526  0.00  0.00    +0.000 Cl
ATOM     24  C   UNL     1       1.955   4.434  18.176  0.00  0.00    +0.000 A 
ATOM     25  C   UNL     1       1.992   5.824  18.273  0.00  0.00    +0.000 A 
ATOM     26  C   UNL     1       3.098   6.566  17.813  0.00  0.00    +0.000 A 
BRANCH  26  27
ATOM     27  O   UNL     1       3.201   7.927  18.027  0.00  0.00    +0.000 OA
BRANCH  27  28
ATOM     28  C   UNL     1       2.045   8.690  17.622  0.00  0.00    +0.000 C 
BRANCH  28  29
ATOM     29  C   UNL     1       1.644   9.720  18.650  0.00  0.00    +0.000 A 
ATOM     30  C   UNL     1       1.771  11.087  18.376  0.00  0.00    +0.000 A 
ATOM     31  C   UNL     1       1.386  12.036  19.326  0.00  0.00    +0.000 A 
ATOM     32  C   UNL     1       0.863  11.628  20.552  0.00  0.00    +0.000 A 
ATOM     33  C   UNL     1       0.705  10.272  20.825  0.00  0.00    +0.000 A 
ATOM     34  C   UNL     1       1.088   9.322  19.877  0.00  0.00    +0.000 A 
ENDBRANCH  28  29
ENDBRANCH  27  28
ENDBRANCH  26  27
ENDBRANCH  19  20
ENDBRANCH   9  19
TORSDOF 6
ENDMDL
MODEL 6
REMARK VINA RESULT:      -8.7      2.254      4.377
REMARK  Name = 
REMARK  7 active torsions:
REMARK  status: ('A' for Active; 'I' for Inactive)
REMARK    1  A    between atoms: C_1  and  C_2
REMARK    2  A    between atoms: C_6  and  C_8
REMARK    3  A    between atoms: N_17  and  C_18
REMARK    4  A    between atoms: C_18  and  C_19
REMARK    5  A    between atoms: C_25  and  O_26
REMARK    6  A    between atoms: O_26  and  C_27
REMARK    7  A    between atoms: C_27  and  C_28
REMARK                            x       y       z     vdW  Elec       q    Type
REMARK                         _______ _______ _______ _____ _____    ______ ____
ROOT
ATOM      1  C   UNL     1       6.913   4.460  18.377  0.00  0.00    +0.000 C 
ATOM      2  C   UNL     1       7.233   5.907  18.316  0.00  0.00    +0.000 A 
ATOM      3  C   UNL     1       8.266   6.598  18.927  0.00  0.00    +0.000 A 
ATOM      4  C   UNL     1       8.136   7.941  18.513  0.00  0.00    +0.000 A 
ATOM      5  N   UNL     1       8.982   8.963  18.904  0.00  0.00    +0.000 N 
ATOM      6  C   UNL     1       8.861  10.273  18.465  0.00  0.00    +0.000 C 
ATOM      7  O   UNL     1       8.044  10.697  17.658  0.00  0.00    +0.000 OA
ATOM      8  N   UNL     1       7.084   8.079  17.709  0.00  0.00    +0.000 NA
ATOM      9  N   UNL     1       6.546   6.854  17.583  0.00  0.00    +0.000 N 
ATOM     10  H   UNL     1       9.701   8.716  19.568  0.00  0.00    +0.000 HD
ENDROOT
BRANCH   6  11
ATOM     11  C   UNL     1       9.803  11.253  19.038  0.00  0.00    +0.000 A 
ATOM     12  C   UNL     1      10.846  11.741  18.245  0.00  0.00    +0.000 A 
ATOM     13  F   UNL     1      11.095  11.234  17.029  0.00  0.00    +0.000 F 
ATOM     14  C   UNL     1      11.681  12.761  18.699  0.00  0.00    +0.000 A 
ATOM     15  C   UNL     1      11.487  13.307  19.965  0.00  0.00    +0.000 A 
ATOM     16  C   UNL     1      10.476  12.805  20.782  0.00  0.00    +0.000 A 
ATOM     17  C   UNL     1       9.644  11.780  20.318  0.00  0.00    +0.000 A 
ATOM     18  F   UNL     1       8.683  11.330  21.137  0.00  0.00    +0.000 F 
ENDBRANCH   6  11
BRANCH   9  19
ATOM     19  C   UNL     1       5.365   6.699  16.706  0.00  0.00    +0.000 C 
BRANCH  19  20
ATOM     20  C   UNL     1       4.229   5.918  17.352  0.00  0.00    +0.000 A 
ATOM     21  C   UNL     1       3.587   6.456  18.490  0.00  0.00    +0.000 A 
ATOM     22  C   UNL     1       2.587   5.766  19.164  0.00  0.00    +0.000 A 
ATOM     23 CL   UNL     1       1.842   6.469  20.545  0.00  0.00    +0.000 Cl
ATOM     24  C   UNL     1       2.197   4.512  18.731  0.00  0.00    +0.000 A 
ATOM     25  C   UNL     1       2.780   3.976  17.583  0.00  0.00    +0.000 A 
ATOM     26  C   UNL     1       3.749   4.686  16.847  0.00  0.00    +0.000 A 
BRANCH  26  27
ATOM     27  O   UNL     1       4.231   4.222  15.639  0.00  0.00    +0.000 OA
BRANCH  27  28
ATOM     28  C   UNL     1       5.631   3.870  15.644  0.00  0.00    +0.000 C 
BRANCH  28  29
ATOM     29  C   UNL     1       6.283   4.085  14.299  0.00  0.00    +0.000 A 
ATOM     30  C   UNL     1       5.829   3.397  13.168  0.00  0.00    +0.000 A 
ATOM     31  C   UNL     1       6.428   3.611  11.924  0.00  0.00    +0.000 A 
ATOM     32  C   UNL     1       7.478   4.520  11.799  0.00  0.00    +0.000 A 
ATOM     33  C   UNL     1       7.920   5.231  12.911  0.00  0.00    +0.000 A 
ATOM     34  C   UNL     1       7.323   5.020  14.155  0.00  0.00    +0.000 A 
ENDBRANCH  28  29
ENDBRANCH  27  28
ENDBRANCH  26  27
ENDBRANCH  19  20
ENDBRANCH   9  19
TORSDOF 6
ENDMDL
MODEL 7
REMARK VINA RESULT:      -8.7      6.835      9.847
REMARK  Name = 
REMARK  7 active torsions:
REMARK  status: ('A' for Active; 'I' for Inactive)
REMARK    1  A    between atoms: C_1  and  C_2
REMARK    2  A    between atoms: C_6  and  C_8
REMARK    3  A    between atoms: N_17  and  C_18
REMARK    4  A    between atoms: C_18  and  C_19
REMARK    5  A    between atoms: C_25  and  O_26
REMARK    6  A    between atoms: O_26  and  C_27
REMARK    7  A    between atoms: C_27  and  C_28
REMARK                            x       y       z     vdW  Elec       q    Type
REMARK                         _______ _______ _______ _____ _____    ______ ____
ROOT
ATOM      1  C   UNL     1      -0.364  10.178  22.882  0.00  0.00    +0.000 C 
ATOM      2  C   UNL     1       0.343   9.677  21.678  0.00  0.00    +0.000 A 
ATOM      3  C   UNL     1       0.978   8.463  21.482  0.00  0.00    +0.000 A 
ATOM      4  C   UNL     1       1.453   8.481  20.153  0.00  0.00    +0.000 A 
ATOM      5  N   UNL     1       2.149   7.443  19.560  0.00  0.00    +0.000 N 
ATOM      6  C   UNL     1       2.583   7.461  18.243  0.00  0.00    +0.000 C 
ATOM      7  O   UNL     1       2.381   8.347  17.423  0.00  0.00    +0.000 OA
ATOM      8  N   UNL     1       1.145   9.634  19.566  0.00  0.00    +0.000 NA
ATOM      9  N   UNL     1       0.469  10.351  20.479  0.00  0.00    +0.000 N 
ATOM     10  H   UNL     1       2.363   6.654  20.153  0.00  0.00    +0.000 HD
ENDROOT
BRANCH   6  11
ATOM     11  C   UNL     1       3.376   6.302  17.792  0.00  0.00    +0.000 A 
ATOM     12  C   UNL     1       4.735   6.472  17.511  0.00  0.00    +0.000 A 
ATOM     13  F   UNL     1       5.300   7.689  17.503  0.00  0.00    +0.000 F 
ATOM     14  C   UNL     1       5.552   5.384  17.208  0.00  0.00    +0.000 A 
ATOM     15  C   UNL     1       5.015   4.100  17.174  0.00  0.00    +0.000 A 
ATOM     16  C   UNL     1       3.654   3.918  17.415  0.00  0.00    +0.000 A 
ATOM     17  C   UNL     1       2.843   5.017  17.716  0.00  0.00    +0.000 A 
ATOM     18  F   UNL     1       1.541   4.794  17.943  0.00  0.00    +0.000 F 
ENDBRANCH   6  11
BRANCH   9  19
ATOM     19  C   UNL     1      -0.035  11.684  20.084  0.00  0.00    +0.000 C 
BRANCH  19  20
ATOM     20  C   UNL     1      -1.459  11.659  19.546  0.00  0.00    +0.000 A 
ATOM     21  C   UNL     1      -1.745  10.883  18.400  0.00  0.00    +0.000 A 
ATOM     22  C   UNL     1      -3.009  10.866  17.821  0.00  0.00    +0.000 A 
ATOM     23 CL   UNL     1      -3.299   9.904  16.426  0.00  0.00    +0.000 Cl
ATOM     24  C   UNL     1      -4.028  11.629  18.360  0.00  0.00    +0.000 A 
ATOM     25  C   UNL     1      -3.787  12.369  19.516  0.00  0.00    +0.000 A 
ATOM     26  C   UNL     1      -2.532  12.349  20.157  0.00  0.00    +0.000 A 
BRANCH  26  27
ATOM     27  O   UNL     1      -2.326  12.968  21.374  0.00  0.00    +0.000 OA
BRANCH  27  28
ATOM     28  C   UNL     1      -3.152  12.473  22.450  0.00  0.00    +0.000 C 
BRANCH  28  29
ATOM     29  C   UNL     1      -4.106  13.519  22.973  0.00  0.00    +0.000 A 
ATOM     30  C   UNL     1      -3.639  14.780  23.362  0.00  0.00    +0.000 A 
ATOM     31  C   UNL     1      -4.528  15.749  23.831  0.00  0.00    +0.000 A 
ATOM     32  C   UNL     1      -5.892  15.470  23.908  0.00  0.00    +0.000 A 
ATOM     33  C   UNL     1      -6.373  14.230  23.498  0.00  0.00    +0.000 A 
ATOM     34  C   UNL     1      -5.486  13.260  23.027  0.00  0.00    +0.000 A 
ENDBRANCH  28  29
ENDBRANCH  27  28
ENDBRANCH  26  27
ENDBRANCH  19  20
ENDBRANCH   9  19
TORSDOF 6
ENDMDL
MODEL 8
REMARK VINA RESULT:      -8.7      0.569      1.703
REMARK  Name = 
REMARK  7 active torsions:
REMARK  status: ('A' for Active; 'I' for Inactive)
REMARK    1  A    between atoms: C_1  and  C_2
REMARK    2  A    between atoms: C_6  and  C_8
REMARK    3  A    between atoms: N_17  and  C_18
REMARK    4  A    between atoms: C_18  and  C_19
REMARK    5  A    between atoms: C_25  and  O_26
REMARK    6  A    between atoms: O_26  and  C_27
REMARK    7  A    between atoms: C_27  and  C_28
REMARK                            x       y       z     vdW  Elec       q    Type
REMARK                         _______ _______ _______ _____ _____    ______ ____
ROOT
ATOM      1  C   UNL     1       7.203   4.481  18.189  0.00  0.00    +0.000 C 
ATOM      2  C   UNL     1       7.454   5.943  18.166  0.00  0.00    +0.000 A 
ATOM      3  C   UNL     1       8.411   6.674  18.848  0.00  0.00    +0.000 A 
ATOM      4  C   UNL     1       8.239   8.016  18.443  0.00  0.00    +0.000 A 
ATOM      5  N   UNL     1       9.008   9.071  18.899  0.00  0.00    +0.000 N 
ATOM      6  C   UNL     1       8.848  10.381  18.469  0.00  0.00    +0.000 C 
ATOM      7  O   UNL     1       8.063  10.776  17.618  0.00  0.00    +0.000 OA
ATOM      8  N   UNL     1       7.233   8.113  17.578  0.00  0.00    +0.000 NA
ATOM      9  N   UNL     1       6.766   6.866  17.402  0.00  0.00    +0.000 N 
ATOM     10  H   UNL     1       9.696   8.850  19.604  0.00  0.00    +0.000 HD
ENDROOT
BRANCH   6  11
ATOM     11  C   UNL     1       9.703  11.396  19.113  0.00  0.00    +0.000 A 
ATOM     12  C   UNL     1      10.696  12.029  18.359  0.00  0.00    +0.000 A 
ATOM     13  F   UNL     1      10.984  11.634  17.110  0.00  0.00    +0.000 F 
ATOM     14  C   UNL     1      11.440  13.084  18.885  0.00  0.00    +0.000 A 
ATOM     15  C   UNL     1      11.204  13.520  20.186  0.00  0.00    +0.000 A 
ATOM     16  C   UNL     1      10.243  12.875  20.964  0.00  0.00    +0.000 A 
ATOM     17  C   UNL     1       9.504  11.816  20.426  0.00  0.00    +0.000 A 
ATOM     18  F   UNL     1       8.589  11.227  21.209  0.00  0.00    +0.000 F 
ENDBRANCH   6  11
BRANCH   9  19
ATOM     19  C   UNL     1       5.652   6.667  16.451  0.00  0.00    +0.000 C 
BRANCH  19  20
ATOM     20  C   UNL     1       4.278   6.851  17.081  0.00  0.00    +0.000 A 
ATOM     21  C   UNL     1       3.771   8.159  17.251  0.00  0.00    +0.000 A 
ATOM     22  C   UNL     1       2.552   8.399  17.876  0.00  0.00    +0.000 A 
ATOM     23 CL   UNL     1       1.986  10.012  18.056  0.00  0.00    +0.000 Cl
ATOM     24  C   UNL     1       1.802   7.343  18.359  0.00  0.00    +0.000 A 
ATOM     25  C   UNL     1       2.255   6.040  18.165  0.00  0.00    +0.000 A 
ATOM     26  C   UNL     1       3.455   5.770  17.477  0.00  0.00    +0.000 A 
BRANCH  26  27
ATOM     27  O   UNL     1       3.840   4.482  17.163  0.00  0.00    +0.000 OA
BRANCH  27  28
ATOM     28  C   UNL     1       4.285   3.695  18.288  0.00  0.00    +0.000 C 
BRANCH  28  29
ATOM     29  C   UNL     1       3.162   3.367  19.242  0.00  0.00    +0.000 A 
ATOM     30  C   UNL     1       3.214   3.787  20.576  0.00  0.00    +0.000 A 
ATOM     31  C   UNL     1       2.165   3.494  21.450  0.00  0.00    +0.000 A 
ATOM     32  C   UNL     1       1.052   2.786  20.998  0.00  0.00    +0.000 A 
ATOM     33  C   UNL     1       0.976   2.386  19.666  0.00  0.00    +0.000 A 
ATOM     34  C   UNL     1       2.022   2.679  18.790  0.00  0.00    +0.000 A 
ENDBRANCH  28  29
ENDBRANCH  27  28
ENDBRANCH  26  27
ENDBRANCH  19  20
ENDBRANCH   9  19
TORSDOF 6
ENDMDL
MODEL 9
REMARK VINA RESULT:      -8.6      5.782      9.678
REMARK  Name = 
REMARK  7 active torsions:
REMARK  status: ('A' for Active; 'I' for Inactive)
REMARK    1  A    between atoms: C_1  and  C_2
REMARK    2  A    between atoms: C_6  and  C_8
REMARK    3  A    between atoms: N_17  and  C_18
REMARK    4  A    between atoms: C_18  and  C_19
REMARK    5  A    between atoms: C_25  and  O_26
REMARK    6  A    between atoms: O_26  and  C_27
REMARK    7  A    between atoms: C_27  and  C_28
REMARK                            x       y       z     vdW  Elec       q    Type
REMARK                         _______ _______ _______ _____ _____    ______ ____
ROOT
ATOM      1  C   UNL     1      -0.137  10.362  22.819  0.00  0.00    +0.000 C 
ATOM      2  C   UNL     1       0.495   9.544  21.755  0.00  0.00    +0.000 A 
ATOM      3  C   UNL     1       0.943   8.236  21.810  0.00  0.00    +0.000 A 
ATOM      4  C   UNL     1       1.423   7.933  20.517  0.00  0.00    +0.000 A 
ATOM      5  N   UNL     1       1.960   6.711  20.153  0.00  0.00    +0.000 N 
ATOM      6  C   UNL     1       2.400   6.416  18.870  0.00  0.00    +0.000 C 
ATOM      7  O   UNL     1       2.338   7.151  17.894  0.00  0.00    +0.000 OA
ATOM      8  N   UNL     1       1.295   8.987  19.716  0.00  0.00    +0.000 NA
ATOM      9  N   UNL     1       0.727   9.954  20.456  0.00  0.00    +0.000 N 
ATOM     10  H   UNL     1       2.049   6.026  20.889  0.00  0.00    +0.000 HD
ENDROOT
BRANCH   6  11
ATOM     11  C   UNL     1       3.014   5.090  18.670  0.00  0.00    +0.000 A 
ATOM     12  C   UNL     1       4.280   4.836  19.207  0.00  0.00    +0.000 A 
ATOM     13  F   UNL     1       5.008   5.810  19.771  0.00  0.00    +0.000 F 
ATOM     14  C   UNL     1       4.843   3.562  19.156  0.00  0.00    +0.000 A 
ATOM     15  C   UNL     1       4.145   2.516  18.557  0.00  0.00    +0.000 A 
ATOM     16  C   UNL     1       2.898   2.762  17.984  0.00  0.00    +0.000 A 
ATOM     17  C   UNL     1       2.342   4.044  18.039  0.00  0.00    +0.000 A 
ATOM     18  F   UNL     1       1.140   4.234  17.478  0.00  0.00    +0.000 F 
ENDBRANCH   6  11
BRANCH   9  19
ATOM     19  C   UNL     1       0.431  11.247  19.803  0.00  0.00    +0.000 C 
BRANCH  19  20
ATOM     20  C   UNL     1      -0.964  11.315  19.198  0.00  0.00    +0.000 A 
ATOM     21  C   UNL     1      -1.245  10.561  18.036  0.00  0.00    +0.000 A 
ATOM     22  C   UNL     1      -2.478  10.627  17.398  0.00  0.00    +0.000 A 
ATOM     23 CL   UNL     1      -2.763   9.688  15.986  0.00  0.00    +0.000 Cl
ATOM     24  C   UNL     1      -3.471  11.454  17.892  0.00  0.00    +0.000 A 
ATOM     25  C   UNL     1      -3.238  12.174  19.062  0.00  0.00    +0.000 A 
ATOM     26  C   UNL     1      -2.019  12.071  19.761  0.00  0.00    +0.000 A 
BRANCH  26  27
ATOM     27  O   UNL     1      -1.831  12.675  20.990  0.00  0.00    +0.000 OA
BRANCH  27  28
ATOM     28  C   UNL     1      -1.896  14.116  20.969  0.00  0.00    +0.000 C 
BRANCH  28  29
ATOM     29  C   UNL     1      -0.596  14.746  20.531  0.00  0.00    +0.000 A 
ATOM     30  C   UNL     1       0.566  14.588  21.295  0.00  0.00    +0.000 A 
ATOM     31  C   UNL     1       1.769  15.160  20.877  0.00  0.00    +0.000 A 
ATOM     32  C   UNL     1       1.824  15.888  19.690  0.00  0.00    +0.000 A 
ATOM     33  C   UNL     1       0.682  16.029  18.906  0.00  0.00    +0.000 A 
ATOM     34  C   UNL     1      -0.522  15.457  19.321  0.00  0.00    +0.000 A 
ENDBRANCH  28  29
ENDBRANCH  27  28
ENDBRANCH  26  27
ENDBRANCH  19  20
ENDBRANCH   9  19
TORSDOF 6
ENDMDL
