MODEL 1
REMARK VINA RESULT:      -6.1      0.000      0.000
REMARK  Name = 
REMARK  9 active torsions:
REMARK  status: ('A' for Active; 'I' for Inactive)
REMARK    1  A    between atoms: C_1  and  N_2
REMARK    2  A    between atoms: N_2  and  C_3
REMARK    3  A    between atoms: N_2  and  S_14
REMARK    4  A    between atoms: C_3  and  C_4
REMARK    5  A    between atoms: C_4  and  N_5
REMARK    6  A    between atoms: N_8  and  C_9
REMARK    7  A    between atoms: C_10  and  C_11
REMARK    8  A    between atoms: N_12  and  O_13
REMARK    9  A    between atoms: S_14  and  C_15
REMARK                            x       y       z     vdW  Elec       q    Type
REMARK                         _______ _______ _______ _____ _____    ______ ____
ROOT
ATOM      1  N   UNL     1       2.901   4.957  18.921  0.00  0.00    +0.000 N 
ATOM      2  C   UNL     1       2.170   5.879  19.660  0.00  0.00    +0.000 A 
ATOM      3  C   UNL     1       1.836   5.271  20.824  0.00  0.00    +0.000 A 
ATOM      4  N   UNL     1       2.345   3.990  20.766  0.00  0.00    +0.000 N 
ATOM      5  C   UNL     1       2.191   2.990  21.826  0.00  0.00    +0.000 C 
ATOM      6  C   UNL     1       2.996   3.772  19.593  0.00  0.00    +0.000 A 
ENDROOT
BRANCH   6   7
ATOM      7  C   UNL     1       3.663   2.604  19.174  0.00  0.00    +0.000 C 
ATOM      8  N   UNL     1       3.122   1.639  18.487  0.00  0.00    +0.000 NA
BRANCH   8   9
ATOM      9  O   UNL     1       4.093   0.650  18.265  0.00  0.00    +0.000 OA
ATOM     10  H   UNL     1       3.784  -0.100  18.815  0.00  0.00    +0.000 HD
ENDBRANCH   8   9
ENDBRANCH   6   7
BRANCH   1  11
ATOM     11  C   UNL     1       3.458   5.246  17.592  0.00  0.00    +0.000 C 
BRANCH  11  12
ATOM     12  C   UNL     1       4.717   6.139  17.686  0.00  0.00    +0.000 C 
BRANCH  12  14
ATOM     13  C   UNL     1       5.701   4.204  16.478  0.00  0.00    +0.000 C 
ATOM     14  N   UNL     1       5.977   5.471  17.217  0.00  0.00    +0.000 NA
BRANCH  14  15
ATOM     15  S   UNL     1       7.216   5.352  18.396  0.00  0.00    +0.000 S 
ATOM     16  C   UNL     1       7.939   6.970  18.366  0.00  0.00    +0.000 C 
ATOM     17  O   UNL     1       6.533   5.194  19.674  0.00  0.00    +0.000 OA
ATOM     18  O   UNL     1       8.145   4.363  17.925  0.00  0.00    +0.000 OA
ENDBRANCH  14  15
ENDBRANCH  12  14
ENDBRANCH  11  12
ENDBRANCH   1  11
TORSDOF 6
ENDMDL
MODEL 2
REMARK VINA RESULT:      -6.1      1.587      1.750
REMARK  Name = 
REMARK  9 active torsions:
REMARK  status: ('A' for Active; 'I' for Inactive)
REMARK    1  A    between atoms: C_1  and  N_2
REMARK    2  A    between atoms: N_2  and  C_3
REMARK    3  A    between atoms: N_2  and  S_14
REMARK    4  A    between atoms: C_3  and  C_4
REMARK    5  A    between atoms: C_4  and  N_5
REMARK    6  A    between atoms: N_8  and  C_9
REMARK    7  A    between atoms: C_10  and  C_11
REMARK    8  A    between atoms: N_12  and  O_13
REMARK    9  A    between atoms: S_14  and  C_15
REMARK                            x       y       z     vdW  Elec       q    Type
REMARK                         _______ _______ _______ _____ _____    ______ ____
ROOT
ATOM      1  N   UNL     1       2.812   3.779  18.413  0.00  0.00    +0.000 N 
ATOM      2  C   UNL     1       1.736   4.643  18.568  0.00  0.00    +0.000 A 
ATOM      3  C   UNL     1       1.158   4.340  19.756  0.00  0.00    +0.000 A 
ATOM      4  N   UNL     1       1.871   3.287  20.290  0.00  0.00    +0.000 N 
ATOM      5  C   UNL     1       1.562   2.641  21.568  0.00  0.00    +0.000 C 
ATOM      6  C   UNL     1       2.891   2.917  19.470  0.00  0.00    +0.000 A 
ENDROOT
BRANCH   6   7
ATOM      7  C   UNL     1       3.848   1.904  19.677  0.00  0.00    +0.000 C 
ATOM      8  N   UNL     1       4.901   2.013  20.434  0.00  0.00    +0.000 NA
BRANCH   8   9
ATOM      9  O   UNL     1       5.614   0.805  20.385  0.00  0.00    +0.000 OA
ATOM     10  H   UNL     1       5.667   0.610  19.427  0.00  0.00    +0.000 HD
ENDBRANCH   8   9
ENDBRANCH   6   7
BRANCH   1  11
ATOM     11  C   UNL     1       3.706   3.802  17.247  0.00  0.00    +0.000 C 
BRANCH  11  12
ATOM     12  C   UNL     1       4.517   5.117  17.179  0.00  0.00    +0.000 C 
BRANCH  12  14
ATOM     13  C   UNL     1       5.840   3.748  15.582  0.00  0.00    +0.000 C 
ATOM     14  N   UNL     1       5.771   5.020  16.361  0.00  0.00    +0.000 NA
BRANCH  14  15
ATOM     15  S   UNL     1       7.214   5.424  17.194  0.00  0.00    +0.000 S 
ATOM     16  C   UNL     1       6.668   5.563  18.875  0.00  0.00    +0.000 C 
ATOM     17  O   UNL     1       8.068   4.247  17.100  0.00  0.00    +0.000 OA
ATOM     18  O   UNL     1       7.646   6.696  16.686  0.00  0.00    +0.000 OA
ENDBRANCH  14  15
ENDBRANCH  12  14
ENDBRANCH  11  12
ENDBRANCH   1  11
TORSDOF 6
ENDMDL
MODEL 3
REMARK VINA RESULT:      -6.1      2.159      2.765
REMARK  Name = 
REMARK  9 active torsions:
REMARK  status: ('A' for Active; 'I' for Inactive)
REMARK    1  A    between atoms: C_1  and  N_2
REMARK    2  A    between atoms: N_2  and  C_3
REMARK    3  A    between atoms: N_2  and  S_14
REMARK    4  A    between atoms: C_3  and  C_4
REMARK    5  A    between atoms: C_4  and  N_5
REMARK    6  A    between atoms: N_8  and  C_9
REMARK    7  A    between atoms: C_10  and  C_11
REMARK    8  A    between atoms: N_12  and  O_13
REMARK    9  A    between atoms: S_14  and  C_15
REMARK                            x       y       z     vdW  Elec       q    Type
REMARK                         _______ _______ _______ _____ _____    ______ ____
ROOT
ATOM      1  N   UNL     1       3.663   4.612  18.792  0.00  0.00    +0.000 N 
ATOM      2  C   UNL     1       2.759   5.064  17.839  0.00  0.00    +0.000 A 
ATOM      3  C   UNL     1       1.723   4.190  17.836  0.00  0.00    +0.000 A 
ATOM      4  N   UNL     1       2.022   3.214  18.764  0.00  0.00    +0.000 N 
ATOM      5  C   UNL     1       1.163   2.064  19.061  0.00  0.00    +0.000 C 
ATOM      6  C   UNL     1       3.221   3.450  19.358  0.00  0.00    +0.000 A 
ENDROOT
BRANCH   6   7
ATOM      7  C   UNL     1       3.855   2.695  20.365  0.00  0.00    +0.000 C 
ATOM      8  N   UNL     1       4.942   1.996  20.204  0.00  0.00    +0.000 NA
BRANCH   8   9
ATOM      9  O   UNL     1       5.264   1.383  21.425  0.00  0.00    +0.000 OA
ATOM     10  H   UNL     1       5.559   0.488  21.159  0.00  0.00    +0.000 HD
ENDBRANCH   8   9
ENDBRANCH   6   7
BRANCH   1  11
ATOM     11  C   UNL     1       4.922   5.303  19.105  0.00  0.00    +0.000 C 
BRANCH  11  12
ATOM     12  C   UNL     1       5.290   6.334  18.013  0.00  0.00    +0.000 C 
BRANCH  12  14
ATOM     13  C   UNL     1       7.595   7.095  17.479  0.00  0.00    +0.000 C 
ATOM     14  N   UNL     1       6.569   6.026  17.290  0.00  0.00    +0.000 NA
BRANCH  14  15
ATOM     15  S   UNL     1       6.378   5.502  15.669  0.00  0.00    +0.000 S 
ATOM     16  C   UNL     1       5.809   3.835  15.862  0.00  0.00    +0.000 C 
ATOM     17  O   UNL     1       5.277   6.288  15.126  0.00  0.00    +0.000 OA
ATOM     18  O   UNL     1       7.680   5.536  15.064  0.00  0.00    +0.000 OA
ENDBRANCH  14  15
ENDBRANCH  12  14
ENDBRANCH  11  12
ENDBRANCH   1  11
TORSDOF 6
ENDMDL
MODEL 4
REMARK VINA RESULT:      -6.0      1.373      1.952
REMARK  Name = 
REMARK  9 active torsions:
REMARK  status: ('A' for Active; 'I' for Inactive)
REMARK    1  A    between atoms: C_1  and  N_2
REMARK    2  A    between atoms: N_2  and  C_3
REMARK    3  A    between atoms: N_2  and  S_14
REMARK    4  A    between atoms: C_3  and  C_4
REMARK    5  A    between atoms: C_4  and  N_5
REMARK    6  A    between atoms: N_8  and  C_9
REMARK    7  A    between atoms: C_10  and  C_11
REMARK    8  A    between atoms: N_12  and  O_13
REMARK    9  A    between atoms: S_14  and  C_15
REMARK                            x       y       z     vdW  Elec       q    Type
REMARK                         _______ _______ _______ _____ _____    ______ ____
ROOT
ATOM      1  N   UNL     1       3.180   4.714  18.996  0.00  0.00    +0.000 N 
ATOM      2  C   UNL     1       2.474   5.755  19.588  0.00  0.00    +0.000 A 
ATOM      3  C   UNL     1       1.922   5.258  20.722  0.00  0.00    +0.000 A 
ATOM      4  N   UNL     1       2.278   3.927  20.789  0.00  0.00    +0.000 N 
ATOM      5  C   UNL     1       1.870   3.014  21.861  0.00  0.00    +0.000 C 
ATOM      6  C   UNL     1       3.045   3.568  19.727  0.00  0.00    +0.000 A 
ENDROOT
BRANCH   6   7
ATOM      7  C   UNL     1       3.617   2.309  19.453  0.00  0.00    +0.000 C 
ATOM      8  N   UNL     1       3.451   1.635  18.352  0.00  0.00    +0.000 NA
BRANCH   8   9
ATOM      9  O   UNL     1       4.169   0.433  18.451  0.00  0.00    +0.000 OA
ATOM     10  H   UNL     1       4.424   0.244  17.524  0.00  0.00    +0.000 HD
ENDBRANCH   8   9
ENDBRANCH   6   7
BRANCH   1  11
ATOM     11  C   UNL     1       3.936   4.860  17.744  0.00  0.00    +0.000 C 
BRANCH  11  12
ATOM     12  C   UNL     1       5.410   5.241  18.011  0.00  0.00    +0.000 C 
BRANCH  12  14
ATOM     13  C   UNL     1       5.142   6.656  15.986  0.00  0.00    +0.000 C 
ATOM     14  N   UNL     1       6.094   5.891  16.844  0.00  0.00    +0.000 NA
BRANCH  14  15
ATOM     15  S   UNL     1       7.174   4.877  15.980  0.00  0.00    +0.000 S 
ATOM     16  C   UNL     1       6.082   3.729  15.187  0.00  0.00    +0.000 C 
ATOM     17  O   UNL     1       7.764   5.719  14.946  0.00  0.00    +0.000 OA
ATOM     18  O   UNL     1       7.996   4.218  16.956  0.00  0.00    +0.000 OA
ENDBRANCH  14  15
ENDBRANCH  12  14
ENDBRANCH  11  12
ENDBRANCH   1  11
TORSDOF 6
ENDMDL
MODEL 5
REMARK VINA RESULT:      -6.0      2.242      2.851
REMARK  Name = 
REMARK  9 active torsions:
REMARK  status: ('A' for Active; 'I' for Inactive)
REMARK    1  A    between atoms: C_1  and  N_2
REMARK    2  A    between atoms: N_2  and  C_3
REMARK    3  A    between atoms: N_2  and  S_14
REMARK    4  A    between atoms: C_3  and  C_4
REMARK    5  A    between atoms: C_4  and  N_5
REMARK    6  A    between atoms: N_8  and  C_9
REMARK    7  A    between atoms: C_10  and  C_11
REMARK    8  A    between atoms: N_12  and  O_13
REMARK    9  A    between atoms: S_14  and  C_15
REMARK                            x       y       z     vdW  Elec       q    Type
REMARK                         _______ _______ _______ _____ _____    ______ ____
ROOT
ATOM      1  N   UNL     1       4.578   5.290  18.713  0.00  0.00    +0.000 N 
ATOM      2  C   UNL     1       3.890   6.457  18.404  0.00  0.00    +0.000 A 
ATOM      3  C   UNL     1       2.615   6.097  18.119  0.00  0.00    +0.000 A 
ATOM      4  N   UNL     1       2.553   4.723  18.233  0.00  0.00    +0.000 N 
ATOM      5  C   UNL     1       1.348   3.927  17.991  0.00  0.00    +0.000 C 
ATOM      6  C   UNL     1       3.758   4.204  18.588  0.00  0.00    +0.000 A 
ENDROOT
BRANCH   6   7
ATOM      7  C   UNL     1       4.087   2.855  18.823  0.00  0.00    +0.000 C 
ATOM      8  N   UNL     1       3.816   1.868  18.018  0.00  0.00    +0.000 NA
BRANCH   8   9
ATOM      9  O   UNL     1       4.293   0.679  18.591  0.00  0.00    +0.000 OA
ATOM     10  H   UNL     1       5.244   0.862  18.736  0.00  0.00    +0.000 HD
ENDBRANCH   8   9
ENDBRANCH   6   7
BRANCH   1  11
ATOM     11  C   UNL     1       5.997   5.265  19.093  0.00  0.00    +0.000 C 
BRANCH  11  12
ATOM     12  C   UNL     1       6.867   4.608  17.997  0.00  0.00    +0.000 C 
BRANCH  12  14
ATOM     13  C   UNL     1       7.414   6.971  17.455  0.00  0.00    +0.000 C 
ATOM     14  N   UNL     1       7.359   5.566  16.951  0.00  0.00    +0.000 NA
BRANCH  14  15
ATOM     15  S   UNL     1       6.634   5.391  15.408  0.00  0.00    +0.000 S 
ATOM     16  C   UNL     1       5.879   3.791  15.511  0.00  0.00    +0.000 C 
ATOM     17  O   UNL     1       5.568   6.384  15.357  0.00  0.00    +0.000 OA
ATOM     18  O   UNL     1       7.699   5.398  14.444  0.00  0.00    +0.000 OA
ENDBRANCH  14  15
ENDBRANCH  12  14
ENDBRANCH  11  12
ENDBRANCH   1  11
TORSDOF 6
ENDMDL
MODEL 6
REMARK VINA RESULT:      -6.0      1.243      1.523
REMARK  Name = 
REMARK  9 active torsions:
REMARK  status: ('A' for Active; 'I' for Inactive)
REMARK    1  A    between atoms: C_1  and  N_2
REMARK    2  A    between atoms: N_2  and  C_3
REMARK    3  A    between atoms: N_2  and  S_14
REMARK    4  A    between atoms: C_3  and  C_4
REMARK    5  A    between atoms: C_4  and  N_5
REMARK    6  A    between atoms: N_8  and  C_9
REMARK    7  A    between atoms: C_10  and  C_11
REMARK    8  A    between atoms: N_12  and  O_13
REMARK    9  A    between atoms: S_14  and  C_15
REMARK                            x       y       z     vdW  Elec       q    Type
REMARK                         _______ _______ _______ _____ _____    ______ ____
ROOT
ATOM      1  N   UNL     1       2.617   4.650  18.852  0.00  0.00    +0.000 N 
ATOM      2  C   UNL     1       2.050   5.632  19.654  0.00  0.00    +0.000 A 
ATOM      3  C   UNL     1       1.690   5.031  20.815  0.00  0.00    +0.000 A 
ATOM      4  N   UNL     1       2.019   3.697  20.692  0.00  0.00    +0.000 N 
ATOM      5  C   UNL     1       1.780   2.687  21.727  0.00  0.00    +0.000 C 
ATOM      6  C   UNL     1       2.583   3.438  19.483  0.00  0.00    +0.000 A 
ENDROOT
BRANCH   6   7
ATOM      7  C   UNL     1       3.068   2.208  18.996  0.00  0.00    +0.000 C 
ATOM      8  N   UNL     1       4.282   1.766  19.156  0.00  0.00    +0.000 NA
BRANCH   8   9
ATOM      9  O   UNL     1       4.389   0.514  18.530  0.00  0.00    +0.000 OA
ATOM     10  H   UNL     1       5.356   0.369  18.476  0.00  0.00    +0.000 HD
ENDBRANCH   8   9
ENDBRANCH   6   7
BRANCH   1  11
ATOM     11  C   UNL     1       3.149   4.911  17.507  0.00  0.00    +0.000 C 
BRANCH  11  12
ATOM     12  C   UNL     1       4.351   5.882  17.551  0.00  0.00    +0.000 C 
BRANCH  12  14
ATOM     13  C   UNL     1       6.038   5.291  19.277  0.00  0.00    +0.000 C 
ATOM     14  N   UNL     1       5.666   5.214  17.834  0.00  0.00    +0.000 NA
BRANCH  14  15
ATOM     15  S   UNL     1       6.931   5.616  16.749  0.00  0.00    +0.000 S 
ATOM     16  C   UNL     1       7.641   7.058  17.495  0.00  0.00    +0.000 C 
ATOM     17  O   UNL     1       7.903   4.535  16.859  0.00  0.00    +0.000 OA
ATOM     18  O   UNL     1       6.317   5.935  15.492  0.00  0.00    +0.000 OA
ENDBRANCH  14  15
ENDBRANCH  12  14
ENDBRANCH  11  12
ENDBRANCH   1  11
TORSDOF 6
ENDMDL
MODEL 7
REMARK VINA RESULT:      -5.9      2.329      2.814
REMARK  Name = 
REMARK  9 active torsions:
REMARK  status: ('A' for Active; 'I' for Inactive)
REMARK    1  A    between atoms: C_1  and  N_2
REMARK    2  A    between atoms: N_2  and  C_3
REMARK    3  A    between atoms: N_2  and  S_14
REMARK    4  A    between atoms: C_3  and  C_4
REMARK    5  A    between atoms: C_4  and  N_5
REMARK    6  A    between atoms: N_8  and  C_9
REMARK    7  A    between atoms: C_10  and  C_11
REMARK    8  A    between atoms: N_12  and  O_13
REMARK    9  A    between atoms: S_14  and  C_15
REMARK                            x       y       z     vdW  Elec       q    Type
REMARK                         _______ _______ _______ _____ _____    ______ ____
ROOT
ATOM      1  N   UNL     1       3.902   4.762  18.824  0.00  0.00    +0.000 N 
ATOM      2  C   UNL     1       2.963   5.282  17.943  0.00  0.00    +0.000 A 
ATOM      3  C   UNL     1       1.852   4.514  18.056  0.00  0.00    +0.000 A 
ATOM      4  N   UNL     1       2.139   3.530  18.980  0.00  0.00    +0.000 N 
ATOM      5  C   UNL     1       1.205   2.475  19.383  0.00  0.00    +0.000 C 
ATOM      6  C   UNL     1       3.404   3.658  19.458  0.00  0.00    +0.000 A 
ENDROOT
BRANCH   6   7
ATOM      7  C   UNL     1       4.052   2.864  20.425  0.00  0.00    +0.000 C 
ATOM      8  N   UNL     1       4.921   1.930  20.166  0.00  0.00    +0.000 NA
BRANCH   8   9
ATOM      9  O   UNL     1       5.340   1.360  21.378  0.00  0.00    +0.000 OA
ATOM     10  H   UNL     1       4.512   0.999  21.758  0.00  0.00    +0.000 HD
ENDBRANCH   8   9
ENDBRANCH   6   7
BRANCH   1  11
ATOM     11  C   UNL     1       5.244   5.333  19.005  0.00  0.00    +0.000 C 
BRANCH  11  12
ATOM     12  C   UNL     1       6.292   4.610  18.128  0.00  0.00    +0.000 C 
BRANCH  12  14
ATOM     13  C   UNL     1       7.080   6.841  17.370  0.00  0.00    +0.000 C 
ATOM     14  N   UNL     1       6.795   5.430  16.976  0.00  0.00    +0.000 NA
BRANCH  14  15
ATOM     15  S   UNL     1       5.902   5.263  15.522  0.00  0.00    +0.000 S 
ATOM     16  C   UNL     1       7.169   4.976  14.316  0.00  0.00    +0.000 C 
ATOM     17  O   UNL     1       5.138   4.030  15.667  0.00  0.00    +0.000 OA
ATOM     18  O   UNL     1       5.245   6.519  15.291  0.00  0.00    +0.000 OA
ENDBRANCH  14  15
ENDBRANCH  12  14
ENDBRANCH  11  12
ENDBRANCH   1  11
TORSDOF 6
ENDMDL
MODEL 8
REMARK VINA RESULT:      -5.9      1.968      2.065
REMARK  Name = 
REMARK  9 active torsions:
REMARK  status: ('A' for Active; 'I' for Inactive)
REMARK    1  A    between atoms: C_1  and  N_2
REMARK    2  A    between atoms: N_2  and  C_3
REMARK    3  A    between atoms: N_2  and  S_14
REMARK    4  A    between atoms: C_3  and  C_4
REMARK    5  A    between atoms: C_4  and  N_5
REMARK    6  A    between atoms: N_8  and  C_9
REMARK    7  A    between atoms: C_10  and  C_11
REMARK    8  A    between atoms: N_12  and  O_13
REMARK    9  A    between atoms: S_14  and  C_15
REMARK                            x       y       z     vdW  Elec       q    Type
REMARK                         _______ _______ _______ _____ _____    ______ ____
ROOT
ATOM      1  N   UNL     1       3.491   4.962  19.673  0.00  0.00    +0.000 N 
ATOM      2  C   UNL     1       2.450   5.814  20.019  0.00  0.00    +0.000 A 
ATOM      3  C   UNL     1       1.550   5.073  20.710  0.00  0.00    +0.000 A 
ATOM      4  N   UNL     1       2.042   3.784  20.752  0.00  0.00    +0.000 N 
ATOM      5  C   UNL     1       1.360   2.659  21.397  0.00  0.00    +0.000 C 
ATOM      6  C   UNL     1       3.235   3.692  20.108  0.00  0.00    +0.000 A 
ENDROOT
BRANCH   6   7
ATOM      7  C   UNL     1       4.054   2.555  19.955  0.00  0.00    +0.000 C 
ATOM      8  N   UNL     1       4.837   2.068  20.875  0.00  0.00    +0.000 NA
BRANCH   8   9
ATOM      9  O   UNL     1       5.492   0.942  20.353  0.00  0.00    +0.000 OA
ATOM     10  H   UNL     1       4.762   0.312  20.183  0.00  0.00    +0.000 HD
ENDBRANCH   8   9
ENDBRANCH   6   7
BRANCH   1  11
ATOM     11  C   UNL     1       4.677   5.397  18.922  0.00  0.00    +0.000 C 
BRANCH  11  12
ATOM     12  C   UNL     1       4.460   5.274  17.397  0.00  0.00    +0.000 C 
BRANCH  12  14
ATOM     13  C   UNL     1       5.038   6.765  15.494  0.00  0.00    +0.000 C 
ATOM     14  N   UNL     1       5.561   5.875  16.572  0.00  0.00    +0.000 NA
BRANCH  14  15
ATOM     15  S   UNL     1       6.769   4.771  16.060  0.00  0.00    +0.000 S 
ATOM     16  C   UNL     1       7.701   4.497  17.542  0.00  0.00    +0.000 C 
ATOM     17  O   UNL     1       6.064   3.534  15.743  0.00  0.00    +0.000 OA
ATOM     18  O   UNL     1       7.559   5.447  15.071  0.00  0.00    +0.000 OA
ENDBRANCH  14  15
ENDBRANCH  12  14
ENDBRANCH  11  12
ENDBRANCH   1  11
TORSDOF 6
ENDMDL
MODEL 9
REMARK VINA RESULT:      -5.9      2.559      5.492
REMARK  Name = 
REMARK  9 active torsions:
REMARK  status: ('A' for Active; 'I' for Inactive)
REMARK    1  A    between atoms: C_1  and  N_2
REMARK    2  A    between atoms: N_2  and  C_3
REMARK    3  A    between atoms: N_2  and  S_14
REMARK    4  A    between atoms: C_3  and  C_4
REMARK    5  A    between atoms: C_4  and  N_5
REMARK    6  A    between atoms: N_8  and  C_9
REMARK    7  A    between atoms: C_10  and  C_11
REMARK    8  A    between atoms: N_12  and  O_13
REMARK    9  A    between atoms: S_14  and  C_15
REMARK                            x       y       z     vdW  Elec       q    Type
REMARK                         _______ _______ _______ _____ _____    ______ ____
ROOT
ATOM      1  N   UNL     1       5.710   5.095  17.542  0.00  0.00    +0.000 N 
ATOM      2  C   UNL     1       5.011   5.814  16.580  0.00  0.00    +0.000 A 
ATOM      3  C   UNL     1       5.631   7.013  16.459  0.00  0.00    +0.000 A 
ATOM      4  N   UNL     1       6.676   7.015  17.361  0.00  0.00    +0.000 N 
ATOM      5  C   UNL     1       7.593   8.139  17.562  0.00  0.00    +0.000 C 
ATOM      6  C   UNL     1       6.734   5.844  18.049  0.00  0.00    +0.000 A 
ENDROOT
BRANCH   6   7
ATOM      7  C   UNL     1       7.667   5.460  19.033  0.00  0.00    +0.000 C 
ATOM      8  N   UNL     1       7.458   5.501  20.317  0.00  0.00    +0.000 NA
BRANCH   8   9
ATOM      9  O   UNL     1       8.614   5.048  20.972  0.00  0.00    +0.000 OA
ATOM     10  H   UNL     1       9.342   5.445  20.451  0.00  0.00    +0.000 HD
ENDBRANCH   8   9
ENDBRANCH   6   7
BRANCH   1  11
ATOM     11  C   UNL     1       5.352   3.729  17.950  0.00  0.00    +0.000 C 
BRANCH  11  12
ATOM     12  C   UNL     1       4.515   3.726  19.250  0.00  0.00    +0.000 C 
BRANCH  12  14
ATOM     13  C   UNL     1       3.223   1.881  18.199  0.00  0.00    +0.000 C 
ATOM     14  N   UNL     1       3.176   3.061  19.113  0.00  0.00    +0.000 NA
BRANCH  14  15
ATOM     15  S   UNL     1       1.862   4.126  18.834  0.00  0.00    +0.000 S 
ATOM     16  C   UNL     1       0.812   3.825  20.229  0.00  0.00    +0.000 C 
ATOM     17  O   UNL     1       2.408   5.471  18.970  0.00  0.00    +0.000 OA
ATOM     18  O   UNL     1       1.235   3.702  17.614  0.00  0.00    +0.000 OA
ENDBRANCH  14  15
ENDBRANCH  12  14
ENDBRANCH  11  12
ENDBRANCH   1  11
TORSDOF 6
ENDMDL
