MODEL 1
REMARK VINA RESULT:      -6.9      0.000      0.000
REMARK  Name = 
REMARK  1 active torsions:
REMARK  status: ('A' for Active; 'I' for Inactive)
REMARK    1  A    between atoms: C_1  and  C_2
REMARK                            x       y       z     vdW  Elec       q    Type
REMARK                         _______ _______ _______ _____ _____    ______ ____
ROOT
ATOM      1  C   UNL     1       4.966   6.854  16.215  0.00  0.00    +0.000 C 
ATOM      2  C   UNL     1       4.269   5.844  17.090  0.00  0.00    +0.000 A 
ATOM      3  C   UNL     1       4.539   4.439  17.042  0.00  0.00    +0.000 A 
ATOM      4 BR   UNL     1       5.821   3.719  15.795  0.00  0.00    +0.000 Br
ATOM      5  C   UNL     1       3.872   3.546  17.939  0.00  0.00    +0.000 A 
ATOM      6 BR   UNL     1       4.238   1.656  17.900  0.00  0.00    +0.000 Br
ATOM      7  C   UNL     1       2.941   4.052  18.875  0.00  0.00    +0.000 A 
ATOM      8  C   UNL     1       2.728   5.419  18.879  0.00  0.00    +0.000 A 
ATOM      9  C   UNL     1       3.332   6.283  18.034  0.00  0.00    +0.000 A 
ATOM     10  N   UNL     1       2.913   7.541  18.307  0.00  0.00    +0.000 NA
ATOM     11  C   UNL     1       2.078   7.385  19.371  0.00  0.00    +0.000 A 
ATOM     12  N   UNL     1       1.491   8.493  20.060  0.00  0.00    +0.000 N 
ATOM     13  C   UNL     1       1.159   9.719  19.352  0.00  0.00    +0.000 C 
ATOM     14  C   UNL     1      -0.137  10.295  19.953  0.00  0.00    +0.000 C 
ATOM     15  N   UNL     1       0.023  10.479  21.404  0.00  0.00    +0.000 NA
ATOM     16  C   UNL     1       0.284   9.189  22.060  0.00  0.00    +0.000 C 
ATOM     17  C   UNL     1       1.574   8.589  21.506  0.00  0.00    +0.000 C 
ATOM     18  N   UNL     1       1.940   6.078  19.730  0.00  0.00    +0.000 N 
ATOM     19  C   UNL     1       1.168   5.407  20.778  0.00  0.00    +0.000 C 
ATOM     20  C   UNL     1       0.903   3.946  20.350  0.00  0.00    +0.000 C 
ATOM     21  C   UNL     1       2.202   3.228  19.910  0.00  0.00    +0.000 C 
ATOM     22  H   UNL     1      -0.856  10.886  21.801  0.00  0.00    +0.000 HD
ENDROOT
TORSDOF 0
ENDMDL
MODEL 2
REMARK VINA RESULT:      -6.4      3.972      7.046
REMARK  Name = 
REMARK  1 active torsions:
REMARK  status: ('A' for Active; 'I' for Inactive)
REMARK    1  A    between atoms: C_1  and  C_2
REMARK                            x       y       z     vdW  Elec       q    Type
REMARK                         _______ _______ _______ _____ _____    ______ ____
ROOT
ATOM      1  C   UNL     1      -0.373   9.265  23.340  0.00  0.00    +0.000 C 
ATOM      2  C   UNL     1       0.130   9.665  21.977  0.00  0.00    +0.000 A 
ATOM      3  C   UNL     1       0.038  10.998  21.463  0.00  0.00    +0.000 A 
ATOM      4 BR   UNL     1      -0.793  12.401  22.491  0.00  0.00    +0.000 Br
ATOM      5  C   UNL     1       0.583  11.314  20.178  0.00  0.00    +0.000 A 
ATOM      6 BR   UNL     1       0.483  13.106  19.480  0.00  0.00    +0.000 Br
ATOM      7  C   UNL     1       1.212  10.306  19.412  0.00  0.00    +0.000 A 
ATOM      8  C   UNL     1       1.278   9.040  19.965  0.00  0.00    +0.000 A 
ATOM      9  C   UNL     1       0.760   8.710  21.169  0.00  0.00    +0.000 A 
ATOM     10  N   UNL     1       1.002   7.401  21.416  0.00  0.00    +0.000 NA
ATOM     11  C   UNL     1       1.720   6.991  20.334  0.00  0.00    +0.000 A 
ATOM     12  N   UNL     1       2.286   5.680  20.237  0.00  0.00    +0.000 N 
ATOM     13  C   UNL     1       1.630   4.538  20.850  0.00  0.00    +0.000 C 
ATOM     14  C   UNL     1       1.834   3.310  19.943  0.00  0.00    +0.000 C 
ATOM     15  N   UNL     1       3.270   3.102  19.699  0.00  0.00    +0.000 NA
ATOM     16  C   UNL     1       3.848   4.266  19.011  0.00  0.00    +0.000 C 
ATOM     17  C   UNL     1       3.684   5.506  19.886  0.00  0.00    +0.000 C 
ATOM     18  N   UNL     1       1.889   7.987  19.420  0.00  0.00    +0.000 N 
ATOM     19  C   UNL     1       2.563   8.046  18.121  0.00  0.00    +0.000 C 
ATOM     20  C   UNL     1       1.936   9.179  17.279  0.00  0.00    +0.000 C 
ATOM     21  C   UNL     1       1.871  10.513  18.062  0.00  0.00    +0.000 C 
ATOM     22  H   UNL     1       3.399   2.256  19.095  0.00  0.00    +0.000 HD
ENDROOT
TORSDOF 0
ENDMDL
MODEL 3
REMARK VINA RESULT:      -6.2      9.082     10.618
REMARK  Name = 
REMARK  1 active torsions:
REMARK  status: ('A' for Active; 'I' for Inactive)
REMARK    1  A    between atoms: C_1  and  C_2
REMARK                            x       y       z     vdW  Elec       q    Type
REMARK                         _______ _______ _______ _____ _____    ______ ____
ROOT
ATOM      1  C   UNL     1       9.349  10.391  19.825  0.00  0.00    +0.000 C 
ATOM      2  C   UNL     1       9.761  11.764  20.292  0.00  0.00    +0.000 A 
ATOM      3  C   UNL     1      10.732  12.568  19.613  0.00  0.00    +0.000 A 
ATOM      4 BR   UNL     1      11.629  11.918  18.035  0.00  0.00    +0.000 Br
ATOM      5  C   UNL     1      11.037  13.883  20.088  0.00  0.00    +0.000 A 
ATOM      6 BR   UNL     1      12.326  14.985  19.175  0.00  0.00    +0.000 Br
ATOM      7  C   UNL     1      10.380  14.389  21.233  0.00  0.00    +0.000 A 
ATOM      8  C   UNL     1       9.447  13.569  21.841  0.00  0.00    +0.000 A 
ATOM      9  C   UNL     1       9.150  12.319  21.423  0.00  0.00    +0.000 A 
ATOM     10  N   UNL     1       8.194  11.795  22.226  0.00  0.00    +0.000 NA
ATOM     11  C   UNL     1       7.911  12.801  23.099  0.00  0.00    +0.000 A 
ATOM     12  N   UNL     1       6.861  12.710  24.066  0.00  0.00    +0.000 N 
ATOM     13  C   UNL     1       6.503  11.432  24.660  0.00  0.00    +0.000 C 
ATOM     14  C   UNL     1       6.111  11.668  26.131  0.00  0.00    +0.000 C 
ATOM     15  N   UNL     1       5.039  12.673  26.207  0.00  0.00    +0.000 NA
ATOM     16  C   UNL     1       5.498  13.957  25.656  0.00  0.00    +0.000 C 
ATOM     17  C   UNL     1       5.880  13.773  24.190  0.00  0.00    +0.000 C 
ATOM     18  N   UNL     1       8.686  13.901  22.885  0.00  0.00    +0.000 N 
ATOM     19  C   UNL     1       8.769  15.207  23.543  0.00  0.00    +0.000 C 
ATOM     20  C   UNL     1      10.176  15.800  23.309  0.00  0.00    +0.000 C 
ATOM     21  C   UNL     1      10.572  15.777  21.812  0.00  0.00    +0.000 C 
ATOM     22  H   UNL     1       4.768  12.815  27.209  0.00  0.00    +0.000 HD
ENDROOT
TORSDOF 0
ENDMDL
MODEL 4
REMARK VINA RESULT:      -6.1      1.339      3.399
REMARK  Name = 
REMARK  1 active torsions:
REMARK  status: ('A' for Active; 'I' for Inactive)
REMARK    1  A    between atoms: C_1  and  C_2
REMARK                            x       y       z     vdW  Elec       q    Type
REMARK                         _______ _______ _______ _____ _____    ______ ____
ROOT
ATOM      1  C   UNL     1       2.044   3.755  21.572  0.00  0.00    +0.000 C 
ATOM      2  C   UNL     1       2.556   4.545  20.395  0.00  0.00    +0.000 A 
ATOM      3  C   UNL     1       3.389   3.986  19.373  0.00  0.00    +0.000 A 
ATOM      4 BR   UNL     1       3.962   2.147  19.457  0.00  0.00    +0.000 Br
ATOM      5  C   UNL     1       3.797   4.786  18.258  0.00  0.00    +0.000 A 
ATOM      6 BR   UNL     1       4.902   4.045  16.867  0.00  0.00    +0.000 Br
ATOM      7  C   UNL     1       3.376   6.132  18.166  0.00  0.00    +0.000 A 
ATOM      8  C   UNL     1       2.565   6.613  19.178  0.00  0.00    +0.000 A 
ATOM      9  C   UNL     1       2.178   5.885  20.249  0.00  0.00    +0.000 A 
ATOM     10  N   UNL     1       1.386   6.645  21.042  0.00  0.00    +0.000 NA
ATOM     11  C   UNL     1       1.287   7.826  20.372  0.00  0.00    +0.000 A 
ATOM     12  N   UNL     1       0.439   8.892  20.809  0.00  0.00    +0.000 N 
ATOM     13  C   UNL     1       0.184   9.109  22.224  0.00  0.00    +0.000 C 
ATOM     14  C   UNL     1       0.083  10.626  22.476  0.00  0.00    +0.000 C 
ATOM     15  N   UNL     1      -0.943  11.211  21.598  0.00  0.00    +0.000 NA
ATOM     16  C   UNL     1      -0.580  11.016  20.186  0.00  0.00    +0.000 C 
ATOM     17  C   UNL     1      -0.487   9.523  19.886  0.00  0.00    +0.000 C 
ATOM     18  N   UNL     1       2.021   7.830  19.224  0.00  0.00    +0.000 N 
ATOM     19  C   UNL     1       2.245   8.838  18.185  0.00  0.00    +0.000 C 
ATOM     20  C   UNL     1       3.589   8.547  17.483  0.00  0.00    +0.000 C 
ATOM     21  C   UNL     1       3.693   7.073  17.020  0.00  0.00    +0.000 C 
ATOM     22  H   UNL     1      -1.016  12.238  21.788  0.00  0.00    +0.000 HD
ENDROOT
TORSDOF 0
ENDMDL
MODEL 5
REMARK VINA RESULT:      -6.0      3.692      6.993
REMARK  Name = 
REMARK  1 active torsions:
REMARK  status: ('A' for Active; 'I' for Inactive)
REMARK    1  A    between atoms: C_1  and  C_2
REMARK                            x       y       z     vdW  Elec       q    Type
REMARK                         _______ _______ _______ _____ _____    ______ ____
ROOT
ATOM      1  C   UNL     1       3.174   1.421  18.557  0.00  0.00    +0.000 C 
ATOM      2  C   UNL     1       3.141   2.928  18.565  0.00  0.00    +0.000 A 
ATOM      3  C   UNL     1       2.472   3.696  19.572  0.00  0.00    +0.000 A 
ATOM      4 BR   UNL     1       1.511   2.831  21.002  0.00  0.00    +0.000 Br
ATOM      5  C   UNL     1       2.524   5.126  19.541  0.00  0.00    +0.000 A 
ATOM      6 BR   UNL     1       1.646   6.172  20.897  0.00  0.00    +0.000 Br
ATOM      7  C   UNL     1       3.238   5.782  18.512  0.00  0.00    +0.000 A 
ATOM      8  C   UNL     1       3.870   4.987  17.573  0.00  0.00    +0.000 A 
ATOM      9  C   UNL     1       3.824   3.636  17.570  0.00  0.00    +0.000 A 
ATOM     10  N   UNL     1       4.551   3.168  16.528  0.00  0.00    +0.000 NA
ATOM     11  C   UNL     1       5.060   4.292  15.951  0.00  0.00    +0.000 A 
ATOM     12  N   UNL     1       5.991   4.248  14.866  0.00  0.00    +0.000 N 
ATOM     13  C   UNL     1       5.944   3.174  13.887  0.00  0.00    +0.000 C 
ATOM     14  C   UNL     1       6.310   3.753  12.507  0.00  0.00    +0.000 C 
ATOM     15  N   UNL     1       7.616   4.426  12.578  0.00  0.00    +0.000 NA
ATOM     16  C   UNL     1       7.566   5.545  13.532  0.00  0.00    +0.000 C 
ATOM     17  C   UNL     1       7.224   5.013  14.921  0.00  0.00    +0.000 C 
ATOM     18  N   UNL     1       4.638   5.427  16.576  0.00  0.00    +0.000 N 
ATOM     19  C   UNL     1       4.892   6.850  16.338  0.00  0.00    +0.000 C 
ATOM     20  C   UNL     1       3.722   7.673  16.921  0.00  0.00    +0.000 C 
ATOM     21  C   UNL     1       3.414   7.283  18.387  0.00  0.00    +0.000 C 
ATOM     22  H   UNL     1       7.864   4.802  11.633  0.00  0.00    +0.000 HD
ENDROOT
TORSDOF 0
ENDMDL
MODEL 6
REMARK VINA RESULT:      -6.0      8.425     11.215
REMARK  Name = 
REMARK  1 active torsions:
REMARK  status: ('A' for Active; 'I' for Inactive)
REMARK    1  A    between atoms: C_1  and  C_2
REMARK                            x       y       z     vdW  Elec       q    Type
REMARK                         _______ _______ _______ _____ _____    ______ ____
ROOT
ATOM      1  C   UNL     1      -2.511  14.846  22.116  0.00  0.00    +0.000 C 
ATOM      2  C   UNL     1      -3.837  14.142  21.988  0.00  0.00    +0.000 A 
ATOM      3  C   UNL     1      -4.943  14.378  22.868  0.00  0.00    +0.000 A 
ATOM      4 BR   UNL     1      -4.792  15.616  24.338  0.00  0.00    +0.000 Br
ATOM      5  C   UNL     1      -6.189  13.708  22.655  0.00  0.00    +0.000 A 
ATOM      6 BR   UNL     1      -7.690  14.028  23.817  0.00  0.00    +0.000 Br
ATOM      7  C   UNL     1      -6.329  12.808  21.573  0.00  0.00    +0.000 A 
ATOM      8  C   UNL     1      -5.229  12.628  20.754  0.00  0.00    +0.000 A 
ATOM      9  C   UNL     1      -4.037  13.236  20.940  0.00  0.00    +0.000 A 
ATOM     10  N   UNL     1      -3.183  12.853  19.962  0.00  0.00    +0.000 NA
ATOM     11  C   UNL     1      -3.933  12.035  19.173  0.00  0.00    +0.000 A 
ATOM     12  N   UNL     1      -3.444  11.490  17.944  0.00  0.00    +0.000 N 
ATOM     13  C   UNL     1      -2.036  11.173  17.777  0.00  0.00    +0.000 C 
ATOM     14  C   UNL     1      -1.918   9.903  16.912  0.00  0.00    +0.000 C 
ATOM     15  N   UNL     1      -2.631  10.098  15.640  0.00  0.00    +0.000 NA
ATOM     16  C   UNL     1      -4.061  10.341  15.885  0.00  0.00    +0.000 C 
ATOM     17  C   UNL     1      -4.225  11.604  16.725  0.00  0.00    +0.000 C 
ATOM     18  N   UNL     1      -5.197  11.873  19.654  0.00  0.00    +0.000 N 
ATOM     19  C   UNL     1      -6.353  11.107  19.184  0.00  0.00    +0.000 C 
ATOM     20  C   UNL     1      -7.274  10.798  20.386  0.00  0.00    +0.000 C 
ATOM     21  C   UNL     1      -7.601  12.071  21.205  0.00  0.00    +0.000 C 
ATOM     22  H   UNL     1      -2.533   9.236  15.053  0.00  0.00    +0.000 HD
ENDROOT
TORSDOF 0
ENDMDL
MODEL 7
REMARK VINA RESULT:      -5.8      7.147      9.292
REMARK  Name = 
REMARK  1 active torsions:
REMARK  status: ('A' for Active; 'I' for Inactive)
REMARK    1  A    between atoms: C_1  and  C_2
REMARK                            x       y       z     vdW  Elec       q    Type
REMARK                         _______ _______ _______ _____ _____    ______ ____
ROOT
ATOM      1  C   UNL     1      -5.041  11.807  17.461  0.00  0.00    +0.000 C 
ATOM      2  C   UNL     1      -3.829  11.699  18.351  0.00  0.00    +0.000 A 
ATOM      3  C   UNL     1      -2.628  11.020  17.968  0.00  0.00    +0.000 A 
ATOM      4 BR   UNL     1      -2.489  10.142  16.257  0.00  0.00    +0.000 Br
ATOM      5  C   UNL     1      -1.500  10.999  18.848  0.00  0.00    +0.000 A 
ATOM      6 BR   UNL     1       0.128  10.107  18.341  0.00  0.00    +0.000 Br
ATOM      7  C   UNL     1      -1.572  11.651  20.101  0.00  0.00    +0.000 A 
ATOM      8  C   UNL     1      -2.756  12.296  20.411  0.00  0.00    +0.000 A 
ATOM      9  C   UNL     1      -3.841  12.319  19.606  0.00  0.00    +0.000 A 
ATOM     10  N   UNL     1      -4.821  13.040  20.199  0.00  0.00    +0.000 NA
ATOM     11  C   UNL     1      -4.253  13.476  21.357  0.00  0.00    +0.000 A 
ATOM     12  N   UNL     1      -4.915  14.379  22.248  0.00  0.00    +0.000 N 
ATOM     13  C   UNL     1      -6.362  14.359  22.390  0.00  0.00    +0.000 C 
ATOM     14  C   UNL     1      -6.715  14.658  23.859  0.00  0.00    +0.000 C 
ATOM     15  N   UNL     1      -6.101  15.930  24.271  0.00  0.00    +0.000 NA
ATOM     16  C   UNL     1      -4.636  15.850  24.171  0.00  0.00    +0.000 C 
ATOM     17  C   UNL     1      -4.240  15.572  22.724  0.00  0.00    +0.000 C 
ATOM     18  N   UNL     1      -2.981  13.015  21.512  0.00  0.00    +0.000 N 
ATOM     19  C   UNL     1      -1.977  13.190  22.564  0.00  0.00    +0.000 C 
ATOM     20  C   UNL     1      -0.997  11.997  22.528  0.00  0.00    +0.000 C 
ATOM     21  C   UNL     1      -0.440  11.748  21.105  0.00  0.00    +0.000 C 
ATOM     22  H   UNL     1      -6.359  16.133  25.266  0.00  0.00    +0.000 HD
ENDROOT
TORSDOF 0
ENDMDL
MODEL 8
REMARK VINA RESULT:      -5.8      7.127      9.505
REMARK  Name = 
REMARK  1 active torsions:
REMARK  status: ('A' for Active; 'I' for Inactive)
REMARK    1  A    between atoms: C_1  and  C_2
REMARK                            x       y       z     vdW  Elec       q    Type
REMARK                         _______ _______ _______ _____ _____    ______ ____
ROOT
ATOM      1  C   UNL     1      -0.418  11.633  21.054  0.00  0.00    +0.000 C 
ATOM      2  C   UNL     1      -1.552  11.623  20.062  0.00  0.00    +0.000 A 
ATOM      3  C   UNL     1      -1.464  11.011  18.771  0.00  0.00    +0.000 A 
ATOM      4 BR   UNL     1       0.167  10.168  18.183  0.00  0.00    +0.000 Br
ATOM      5  C   UNL     1      -2.600  10.999  17.900  0.00  0.00    +0.000 A 
ATOM      6 BR   UNL     1      -2.504  10.164  16.168  0.00  0.00    +0.000 Br
ATOM      7  C   UNL     1      -3.812  11.596  18.315  0.00  0.00    +0.000 A 
ATOM      8  C   UNL     1      -3.838  12.164  19.576  0.00  0.00    +0.000 A 
ATOM      9  C   UNL     1      -2.778  12.202  20.412  0.00  0.00    +0.000 A 
ATOM     10  N   UNL     1      -3.139  12.817  21.563  0.00  0.00    +0.000 NA
ATOM     11  C   UNL     1      -4.460  13.094  21.386  0.00  0.00    +0.000 A 
ATOM     12  N   UNL     1      -5.276  13.652  22.421  0.00  0.00    +0.000 N 
ATOM     13  C   UNL     1      -4.713  14.562  23.405  0.00  0.00    +0.000 C 
ATOM     14  C   UNL     1      -5.770  15.628  23.749  0.00  0.00    +0.000 C 
ATOM     15  N   UNL     1      -7.012  14.975  24.194  0.00  0.00    +0.000 NA
ATOM     16  C   UNL     1      -7.561  14.131  23.122  0.00  0.00    +0.000 C 
ATOM     17  C   UNL     1      -6.550  13.045  22.762  0.00  0.00    +0.000 C 
ATOM     18  N   UNL     1      -4.907  12.710  20.158  0.00  0.00    +0.000 N 
ATOM     19  C   UNL     1      -6.213  12.794  19.500  0.00  0.00    +0.000 C 
ATOM     20  C   UNL     1      -6.006  12.784  17.969  0.00  0.00    +0.000 C 
ATOM     21  C   UNL     1      -5.100  11.612  17.515  0.00  0.00    +0.000 C 
ATOM     22  H   UNL     1      -7.719  15.708  24.440  0.00  0.00    +0.000 HD
ENDROOT
TORSDOF 0
ENDMDL
MODEL 9
REMARK VINA RESULT:      -5.7      8.135     11.031
REMARK  Name = 
REMARK  1 active torsions:
REMARK  status: ('A' for Active; 'I' for Inactive)
REMARK    1  A    between atoms: C_1  and  C_2
REMARK                            x       y       z     vdW  Elec       q    Type
REMARK                         _______ _______ _______ _____ _____    ______ ____
ROOT
ATOM      1  C   UNL     1      -7.702  13.284  20.605  0.00  0.00    +0.000 C 
ATOM      2  C   UNL     1      -6.273  13.418  21.065  0.00  0.00    +0.000 A 
ATOM      3  C   UNL     1      -5.899  14.024  22.307  0.00  0.00    +0.000 A 
ATOM      4 BR   UNL     1      -7.230  14.765  23.489  0.00  0.00    +0.000 Br
ATOM      5  C   UNL     1      -4.524  14.072  22.700  0.00  0.00    +0.000 A 
ATOM      6 BR   UNL     1      -4.005  14.867  24.375  0.00  0.00    +0.000 Br
ATOM      7  C   UNL     1      -3.531  13.520  21.858  0.00  0.00    +0.000 A 
ATOM      8  C   UNL     1      -3.955  12.942  20.675  0.00  0.00    +0.000 A 
ATOM      9  C   UNL     1      -5.244  12.896  20.273  0.00  0.00    +0.000 A 
ATOM     10  N   UNL     1      -5.317  12.256  19.082  0.00  0.00    +0.000 NA
ATOM     11  C   UNL     1      -4.031  11.890  18.826  0.00  0.00    +0.000 A 
ATOM     12  N   UNL     1      -3.668  11.081  17.703  0.00  0.00    +0.000 N 
ATOM     13  C   UNL     1      -4.411  11.161  16.456  0.00  0.00    +0.000 C 
ATOM     14  C   UNL     1      -3.425  10.986  15.286  0.00  0.00    +0.000 C 
ATOM     15  N   UNL     1      -2.678   9.728  15.446  0.00  0.00    +0.000 NA
ATOM     16  C   UNL     1      -1.895   9.751  16.691  0.00  0.00    +0.000 C 
ATOM     17  C   UNL     1      -2.837   9.904  17.881  0.00  0.00    +0.000 C 
ATOM     18  N   UNL     1      -3.172  12.317  19.794  0.00  0.00    +0.000 N 
ATOM     19  C   UNL     1      -1.724  12.187  19.971  0.00  0.00    +0.000 C 
ATOM     20  C   UNL     1      -1.222  13.340  20.868  0.00  0.00    +0.000 C 
ATOM     21  C   UNL     1      -2.049  13.461  22.172  0.00  0.00    +0.000 C 
ATOM     22  H   UNL     1      -2.022   9.611  14.638  0.00  0.00    +0.000 HD
ENDROOT
TORSDOF 0
ENDMDL
