MODEL 1
REMARK VINA RESULT:      -7.4      0.000      0.000
REMARK  Name = 
REMARK  11 active torsions:
REMARK  status: ('A' for Active; 'I' for Inactive)
REMARK    1  A    between atoms: C_1  and  C_2
REMARK    2  A    between atoms: C_2  and  N_3
REMARK    3  A    between atoms: C_4  and  S_5
REMARK    4  A    between atoms: S_5  and  C_6
REMARK    5  A    between atoms: C_6  and  C_7
REMARK    6  A    between atoms: N_9  and  C_10
REMARK    7  A    between atoms: C_10  and  C_11
REMARK    8  A    between atoms: C_11  and  C_12
REMARK    9  A    between atoms: C_12  and  N_13
REMARK   10  A    between atoms: C_21  and  C_22
REMARK   11  A    between atoms: C_26  and  C_27
REMARK                            x       y       z     vdW  Elec       q    Type
REMARK                         _______ _______ _______ _____ _____    ______ ____
ROOT
ATOM      1  S   UNL     1       7.344   7.590  17.481  0.00  0.00    +0.000 S 
ENDROOT
BRANCH   1   3
ATOM      2  N   UNL     1       5.233   5.828  17.879  0.00  0.00    +0.000 N 
ATOM      3  C   UNL     1       6.564   6.161  18.059  0.00  0.00    +0.000 A 
ATOM      4  N   UNL     1       7.163   5.226  18.766  0.00  0.00    +0.000 NA
ATOM      5  N   UNL     1       6.228   4.271  19.069  0.00  0.00    +0.000 NA
ATOM      6  C   UNL     1       5.064   4.602  18.526  0.00  0.00    +0.000 A 
BRANCH   6   7
ATOM      7  C   UNL     1       3.840   3.774  18.652  0.00  0.00    +0.000 A 
ATOM      8  C   UNL     1       3.340   2.972  17.620  0.00  0.00    +0.000 A 
ATOM      9  C   UNL     1       2.198   2.187  17.781  0.00  0.00    +0.000 A 
ATOM     10  C   UNL     1       1.539   2.156  19.005  0.00  0.00    +0.000 A 
ATOM     11  C   UNL     1       2.026   2.910  20.075  0.00  0.00    +0.000 A 
ATOM     12  C   UNL     1       1.343   2.850  21.410  0.00  0.00    +0.000 C 
ATOM     13  C   UNL     1       3.168   3.714  19.893  0.00  0.00    +0.000 A 
ENDBRANCH   6   7
BRANCH   2  15
ATOM     14  C   UNL     1       3.152   7.302  18.072  0.00  0.00    +0.000 C 
ATOM     15  C   UNL     1       4.160   6.563  17.219  0.00  0.00    +0.000 C 
ENDBRANCH   2  15
ENDBRANCH   1   3
BRANCH   1  16
ATOM     16  C   UNL     1       8.596   8.075  18.694  0.00  0.00    +0.000 C 
BRANCH  16  17
ATOM     17  C   UNL     1       8.779   9.601  18.680  0.00  0.00    +0.000 C 
ATOM     18  O   UNL     1       8.295  10.314  17.793  0.00  0.00    +0.000 OA
ATOM     19  N   UNL     1       9.459  10.137  19.757  0.00  0.00    +0.000 N 
ATOM     20  H   UNL     1       9.808   9.485  20.456  0.00  0.00    +0.000 HD
BRANCH  19  21
ATOM     21  C   UNL     1       9.731  11.551  19.915  0.00  0.00    +0.000 C 
BRANCH  21  22
ATOM     22  C   UNL     1      11.167  11.909  19.541  0.00  0.00    +0.000 C 
BRANCH  22  23
ATOM     23  C   UNL     1      11.520  13.356  19.894  0.00  0.00    +0.000 C 
BRANCH  23  24
ATOM     24  N   UNL     1      11.113  14.298  18.862  0.00  0.00    +0.000 N 
ATOM     25  C   UNL     1      11.579  14.222  17.499  0.00  0.00    +0.000 C 
ATOM     26  C   UNL     1      11.103  15.533  16.904  0.00  0.00    +0.000 C 
ATOM     27  C   UNL     1       9.794  15.799  17.638  0.00  0.00    +0.000 C 
ATOM     28  C   UNL     1      10.015  15.142  18.979  0.00  0.00    +0.000 C 
ATOM     29  O   UNL     1       9.308  15.290  19.965  0.00  0.00    +0.000 OA
ENDBRANCH  23  24
ENDBRANCH  22  23
ENDBRANCH  21  22
ENDBRANCH  19  21
ENDBRANCH  16  17
ENDBRANCH   1  16
TORSDOF 9
ENDMDL
MODEL 2
REMARK VINA RESULT:      -7.4      5.339      8.963
REMARK  Name = 
REMARK  11 active torsions:
REMARK  status: ('A' for Active; 'I' for Inactive)
REMARK    1  A    between atoms: C_1  and  C_2
REMARK    2  A    between atoms: C_2  and  N_3
REMARK    3  A    between atoms: C_4  and  S_5
REMARK    4  A    between atoms: S_5  and  C_6
REMARK    5  A    between atoms: C_6  and  C_7
REMARK    6  A    between atoms: N_9  and  C_10
REMARK    7  A    between atoms: C_10  and  C_11
REMARK    8  A    between atoms: C_11  and  C_12
REMARK    9  A    between atoms: C_12  and  N_13
REMARK   10  A    between atoms: C_21  and  C_22
REMARK   11  A    between atoms: C_26  and  C_27
REMARK                            x       y       z     vdW  Elec       q    Type
REMARK                         _______ _______ _______ _____ _____    ______ ____
ROOT
ATOM      1  S   UNL     1       2.543   5.982  20.324  0.00  0.00    +0.000 S 
ENDROOT
BRANCH   1   3
ATOM      2  N   UNL     1       1.543   8.530  19.847  0.00  0.00    +0.000 N 
ATOM      3  C   UNL     1       2.140   7.372  19.380  0.00  0.00    +0.000 A 
ATOM      4  N   UNL     1       2.345   7.470  18.084  0.00  0.00    +0.000 NA
ATOM      5  N   UNL     1       1.873   8.692  17.680  0.00  0.00    +0.000 NA
ATOM      6  C   UNL     1       1.407   9.357  18.729  0.00  0.00    +0.000 A 
BRANCH   6   7
ATOM      7  C   UNL     1       0.834  10.721  18.642  0.00  0.00    +0.000 A 
ATOM      8  C   UNL     1      -0.540  10.982  18.589  0.00  0.00    +0.000 A 
ATOM      9  C   UNL     1      -1.044  12.281  18.531  0.00  0.00    +0.000 A 
ATOM     10  C   UNL     1      -0.179  13.368  18.561  0.00  0.00    +0.000 A 
ATOM     11  C   UNL     1       1.199  13.157  18.654  0.00  0.00    +0.000 A 
ATOM     12  C   UNL     1       2.136  14.326  18.726  0.00  0.00    +0.000 C 
ATOM     13  C   UNL     1       1.696  11.839  18.690  0.00  0.00    +0.000 A 
ENDBRANCH   6   7
BRANCH   2  15
ATOM     14  C   UNL     1      -0.365   8.591  21.550  0.00  0.00    +0.000 C 
ATOM     15  C   UNL     1       1.076   8.875  21.185  0.00  0.00    +0.000 C 
ENDBRANCH   2  15
ENDBRANCH   1   3
BRANCH   1  16
ATOM     16  C   UNL     1       1.319   4.696  19.978  0.00  0.00    +0.000 C 
BRANCH  16  17
ATOM     17  C   UNL     1       1.694   3.944  18.691  0.00  0.00    +0.000 C 
ATOM     18  O   UNL     1       1.000   3.026  18.238  0.00  0.00    +0.000 OA
ATOM     19  N   UNL     1       2.819   4.401  18.031  0.00  0.00    +0.000 N 
ATOM     20  H   UNL     1       3.325   5.175  18.457  0.00  0.00    +0.000 HD
BRANCH  19  21
ATOM     21  C   UNL     1       3.329   3.817  16.807  0.00  0.00    +0.000 C 
BRANCH  21  22
ATOM     22  C   UNL     1       4.710   3.194  16.995  0.00  0.00    +0.000 C 
BRANCH  22  23
ATOM     23  C   UNL     1       5.790   3.912  16.182  0.00  0.00    +0.000 C 
BRANCH  23  24
ATOM     24  N   UNL     1       6.445   4.971  16.935  0.00  0.00    +0.000 N 
ATOM     25  C   UNL     1       7.578   4.739  17.798  0.00  0.00    +0.000 C 
ATOM     26  C   UNL     1       7.718   6.056  18.536  0.00  0.00    +0.000 C 
ATOM     27  C   UNL     1       7.274   7.087  17.506  0.00  0.00    +0.000 C 
ATOM     28  C   UNL     1       6.278   6.324  16.666  0.00  0.00    +0.000 C 
ATOM     29  O   UNL     1       5.512   6.819  15.853  0.00  0.00    +0.000 OA
ENDBRANCH  23  24
ENDBRANCH  22  23
ENDBRANCH  21  22
ENDBRANCH  19  21
ENDBRANCH  16  17
ENDBRANCH   1  16
TORSDOF 9
ENDMDL
MODEL 3
REMARK VINA RESULT:      -7.3      6.440      9.220
REMARK  Name = 
REMARK  11 active torsions:
REMARK  status: ('A' for Active; 'I' for Inactive)
REMARK    1  A    between atoms: C_1  and  C_2
REMARK    2  A    between atoms: C_2  and  N_3
REMARK    3  A    between atoms: C_4  and  S_5
REMARK    4  A    between atoms: S_5  and  C_6
REMARK    5  A    between atoms: C_6  and  C_7
REMARK    6  A    between atoms: N_9  and  C_10
REMARK    7  A    between atoms: C_10  and  C_11
REMARK    8  A    between atoms: C_11  and  C_12
REMARK    9  A    between atoms: C_12  and  N_13
REMARK   10  A    between atoms: C_21  and  C_22
REMARK   11  A    between atoms: C_26  and  C_27
REMARK                            x       y       z     vdW  Elec       q    Type
REMARK                         _______ _______ _______ _____ _____    ______ ____
ROOT
ATOM      1  S   UNL     1       2.907   5.963  19.849  0.00  0.00    +0.000 S 
ENDROOT
BRANCH   1   3
ATOM      2  N   UNL     1       1.646   8.435  19.726  0.00  0.00    +0.000 N 
ATOM      3  C   UNL     1       2.323   7.405  19.098  0.00  0.00    +0.000 A 
ATOM      4  N   UNL     1       2.446   7.672  17.815  0.00  0.00    +0.000 NA
ATOM      5  N   UNL     1       1.839   8.879  17.582  0.00  0.00    +0.000 NA
ATOM      6  C   UNL     1       1.371   9.368  18.723  0.00  0.00    +0.000 A 
BRANCH   6   7
ATOM      7  C   UNL     1       0.668  10.669  18.826  0.00  0.00    +0.000 A 
ATOM      8  C   UNL     1       1.325  11.890  19.017  0.00  0.00    +0.000 A 
ATOM      9  C   UNL     1       0.633  13.099  19.086  0.00  0.00    +0.000 A 
ATOM     10  C   UNL     1      -0.748  13.123  18.928  0.00  0.00    +0.000 A 
ATOM     11  C   UNL     1      -1.441  11.934  18.696  0.00  0.00    +0.000 A 
ATOM     12  C   UNL     1      -2.927  11.957  18.485  0.00  0.00    +0.000 C 
ATOM     13  C   UNL     1      -0.732  10.717  18.649  0.00  0.00    +0.000 A 
ENDBRANCH   6   7
BRANCH   2  15
ATOM     14  C   UNL     1      -0.247   8.443  21.446  0.00  0.00    +0.000 C 
ATOM     15  C   UNL     1       1.224   8.575  21.115  0.00  0.00    +0.000 C 
ENDBRANCH   2  15
ENDBRANCH   1   3
BRANCH   1  16
ATOM     16  C   UNL     1       1.986   4.563  19.165  0.00  0.00    +0.000 C 
BRANCH  16  17
ATOM     17  C   UNL     1       2.641   4.090  17.857  0.00  0.00    +0.000 C 
ATOM     18  O   UNL     1       2.128   3.224  17.139  0.00  0.00    +0.000 OA
ATOM     19  N   UNL     1       3.806   4.741  17.496  0.00  0.00    +0.000 N 
ATOM     20  H   UNL     1       4.153   5.457  18.130  0.00  0.00    +0.000 HD
BRANCH  19  21
ATOM     21  C   UNL     1       4.565   4.431  16.302  0.00  0.00    +0.000 C 
BRANCH  21  22
ATOM     22  C   UNL     1       5.678   5.444  16.045  0.00  0.00    +0.000 C 
BRANCH  22  23
ATOM     23  C   UNL     1       6.972   4.782  15.565  0.00  0.00    +0.000 C 
BRANCH  23  24
ATOM     24  N   UNL     1       6.949   4.477  14.142  0.00  0.00    +0.000 N 
ATOM     25  C   UNL     1       5.873   3.754  13.509  0.00  0.00    +0.000 C 
ATOM     26  C   UNL     1       6.424   3.467  12.126  0.00  0.00    +0.000 C 
ATOM     27  C   UNL     1       7.294   4.683  11.833  0.00  0.00    +0.000 C 
ATOM     28  C   UNL     1       7.758   5.110  13.205  0.00  0.00    +0.000 C 
ATOM     29  O   UNL     1       8.647   5.916  13.433  0.00  0.00    +0.000 OA
ENDBRANCH  23  24
ENDBRANCH  22  23
ENDBRANCH  21  22
ENDBRANCH  19  21
ENDBRANCH  16  17
ENDBRANCH   1  16
TORSDOF 9
ENDMDL
MODEL 4
REMARK VINA RESULT:      -7.1      5.559      8.934
REMARK  Name = 
REMARK  11 active torsions:
REMARK  status: ('A' for Active; 'I' for Inactive)
REMARK    1  A    between atoms: C_1  and  C_2
REMARK    2  A    between atoms: C_2  and  N_3
REMARK    3  A    between atoms: C_4  and  S_5
REMARK    4  A    between atoms: S_5  and  C_6
REMARK    5  A    between atoms: C_6  and  C_7
REMARK    6  A    between atoms: N_9  and  C_10
REMARK    7  A    between atoms: C_10  and  C_11
REMARK    8  A    between atoms: C_11  and  C_12
REMARK    9  A    between atoms: C_12  and  N_13
REMARK   10  A    between atoms: C_21  and  C_22
REMARK   11  A    between atoms: C_26  and  C_27
REMARK                            x       y       z     vdW  Elec       q    Type
REMARK                         _______ _______ _______ _____ _____    ______ ____
ROOT
ATOM      1  S   UNL     1       2.233   5.746  20.847  0.00  0.00    +0.000 S 
ENDROOT
BRANCH   1   3
ATOM      2  N   UNL     1       1.218   8.255  20.221  0.00  0.00    +0.000 N 
ATOM      3  C   UNL     1       2.005   7.167  19.891  0.00  0.00    +0.000 A 
ATOM      4  N   UNL     1       2.554   7.359  18.709  0.00  0.00    +0.000 NA
ATOM      5  N   UNL     1       2.123   8.574  18.244  0.00  0.00    +0.000 NA
ATOM      6  C   UNL     1       1.335   9.142  19.148  0.00  0.00    +0.000 A 
BRANCH   6   7
ATOM      7  C   UNL     1       0.709  10.473  18.964  0.00  0.00    +0.000 A 
ATOM      8  C   UNL     1       1.439  11.658  18.823  0.00  0.00    +0.000 A 
ATOM      9  C   UNL     1       0.817  12.891  18.628  0.00  0.00    +0.000 A 
ATOM     10  C   UNL     1      -0.568  12.967  18.531  0.00  0.00    +0.000 A 
ATOM     11  C   UNL     1      -1.335  11.804  18.626  0.00  0.00    +0.000 A 
ATOM     12  C   UNL     1      -2.827  11.873  18.483  0.00  0.00    +0.000 C 
ATOM     13  C   UNL     1      -0.695  10.568  18.844  0.00  0.00    +0.000 A 
ENDBRANCH   6   7
BRANCH   2  15
ATOM     14  C   UNL     1       0.886   9.387  22.491  0.00  0.00    +0.000 C 
ATOM     15  C   UNL     1       0.373   8.487  21.388  0.00  0.00    +0.000 C 
ENDBRANCH   2  15
ENDBRANCH   1   3
BRANCH   1  16
ATOM     16  C   UNL     1       1.168   4.445  20.179  0.00  0.00    +0.000 C 
BRANCH  16  17
ATOM     17  C   UNL     1       1.972   3.544  19.227  0.00  0.00    +0.000 C 
ATOM     18  O   UNL     1       2.201   2.356  19.480  0.00  0.00    +0.000 OA
ATOM     19  N   UNL     1       2.366   4.125  18.037  0.00  0.00    +0.000 N 
ATOM     20  H   UNL     1       2.122   5.103  17.893  0.00  0.00    +0.000 HD
BRANCH  19  21
ATOM     21  C   UNL     1       3.133   3.436  17.018  0.00  0.00    +0.000 C 
BRANCH  21  22
ATOM     22  C   UNL     1       4.621   3.380  17.354  0.00  0.00    +0.000 C 
BRANCH  22  23
ATOM     23  C   UNL     1       5.484   4.086  16.305  0.00  0.00    +0.000 C 
BRANCH  23  24
ATOM     24  N   UNL     1       6.202   5.229  16.849  0.00  0.00    +0.000 N 
ATOM     25  C   UNL     1       5.573   6.500  17.114  0.00  0.00    +0.000 C 
ATOM     26  C   UNL     1       6.752   7.407  17.406  0.00  0.00    +0.000 C 
ATOM     27  C   UNL     1       7.753   6.479  18.082  0.00  0.00    +0.000 C 
ATOM     28  C   UNL     1       7.443   5.136  17.466  0.00  0.00    +0.000 C 
ATOM     29  O   UNL     1       8.142   4.137  17.557  0.00  0.00    +0.000 OA
ENDBRANCH  23  24
ENDBRANCH  22  23
ENDBRANCH  21  22
ENDBRANCH  19  21
ENDBRANCH  16  17
ENDBRANCH   1  16
TORSDOF 9
ENDMDL
MODEL 5
REMARK VINA RESULT:      -7.1      6.818     11.320
REMARK  Name = 
REMARK  11 active torsions:
REMARK  status: ('A' for Active; 'I' for Inactive)
REMARK    1  A    between atoms: C_1  and  C_2
REMARK    2  A    between atoms: C_2  and  N_3
REMARK    3  A    between atoms: C_4  and  S_5
REMARK    4  A    between atoms: S_5  and  C_6
REMARK    5  A    between atoms: C_6  and  C_7
REMARK    6  A    between atoms: N_9  and  C_10
REMARK    7  A    between atoms: C_10  and  C_11
REMARK    8  A    between atoms: C_11  and  C_12
REMARK    9  A    between atoms: C_12  and  N_13
REMARK   10  A    between atoms: C_21  and  C_22
REMARK   11  A    between atoms: C_26  and  C_27
REMARK                            x       y       z     vdW  Elec       q    Type
REMARK                         _______ _______ _______ _____ _____    ______ ____
ROOT
ATOM      1  S   UNL     1       1.163   9.424  19.555  0.00  0.00    +0.000 S 
ENDROOT
BRANCH   1   3
ATOM      2  N   UNL     1      -0.457  11.124  21.039  0.00  0.00    +0.000 N 
ATOM      3  C   UNL     1       0.463  10.093  20.986  0.00  0.00    +0.000 A 
ATOM      4  N   UNL     1       0.754   9.695  22.207  0.00  0.00    +0.000 NA
ATOM      5  N   UNL     1       0.036  10.470  23.079  0.00  0.00    +0.000 NA
ATOM      6  C   UNL     1      -0.718  11.322  22.397  0.00  0.00    +0.000 A 
BRANCH   6   7
ATOM      7  C   UNL     1      -1.631  12.298  23.040  0.00  0.00    +0.000 A 
ATOM      8  C   UNL     1      -2.947  12.000  23.408  0.00  0.00    +0.000 A 
ATOM      9  C   UNL     1      -3.771  12.937  24.032  0.00  0.00    +0.000 A 
ATOM     10  C   UNL     1      -3.282  14.201  24.341  0.00  0.00    +0.000 A 
ATOM     11  C   UNL     1      -1.961  14.531  24.027  0.00  0.00    +0.000 A 
ATOM     12  C   UNL     1      -1.414  15.879  24.392  0.00  0.00    +0.000 C 
ATOM     13  C   UNL     1      -1.147  13.582  23.378  0.00  0.00    +0.000 A 
ENDBRANCH   6   7
BRANCH   2  15
ATOM     14  C   UNL     1      -0.354  13.209  19.561  0.00  0.00    +0.000 C 
ATOM     15  C   UNL     1      -1.040  11.922  19.966  0.00  0.00    +0.000 C 
ENDBRANCH   2  15
ENDBRANCH   1   3
BRANCH   1  16
ATOM     16  C   UNL     1       1.857   7.807  19.973  0.00  0.00    +0.000 C 
BRANCH  16  17
ATOM     17  C   UNL     1       2.677   7.264  18.791  0.00  0.00    +0.000 C 
ATOM     18  O   UNL     1       2.881   7.931  17.770  0.00  0.00    +0.000 OA
ATOM     19  N   UNL     1       3.232   6.011  18.967  0.00  0.00    +0.000 N 
ATOM     20  H   UNL     1       3.035   5.535  19.844  0.00  0.00    +0.000 HD
BRANCH  19  21
ATOM     21  C   UNL     1       4.032   5.336  17.965  0.00  0.00    +0.000 C 
BRANCH  21  22
ATOM     22  C   UNL     1       3.231   4.288  17.196  0.00  0.00    +0.000 C 
BRANCH  22  23
ATOM     23  C   UNL     1       3.258   2.917  17.877  0.00  0.00    +0.000 C 
BRANCH  23  24
ATOM     24  N   UNL     1       2.739   2.959  19.236  0.00  0.00    +0.000 N 
ATOM     25  C   UNL     1       1.331   3.037  19.540  0.00  0.00    +0.000 C 
ATOM     26  C   UNL     1       1.320   3.318  21.030  0.00  0.00    +0.000 C 
ATOM     27  C   UNL     1       2.546   2.571  21.540  0.00  0.00    +0.000 C 
ATOM     28  C   UNL     1       3.483   2.605  20.356  0.00  0.00    +0.000 C 
ATOM     29  O   UNL     1       4.668   2.310  20.383  0.00  0.00    +0.000 OA
ENDBRANCH  23  24
ENDBRANCH  22  23
ENDBRANCH  21  22
ENDBRANCH  19  21
ENDBRANCH  16  17
ENDBRANCH   1  16
TORSDOF 9
ENDMDL
MODEL 6
REMARK VINA RESULT:      -7.1      5.246      8.737
REMARK  Name = 
REMARK  11 active torsions:
REMARK  status: ('A' for Active; 'I' for Inactive)
REMARK    1  A    between atoms: C_1  and  C_2
REMARK    2  A    between atoms: C_2  and  N_3
REMARK    3  A    between atoms: C_4  and  S_5
REMARK    4  A    between atoms: S_5  and  C_6
REMARK    5  A    between atoms: C_6  and  C_7
REMARK    6  A    between atoms: N_9  and  C_10
REMARK    7  A    between atoms: C_10  and  C_11
REMARK    8  A    between atoms: C_11  and  C_12
REMARK    9  A    between atoms: C_12  and  N_13
REMARK   10  A    between atoms: C_21  and  C_22
REMARK   11  A    between atoms: C_26  and  C_27
REMARK                            x       y       z     vdW  Elec       q    Type
REMARK                         _______ _______ _______ _____ _____    ______ ____
ROOT
ATOM      1  S   UNL     1       2.243   5.867  20.935  0.00  0.00    +0.000 S 
ENDROOT
BRANCH   1   3
ATOM      2  N   UNL     1       1.172   8.327  20.214  0.00  0.00    +0.000 N 
ATOM      3  C   UNL     1       2.007   7.259  19.939  0.00  0.00    +0.000 A 
ATOM      4  N   UNL     1       2.596   7.444  18.776  0.00  0.00    +0.000 NA
ATOM      5  N   UNL     1       2.144   8.634  18.267  0.00  0.00    +0.000 NA
ATOM      6  C   UNL     1       1.303   9.194  19.126  0.00  0.00    +0.000 A 
BRANCH   6   7
ATOM      7  C   UNL     1       0.641  10.499  18.888  0.00  0.00    +0.000 A 
ATOM      8  C   UNL     1       1.323  11.721  18.878  0.00  0.00    +0.000 A 
ATOM      9  C   UNL     1       0.672  12.928  18.627  0.00  0.00    +0.000 A 
ATOM     10  C   UNL     1      -0.689  12.942  18.340  0.00  0.00    +0.000 A 
ATOM     11  C   UNL     1      -1.402  11.742  18.300  0.00  0.00    +0.000 A 
ATOM     12  C   UNL     1      -2.862  11.745  17.952  0.00  0.00    +0.000 C 
ATOM     13  C   UNL     1      -0.736  10.531  18.576  0.00  0.00    +0.000 A 
ENDBRANCH   6   7
BRANCH   2  15
ATOM     14  C   UNL     1       0.752   9.417  22.489  0.00  0.00    +0.000 C 
ATOM     15  C   UNL     1       0.275   8.554  21.341  0.00  0.00    +0.000 C 
ENDBRANCH   2  15
ENDBRANCH   1   3
BRANCH   1  16
ATOM     16  C   UNL     1       1.260   4.513  20.248  0.00  0.00    +0.000 C 
BRANCH  16  17
ATOM     17  C   UNL     1       1.811   4.108  18.871  0.00  0.00    +0.000 C 
ATOM     18  O   UNL     1       1.331   4.539  17.817  0.00  0.00    +0.000 OA
ATOM     19  N   UNL     1       2.920   3.284  18.884  0.00  0.00    +0.000 N 
ATOM     20  H   UNL     1       3.268   2.988  19.794  0.00  0.00    +0.000 HD
BRANCH  19  21
ATOM     21  C   UNL     1       3.575   2.795  17.688  0.00  0.00    +0.000 C 
BRANCH  21  22
ATOM     22  C   UNL     1       4.796   3.633  17.314  0.00  0.00    +0.000 C 
BRANCH  22  23
ATOM     23  C   UNL     1       5.513   4.200  18.542  0.00  0.00    +0.000 C 
BRANCH  23  24
ATOM     24  N   UNL     1       6.407   5.299  18.208  0.00  0.00    +0.000 N 
ATOM     25  C   UNL     1       6.160   6.211  17.118  0.00  0.00    +0.000 C 
ATOM     26  C   UNL     1       7.463   6.979  17.016  0.00  0.00    +0.000 C 
ATOM     27  C   UNL     1       7.947   7.047  18.459  0.00  0.00    +0.000 C 
ATOM     28  C   UNL     1       7.384   5.786  19.068  0.00  0.00    +0.000 C 
ATOM     29  O   UNL     1       7.699   5.322  20.154  0.00  0.00    +0.000 OA
ENDBRANCH  23  24
ENDBRANCH  22  23
ENDBRANCH  21  22
ENDBRANCH  19  21
ENDBRANCH  16  17
ENDBRANCH   1  16
TORSDOF 9
ENDMDL
MODEL 7
REMARK VINA RESULT:      -7.1      6.983     11.081
REMARK  Name = 
REMARK  11 active torsions:
REMARK  status: ('A' for Active; 'I' for Inactive)
REMARK    1  A    between atoms: C_1  and  C_2
REMARK    2  A    between atoms: C_2  and  N_3
REMARK    3  A    between atoms: C_4  and  S_5
REMARK    4  A    between atoms: S_5  and  C_6
REMARK    5  A    between atoms: C_6  and  C_7
REMARK    6  A    between atoms: N_9  and  C_10
REMARK    7  A    between atoms: C_10  and  C_11
REMARK    8  A    between atoms: C_11  and  C_12
REMARK    9  A    between atoms: C_12  and  N_13
REMARK   10  A    between atoms: C_21  and  C_22
REMARK   11  A    between atoms: C_26  and  C_27
REMARK                            x       y       z     vdW  Elec       q    Type
REMARK                         _______ _______ _______ _____ _____    ______ ____
ROOT
ATOM      1  S   UNL     1       0.878  10.061  19.240  0.00  0.00    +0.000 S 
ENDROOT
BRANCH   1   3
ATOM      2  N   UNL     1      -0.641  11.600  20.984  0.00  0.00    +0.000 N 
ATOM      3  C   UNL     1       0.273  10.584  20.771  0.00  0.00    +0.000 A 
ATOM      4  N   UNL     1       0.644  10.072  21.926  0.00  0.00    +0.000 NA
ATOM      5  N   UNL     1      -0.016  10.755  22.915  0.00  0.00    +0.000 NA
ATOM      6  C   UNL     1      -0.813  11.664  22.369  0.00  0.00    +0.000 A 
BRANCH   6   7
ATOM      7  C   UNL     1      -1.681  12.569  23.161  0.00  0.00    +0.000 A 
ATOM      8  C   UNL     1      -1.300  13.855  23.559  0.00  0.00    +0.000 A 
ATOM      9  C   UNL     1      -2.152  14.687  24.284  0.00  0.00    +0.000 A 
ATOM     10  C   UNL     1      -3.437  14.264  24.603  0.00  0.00    +0.000 A 
ATOM     11  C   UNL     1      -3.875  13.003  24.192  0.00  0.00    +0.000 A 
ATOM     12  C   UNL     1      -5.274  12.555  24.499  0.00  0.00    +0.000 C 
ATOM     13  C   UNL     1      -2.997  12.164  23.479  0.00  0.00    +0.000 A 
ENDBRANCH   6   7
BRANCH   2  15
ATOM     14  C   UNL     1      -2.738  12.237  19.665  0.00  0.00    +0.000 C 
ATOM     15  C   UNL     1      -1.293  12.494  20.034  0.00  0.00    +0.000 C 
ENDBRANCH   2  15
ENDBRANCH   1   3
BRANCH   1  16
ATOM     16  C   UNL     1       1.725   8.481  19.482  0.00  0.00    +0.000 C 
BRANCH  16  17
ATOM     17  C   UNL     1       2.526   8.115  18.221  0.00  0.00    +0.000 C 
ATOM     18  O   UNL     1       2.514   8.820  17.206  0.00  0.00    +0.000 OA
ATOM     19  N   UNL     1       3.315   6.984  18.315  0.00  0.00    +0.000 N 
ATOM     20  H   UNL     1       3.285   6.468  19.192  0.00  0.00    +0.000 HD
BRANCH  19  21
ATOM     21  C   UNL     1       4.135   6.481  17.231  0.00  0.00    +0.000 C 
BRANCH  21  22
ATOM     22  C   UNL     1       5.217   5.523  17.723  0.00  0.00    +0.000 C 
BRANCH  22  23
ATOM     23  C   UNL     1       4.966   4.080  17.279  0.00  0.00    +0.000 C 
BRANCH  23  24
ATOM     24  N   UNL     1       3.804   3.491  17.929  0.00  0.00    +0.000 N 
ATOM     25  C   UNL     1       2.554   3.257  17.247  0.00  0.00    +0.000 C 
ATOM     26  C   UNL     1       1.613   2.894  18.378  0.00  0.00    +0.000 C 
ATOM     27  C   UNL     1       2.514   2.165  19.367  0.00  0.00    +0.000 C 
ATOM     28  C   UNL     1       3.863   2.803  19.135  0.00  0.00    +0.000 C 
ATOM     29  O   UNL     1       4.840   2.676  19.857  0.00  0.00    +0.000 OA
ENDBRANCH  23  24
ENDBRANCH  22  23
ENDBRANCH  21  22
ENDBRANCH  19  21
ENDBRANCH  16  17
ENDBRANCH   1  16
TORSDOF 9
ENDMDL
MODEL 8
REMARK VINA RESULT:      -7.0      2.638      4.736
REMARK  Name = 
REMARK  11 active torsions:
REMARK  status: ('A' for Active; 'I' for Inactive)
REMARK    1  A    between atoms: C_1  and  C_2
REMARK    2  A    between atoms: C_2  and  N_3
REMARK    3  A    between atoms: C_4  and  S_5
REMARK    4  A    between atoms: S_5  and  C_6
REMARK    5  A    between atoms: C_6  and  C_7
REMARK    6  A    between atoms: N_9  and  C_10
REMARK    7  A    between atoms: C_10  and  C_11
REMARK    8  A    between atoms: C_11  and  C_12
REMARK    9  A    between atoms: C_12  and  N_13
REMARK   10  A    between atoms: C_21  and  C_22
REMARK   11  A    between atoms: C_26  and  C_27
REMARK                            x       y       z     vdW  Elec       q    Type
REMARK                         _______ _______ _______ _____ _____    ______ ____
ROOT
ATOM      1  S   UNL     1       5.083   4.454  17.582  0.00  0.00    +0.000 S 
ENDROOT
BRANCH   1   3
ATOM      2  N   UNL     1       3.259   6.322  18.529  0.00  0.00    +0.000 N 
ATOM      3  C   UNL     1       4.216   5.947  17.603  0.00  0.00    +0.000 A 
ATOM      4  N   UNL     1       4.362   6.900  16.707  0.00  0.00    +0.000 NA
ATOM      5  N   UNL     1       3.493   7.910  17.028  0.00  0.00    +0.000 NA
ATOM      6  C   UNL     1       2.835   7.593  18.136  0.00  0.00    +0.000 A 
BRANCH   6   7
ATOM      7  C   UNL     1       1.824   8.477  18.765  0.00  0.00    +0.000 A 
ATOM      8  C   UNL     1       0.977   9.322  18.040  0.00  0.00    +0.000 A 
ATOM      9  C   UNL     1       0.022  10.124  18.664  0.00  0.00    +0.000 A 
ATOM     10  C   UNL     1      -0.139  10.073  20.044  0.00  0.00    +0.000 A 
ATOM     11  C   UNL     1       0.658   9.215  20.805  0.00  0.00    +0.000 A 
ATOM     12  C   UNL     1       0.464   9.126  22.290  0.00  0.00    +0.000 C 
ATOM     13  C   UNL     1       1.634   8.426  20.164  0.00  0.00    +0.000 A 
ENDBRANCH   6   7
BRANCH   2  15
ATOM     14  C   UNL     1       1.710   4.487  19.411  0.00  0.00    +0.000 C 
ATOM     15  C   UNL     1       2.713   5.591  19.668  0.00  0.00    +0.000 C 
ENDBRANCH   2  15
ENDBRANCH   1   3
BRANCH   1  16
ATOM     16  C   UNL     1       6.792   4.791  18.071  0.00  0.00    +0.000 C 
BRANCH  16  17
ATOM     17  C   UNL     1       7.306   6.050  17.353  0.00  0.00    +0.000 C 
ATOM     18  O   UNL     1       7.571   6.057  16.146  0.00  0.00    +0.000 OA
ATOM     19  N   UNL     1       7.390   7.193  18.125  0.00  0.00    +0.000 N 
ATOM     20  H   UNL     1       7.134   7.110  19.107  0.00  0.00    +0.000 HD
BRANCH  19  21
ATOM     21  C   UNL     1       7.855   8.471  17.625  0.00  0.00    +0.000 C 
BRANCH  21  22
ATOM     22  C   UNL     1       8.751   9.193  18.629  0.00  0.00    +0.000 C 
BRANCH  22  23
ATOM     23  C   UNL     1       9.095  10.617  18.185  0.00  0.00    +0.000 C 
BRANCH  23  24
ATOM     24  N   UNL     1       9.332  11.510  19.310  0.00  0.00    +0.000 N 
ATOM     25  C   UNL     1       9.510  11.042  20.664  0.00  0.00    +0.000 C 
ATOM     26  C   UNL     1       9.455  12.321  21.475  0.00  0.00    +0.000 C 
ATOM     27  C   UNL     1      10.078  13.356  20.546  0.00  0.00    +0.000 C 
ATOM     28  C   UNL     1       9.732  12.834  19.172  0.00  0.00    +0.000 C 
ATOM     29  O   UNL     1       9.848  13.458  18.128  0.00  0.00    +0.000 OA
ENDBRANCH  23  24
ENDBRANCH  22  23
ENDBRANCH  21  22
ENDBRANCH  19  21
ENDBRANCH  16  17
ENDBRANCH   1  16
TORSDOF 9
ENDMDL
MODEL 9
REMARK VINA RESULT:      -7.0      2.325      3.066
REMARK  Name = 
REMARK  11 active torsions:
REMARK  status: ('A' for Active; 'I' for Inactive)
REMARK    1  A    between atoms: C_1  and  C_2
REMARK    2  A    between atoms: C_2  and  N_3
REMARK    3  A    between atoms: C_4  and  S_5
REMARK    4  A    between atoms: S_5  and  C_6
REMARK    5  A    between atoms: C_6  and  C_7
REMARK    6  A    between atoms: N_9  and  C_10
REMARK    7  A    between atoms: C_10  and  C_11
REMARK    8  A    between atoms: C_11  and  C_12
REMARK    9  A    between atoms: C_12  and  N_13
REMARK   10  A    between atoms: C_21  and  C_22
REMARK   11  A    between atoms: C_26  and  C_27
REMARK                            x       y       z     vdW  Elec       q    Type
REMARK                         _______ _______ _______ _____ _____    ______ ____
ROOT
ATOM      1  S   UNL     1       7.578   7.869  17.448  0.00  0.00    +0.000 S 
ENDROOT
BRANCH   1   3
ATOM      2  N   UNL     1       5.539   6.023  17.838  0.00  0.00    +0.000 N 
ATOM      3  C   UNL     1       6.837   6.440  18.074  0.00  0.00    +0.000 A 
ATOM      4  N   UNL     1       7.437   5.587  18.877  0.00  0.00    +0.000 NA
ATOM      5  N   UNL     1       6.535   4.604  19.188  0.00  0.00    +0.000 NA
ATOM      6  C   UNL     1       5.392   4.834  18.555  0.00  0.00    +0.000 A 
BRANCH   6   7
ATOM      7  C   UNL     1       4.207   3.949  18.663  0.00  0.00    +0.000 A 
ATOM      8  C   UNL     1       3.848   3.015  17.686  0.00  0.00    +0.000 A 
ATOM      9  C   UNL     1       2.738   2.182  17.831  0.00  0.00    +0.000 A 
ATOM     10  C   UNL     1       1.970   2.238  18.989  0.00  0.00    +0.000 A 
ATOM     11  C   UNL     1       2.315   3.128  20.008  0.00  0.00    +0.000 A 
ATOM     12  C   UNL     1       1.514   3.167  21.277  0.00  0.00    +0.000 C 
ATOM     13  C   UNL     1       3.425   3.979  19.839  0.00  0.00    +0.000 A 
ENDBRANCH   6   7
BRANCH   2  15
ATOM     14  C   UNL     1       3.331   7.314  17.807  0.00  0.00    +0.000 C 
ATOM     15  C   UNL     1       4.474   6.654  17.066  0.00  0.00    +0.000 C 
ENDBRANCH   2  15
ENDBRANCH   1   3
BRANCH   1  16
ATOM     16  C   UNL     1       8.629   8.569  18.743  0.00  0.00    +0.000 C 
BRANCH  16  17
ATOM     17  C   UNL     1       8.894  10.057  18.460  0.00  0.00    +0.000 C 
ATOM     18  O   UNL     1       8.260  10.688  17.607  0.00  0.00    +0.000 OA
ATOM     19  N   UNL     1       9.838  10.666  19.265  0.00  0.00    +0.000 N 
ATOM     20  H   UNL     1      10.302  10.083  19.959  0.00  0.00    +0.000 HD
BRANCH  19  21
ATOM     21  C   UNL     1      10.223  12.057  19.145  0.00  0.00    +0.000 C 
BRANCH  21  22
ATOM     22  C   UNL     1       9.899  12.858  20.404  0.00  0.00    +0.000 C 
BRANCH  22  23
ATOM     23  C   UNL     1       9.264  11.995  21.498  0.00  0.00    +0.000 C 
BRANCH  23  24
ATOM     24  N   UNL     1       8.919  12.763  22.685  0.00  0.00    +0.000 N 
ATOM     25  C   UNL     1       8.926  14.205  22.719  0.00  0.00    +0.000 C 
ATOM     26  C   UNL     1       8.766  14.510  24.196  0.00  0.00    +0.000 C 
ATOM     27  C   UNL     1       7.887  13.372  24.699  0.00  0.00    +0.000 C 
ATOM     28  C   UNL     1       8.247  12.230  23.779  0.00  0.00    +0.000 C 
ATOM     29  O   UNL     1       7.941  11.060  23.949  0.00  0.00    +0.000 OA
ENDBRANCH  23  24
ENDBRANCH  22  23
ENDBRANCH  21  22
ENDBRANCH  19  21
ENDBRANCH  16  17
ENDBRANCH   1  16
TORSDOF 9
ENDMDL
