MODEL 1
REMARK VINA RESULT:      -8.4      0.000      0.000
REMARK  Name = 
REMARK  6 active torsions:
REMARK  status: ('A' for Active; 'I' for Inactive)
REMARK    1  A    between atoms: C_1  and  C_2
REMARK    2  A    between atoms: C_7  and  N_8
REMARK    3  A    between atoms: C_9  and  C_11
REMARK    4  A    between atoms: C_11  and  N_12
REMARK    5  A    between atoms: C_14  and  C_15
REMARK    6  A    between atoms: C_19  and  C_20
REMARK                            x       y       z     vdW  Elec       q    Type
REMARK                         _______ _______ _______ _____ _____    ______ ____
ROOT
ATOM      1  N   UNL     1       4.406   5.255  18.212  0.00  0.00    +0.000 N 
ATOM      2  N   UNL     1       4.720   5.847  17.030  0.00  0.00    +0.000 NA
ATOM      3  C   UNL     1       5.128   4.839  16.265  0.00  0.00    +0.000 A 
ATOM      4  C   UNL     1       5.124   3.623  16.953  0.00  0.00    +0.000 A 
ATOM      5  C   UNL     1       4.668   3.889  18.230  0.00  0.00    +0.000 A 
ENDROOT
BRANCH   5   6
ATOM      6  C   UNL     1       4.316   3.003  19.321  0.00  0.00    +0.000 C 
ATOM      7  O   UNL     1       5.196   2.503  20.021  0.00  0.00    +0.000 OA
ATOM      8  N   UNL     1       2.991   2.838  19.689  0.00  0.00    +0.000 N 
ATOM      9  C   UNL     1       1.750   2.997  18.950  0.00  0.00    +0.000 C 
ATOM     10  C   UNL     1       0.862   3.661  19.986  0.00  0.00    +0.000 C 
ATOM     11  C   UNL     1       1.229   2.909  21.265  0.00  0.00    +0.000 C 
ATOM     12  C   UNL     1       2.683   2.480  21.061  0.00  0.00    +0.000 C 
ENDBRANCH   5   6
BRANCH   3  13
ATOM     13  C   UNL     1       5.476   4.898  14.790  0.00  0.00    +0.000 C 
ATOM     14  C   UNL     1       6.941   4.959  14.414  0.00  0.00    +0.000 C 
ATOM     15  C   UNL     1       6.141   3.744  14.083  0.00  0.00    +0.000 C 
ENDBRANCH   3  13
BRANCH   1  16
ATOM     16  C   UNL     1       3.845   6.082  19.274  0.00  0.00    +0.000 C 
BRANCH  16  18
ATOM     17  N   UNL     1       2.354   8.041  19.594  0.00  0.00    +0.000 N 
ATOM     18  C   UNL     1       2.577   6.850  18.923  0.00  0.00    +0.000 C 
ATOM     19  O   UNL     1       1.845   6.400  18.038  0.00  0.00    +0.000 OA
ATOM     20  H   UNL     1       3.004   8.284  20.326  0.00  0.00    +0.000 HD
BRANCH  17  27
ATOM     21  C   UNL     1       0.903   8.917  21.965  0.00  0.00    +0.000 C 
ATOM     22  C   UNL     1       0.555   9.372  20.573  0.00  0.00    +0.000 A 
ATOM     23  C   UNL     1      -0.553  10.226  20.412  0.00  0.00    +0.000 A 
ATOM     24  C   UNL     1      -0.950  10.655  19.149  0.00  0.00    +0.000 A 
ATOM     25  C   UNL     1      -0.232  10.253  18.030  0.00  0.00    +0.000 A 
ATOM     26  C   UNL     1       0.869   9.405  18.172  0.00  0.00    +0.000 A 
ATOM     27  C   UNL     1       1.266   8.937  19.431  0.00  0.00    +0.000 A 
ENDBRANCH  17  27
ENDBRANCH  16  18
ENDBRANCH   1  16
TORSDOF 5
ENDMDL
MODEL 2
REMARK VINA RESULT:      -8.2      0.529      1.348
REMARK  Name = 
REMARK  6 active torsions:
REMARK  status: ('A' for Active; 'I' for Inactive)
REMARK    1  A    between atoms: C_1  and  C_2
REMARK    2  A    between atoms: C_7  and  N_8
REMARK    3  A    between atoms: C_9  and  C_11
REMARK    4  A    between atoms: C_11  and  N_12
REMARK    5  A    between atoms: C_14  and  C_15
REMARK    6  A    between atoms: C_19  and  C_20
REMARK                            x       y       z     vdW  Elec       q    Type
REMARK                         _______ _______ _______ _____ _____    ______ ____
ROOT
ATOM      1  N   UNL     1       4.554   5.135  18.282  0.00  0.00    +0.000 N 
ATOM      2  N   UNL     1       4.864   5.729  17.100  0.00  0.00    +0.000 NA
ATOM      3  C   UNL     1       5.117   4.708  16.285  0.00  0.00    +0.000 A 
ATOM      4  C   UNL     1       5.021   3.477  16.940  0.00  0.00    +0.000 A 
ATOM      5  C   UNL     1       4.668   3.749  18.248  0.00  0.00    +0.000 A 
ENDROOT
BRANCH   5   6
ATOM      6  C   UNL     1       4.285   2.870  19.334  0.00  0.00    +0.000 C 
ATOM      7  O   UNL     1       5.146   2.339  20.034  0.00  0.00    +0.000 OA
ATOM      8  N   UNL     1       2.955   2.747  19.698  0.00  0.00    +0.000 N 
ATOM      9  C   UNL     1       1.721   2.950  18.957  0.00  0.00    +0.000 C 
ATOM     10  C   UNL     1       0.853   3.638  19.993  0.00  0.00    +0.000 C 
ATOM     11  C   UNL     1       1.191   2.868  21.271  0.00  0.00    +0.000 C 
ATOM     12  C   UNL     1       2.632   2.393  21.068  0.00  0.00    +0.000 C 
ENDBRANCH   5   6
BRANCH   3  13
ATOM     13  C   UNL     1       5.386   4.778  14.794  0.00  0.00    +0.000 C 
ATOM     14  C   UNL     1       6.825   4.913  14.344  0.00  0.00    +0.000 C 
ATOM     15  C   UNL     1       6.074   3.656  14.057  0.00  0.00    +0.000 C 
ENDBRANCH   3  13
BRANCH   1  16
ATOM     16  C   UNL     1       4.146   5.981  19.397  0.00  0.00    +0.000 C 
BRANCH  16  18
ATOM     17  N   UNL     1       2.557   7.765  20.078  0.00  0.00    +0.000 N 
ATOM     18  C   UNL     1       2.804   6.686  19.243  0.00  0.00    +0.000 C 
ATOM     19  O   UNL     1       2.033   6.295  18.363  0.00  0.00    +0.000 OA
ATOM     20  H   UNL     1       3.249   7.964  20.785  0.00  0.00    +0.000 HD
BRANCH  17  27
ATOM     21  C   UNL     1       2.089   9.602  17.865  0.00  0.00    +0.000 C 
ATOM     22  C   UNL     1       1.162   9.481  19.044  0.00  0.00    +0.000 A 
ATOM     23  C   UNL     1       0.040  10.331  19.095  0.00  0.00    +0.000 A 
ATOM     24  C   UNL     1      -0.839  10.294  20.174  0.00  0.00    +0.000 A 
ATOM     25  C   UNL     1      -0.619   9.393  21.208  0.00  0.00    +0.000 A 
ATOM     26  C   UNL     1       0.490   8.544  21.174  0.00  0.00    +0.000 A 
ATOM     27  C   UNL     1       1.402   8.586  20.112  0.00  0.00    +0.000 A 
ENDBRANCH  17  27
ENDBRANCH  16  18
ENDBRANCH   1  16
TORSDOF 5
ENDMDL
MODEL 3
REMARK VINA RESULT:      -8.2      2.121      2.959
REMARK  Name = 
REMARK  6 active torsions:
REMARK  status: ('A' for Active; 'I' for Inactive)
REMARK    1  A    between atoms: C_1  and  C_2
REMARK    2  A    between atoms: C_7  and  N_8
REMARK    3  A    between atoms: C_9  and  C_11
REMARK    4  A    between atoms: C_11  and  N_12
REMARK    5  A    between atoms: C_14  and  C_15
REMARK    6  A    between atoms: C_19  and  C_20
REMARK                            x       y       z     vdW  Elec       q    Type
REMARK                         _______ _______ _______ _____ _____    ______ ____
ROOT
ATOM      1  N   UNL     1       3.148   6.938  17.886  0.00  0.00    +0.000 N 
ATOM      2  N   UNL     1       4.378   7.416  17.562  0.00  0.00    +0.000 NA
ATOM      3  C   UNL     1       5.141   6.328  17.510  0.00  0.00    +0.000 A 
ATOM      4  C   UNL     1       4.429   5.172  17.842  0.00  0.00    +0.000 A 
ATOM      5  C   UNL     1       3.131   5.565  18.102  0.00  0.00    +0.000 A 
ENDROOT
BRANCH   5   6
ATOM      6  C   UNL     1       1.930   4.790  18.344  0.00  0.00    +0.000 C 
ATOM      7  O   UNL     1       1.229   4.425  17.400  0.00  0.00    +0.000 OA
ATOM      8  N   UNL     1       1.648   4.313  19.613  0.00  0.00    +0.000 N 
ATOM      9  C   UNL     1       2.040   4.776  20.933  0.00  0.00    +0.000 C 
ATOM     10  C   UNL     1       2.318   3.465  21.645  0.00  0.00    +0.000 C 
ATOM     11  C   UNL     1       1.183   2.571  21.143  0.00  0.00    +0.000 C 
ATOM     12  C   UNL     1       0.852   3.108  19.749  0.00  0.00    +0.000 C 
ENDBRANCH   5   6
BRANCH   3  13
ATOM     13  C   UNL     1       6.587   6.250  17.060  0.00  0.00    +0.000 C 
ATOM     14  C   UNL     1       7.642   6.838  17.973  0.00  0.00    +0.000 C 
ATOM     15  C   UNL     1       7.589   5.363  17.755  0.00  0.00    +0.000 C 
ENDBRANCH   3  13
BRANCH   1  16
ATOM     16  C   UNL     1       2.035   7.878  17.954  0.00  0.00    +0.000 C 
BRANCH  16  18
ATOM     17  N   UNL     1       0.643   9.303  19.437  0.00  0.00    +0.000 N 
ATOM     18  C   UNL     1       1.648   8.353  19.349  0.00  0.00    +0.000 C 
ATOM     19  O   UNL     1       2.210   7.842  20.320  0.00  0.00    +0.000 OA
ATOM     20  H   UNL     1       0.286   9.675  18.569  0.00  0.00    +0.000 HD
BRANCH  17  27
ATOM     21  C   UNL     1      -0.005  12.144  19.416  0.00  0.00    +0.000 C 
ATOM     22  C   UNL     1      -0.223  11.259  20.614  0.00  0.00    +0.000 A 
ATOM     23  C   UNL     1      -0.722  11.849  21.792  0.00  0.00    +0.000 A 
ATOM     24  C   UNL     1      -0.913  11.094  22.946  0.00  0.00    +0.000 A 
ATOM     25  C   UNL     1      -0.627   9.735  22.932  0.00  0.00    +0.000 A 
ATOM     26  C   UNL     1      -0.130   9.135  21.773  0.00  0.00    +0.000 A 
ATOM     27  C   UNL     1       0.098   9.882  20.611  0.00  0.00    +0.000 A 
ENDBRANCH  17  27
ENDBRANCH  16  18
ENDBRANCH   1  16
TORSDOF 5
ENDMDL
MODEL 4
REMARK VINA RESULT:      -8.1      2.082      4.582
REMARK  Name = 
REMARK  6 active torsions:
REMARK  status: ('A' for Active; 'I' for Inactive)
REMARK    1  A    between atoms: C_1  and  C_2
REMARK    2  A    between atoms: C_7  and  N_8
REMARK    3  A    between atoms: C_9  and  C_11
REMARK    4  A    between atoms: C_11  and  N_12
REMARK    5  A    between atoms: C_14  and  C_15
REMARK    6  A    between atoms: C_19  and  C_20
REMARK                            x       y       z     vdW  Elec       q    Type
REMARK                         _______ _______ _______ _____ _____    ______ ____
ROOT
ATOM      1  N   UNL     1       3.013   5.962  17.712  0.00  0.00    +0.000 N 
ATOM      2  N   UNL     1       2.063   5.075  18.106  0.00  0.00    +0.000 NA
ATOM      3  C   UNL     1       2.562   3.893  17.753  0.00  0.00    +0.000 A 
ATOM      4  C   UNL     1       3.791   4.017  17.098  0.00  0.00    +0.000 A 
ATOM      5  C   UNL     1       4.084   5.367  17.055  0.00  0.00    +0.000 A 
ENDROOT
BRANCH   5   6
ATOM      6  C   UNL     1       5.281   6.069  16.638  0.00  0.00    +0.000 C 
ATOM      7  O   UNL     1       5.239   6.859  15.696  0.00  0.00    +0.000 OA
ATOM      8  N   UNL     1       6.440   5.985  17.391  0.00  0.00    +0.000 N 
ATOM      9  C   UNL     1       6.928   4.973  18.314  0.00  0.00    +0.000 C 
ATOM     10  C   UNL     1       7.523   5.829  19.416  0.00  0.00    +0.000 C 
ATOM     11  C   UNL     1       8.209   6.947  18.631  0.00  0.00    +0.000 C 
ATOM     12  C   UNL     1       7.387   7.083  17.348  0.00  0.00    +0.000 C 
ENDBRANCH   5   6
BRANCH   3  13
ATOM     13  C   UNL     1       1.983   2.528  18.072  0.00  0.00    +0.000 C 
ATOM     14  C   UNL     1       2.028   2.063  19.512  0.00  0.00    +0.000 C 
ATOM     15  C   UNL     1       0.715   2.370  18.873  0.00  0.00    +0.000 C 
ENDBRANCH   3  13
BRANCH   1  16
ATOM     16  C   UNL     1       2.813   7.374  18.019  0.00  0.00    +0.000 C 
BRANCH  16  18
ATOM     17  N   UNL     1       1.461   8.866  19.472  0.00  0.00    +0.000 N 
ATOM     18  C   UNL     1       2.167   7.679  19.365  0.00  0.00    +0.000 C 
ATOM     19  O   UNL     1       2.265   6.842  20.266  0.00  0.00    +0.000 OA
ATOM     20  H   UNL     1       1.486   9.488  18.678  0.00  0.00    +0.000 HD
BRANCH  17  27
ATOM     21  C   UNL     1      -0.518  10.968  19.078  0.00  0.00    +0.000 C 
ATOM     22  C   UNL     1      -0.203  10.378  20.426  0.00  0.00    +0.000 A 
ATOM     23  C   UNL     1      -0.868  10.902  21.551  0.00  0.00    +0.000 A 
ATOM     24  C   UNL     1      -0.596  10.424  22.831  0.00  0.00    +0.000 A 
ATOM     25  C   UNL     1       0.328   9.402  23.000  0.00  0.00    +0.000 A 
ATOM     26  C   UNL     1       0.998   8.872  21.895  0.00  0.00    +0.000 A 
ATOM     27  C   UNL     1       0.762   9.359  20.603  0.00  0.00    +0.000 A 
ENDBRANCH  17  27
ENDBRANCH  16  18
ENDBRANCH   1  16
TORSDOF 5
ENDMDL
MODEL 5
REMARK VINA RESULT:      -8.1      2.113      2.855
REMARK  Name = 
REMARK  6 active torsions:
REMARK  status: ('A' for Active; 'I' for Inactive)
REMARK    1  A    between atoms: C_1  and  C_2
REMARK    2  A    between atoms: C_7  and  N_8
REMARK    3  A    between atoms: C_9  and  C_11
REMARK    4  A    between atoms: C_11  and  N_12
REMARK    5  A    between atoms: C_14  and  C_15
REMARK    6  A    between atoms: C_19  and  C_20
REMARK                            x       y       z     vdW  Elec       q    Type
REMARK                         _______ _______ _______ _____ _____    ______ ____
ROOT
ATOM      1  N   UNL     1       3.317   6.716  17.696  0.00  0.00    +0.000 N 
ATOM      2  N   UNL     1       4.576   7.146  17.423  0.00  0.00    +0.000 NA
ATOM      3  C   UNL     1       5.332   6.068  17.613  0.00  0.00    +0.000 A 
ATOM      4  C   UNL     1       4.582   4.973  18.050  0.00  0.00    +0.000 A 
ATOM      5  C   UNL     1       3.268   5.392  18.121  0.00  0.00    +0.000 A 
ENDROOT
BRANCH   5   6
ATOM      6  C   UNL     1       2.043   4.656  18.363  0.00  0.00    +0.000 C 
ATOM      7  O   UNL     1       1.359   4.266  17.418  0.00  0.00    +0.000 OA
ATOM      8  N   UNL     1       1.716   4.244  19.643  0.00  0.00    +0.000 N 
ATOM      9  C   UNL     1       2.084   4.756  20.953  0.00  0.00    +0.000 C 
ATOM     10  C   UNL     1       2.312   3.472  21.729  0.00  0.00    +0.000 C 
ATOM     11  C   UNL     1       1.170   2.582  21.236  0.00  0.00    +0.000 C 
ATOM     12  C   UNL     1       0.889   3.064  19.811  0.00  0.00    +0.000 C 
ENDBRANCH   5   6
BRANCH   3  13
ATOM     13  C   UNL     1       6.814   5.932  17.321  0.00  0.00    +0.000 C 
ATOM     14  C   UNL     1       7.765   5.909  18.498  0.00  0.00    +0.000 C 
ATOM     15  C   UNL     1       7.581   4.681  17.671  0.00  0.00    +0.000 C 
ENDBRANCH   3  13
BRANCH   1  16
ATOM     16  C   UNL     1       2.210   7.648  17.512  0.00  0.00    +0.000 C 
BRANCH  16  18
ATOM     17  N   UNL     1       1.163   9.678  18.486  0.00  0.00    +0.000 N 
ATOM     18  C   UNL     1       1.840   8.492  18.724  0.00  0.00    +0.000 C 
ATOM     19  O   UNL     1       2.116   8.061  19.846  0.00  0.00    +0.000 OA
ATOM     20  H   UNL     1       1.029   9.943  17.521  0.00  0.00    +0.000 HD
BRANCH  17  27
ATOM     21  C   UNL     1       2.266  12.375  18.437  0.00  0.00    +0.000 C 
ATOM     22  C   UNL     1       1.223  11.930  19.426  0.00  0.00    +0.000 A 
ATOM     23  C   UNL     1       0.797  12.854  20.401  0.00  0.00    +0.000 A 
ATOM     24  C   UNL     1      -0.139  12.496  21.368  0.00  0.00    +0.000 A 
ATOM     25  C   UNL     1      -0.677  11.216  21.361  0.00  0.00    +0.000 A 
ATOM     26  C   UNL     1      -0.265  10.287  20.403  0.00  0.00    +0.000 A 
ATOM     27  C   UNL     1       0.698  10.617  19.441  0.00  0.00    +0.000 A 
ENDBRANCH  17  27
ENDBRANCH  16  18
ENDBRANCH   1  16
TORSDOF 5
ENDMDL
MODEL 6
REMARK VINA RESULT:      -8.0      2.257      2.877
REMARK  Name = 
REMARK  6 active torsions:
REMARK  status: ('A' for Active; 'I' for Inactive)
REMARK    1  A    between atoms: C_1  and  C_2
REMARK    2  A    between atoms: C_7  and  N_8
REMARK    3  A    between atoms: C_9  and  C_11
REMARK    4  A    between atoms: C_11  and  N_12
REMARK    5  A    between atoms: C_14  and  C_15
REMARK    6  A    between atoms: C_19  and  C_20
REMARK                            x       y       z     vdW  Elec       q    Type
REMARK                         _______ _______ _______ _____ _____    ______ ____
ROOT
ATOM      1  N   UNL     1       3.430   6.780  17.580  0.00  0.00    +0.000 N 
ATOM      2  N   UNL     1       4.700   7.217  17.375  0.00  0.00    +0.000 NA
ATOM      3  C   UNL     1       5.455   6.174  17.710  0.00  0.00    +0.000 A 
ATOM      4  C   UNL     1       4.690   5.099  18.170  0.00  0.00    +0.000 A 
ATOM      5  C   UNL     1       3.368   5.493  18.101  0.00  0.00    +0.000 A 
ENDROOT
BRANCH   5   6
ATOM      6  C   UNL     1       2.140   4.749  18.301  0.00  0.00    +0.000 C 
ATOM      7  O   UNL     1       1.502   4.335  17.334  0.00  0.00    +0.000 OA
ATOM      8  N   UNL     1       1.758   4.357  19.573  0.00  0.00    +0.000 N 
ATOM      9  C   UNL     1       2.062   4.896  20.888  0.00  0.00    +0.000 C 
ATOM     10  C   UNL     1       2.266   3.629  21.697  0.00  0.00    +0.000 C 
ATOM     11  C   UNL     1       1.155   2.720  21.170  0.00  0.00    +0.000 C 
ATOM     12  C   UNL     1       0.934   3.173  19.725  0.00  0.00    +0.000 C 
ENDBRANCH   5   6
BRANCH   3  13
ATOM     13  C   UNL     1       6.958   6.049  17.549  0.00  0.00    +0.000 C 
ATOM     14  C   UNL     1       7.811   6.163  18.794  0.00  0.00    +0.000 C 
ATOM     15  C   UNL     1       7.717   4.858  18.077  0.00  0.00    +0.000 C 
ENDBRANCH   3  13
BRANCH   1  16
ATOM     16  C   UNL     1       2.327   7.669  17.234  0.00  0.00    +0.000 C 
BRANCH  16  18
ATOM     17  N   UNL     1       1.132   9.711  17.991  0.00  0.00    +0.000 N 
ATOM     18  C   UNL     1       1.809   8.559  18.358  0.00  0.00    +0.000 C 
ATOM     19  O   UNL     1       1.977   8.190  19.523  0.00  0.00    +0.000 OA
ATOM     20  H   UNL     1       1.093   9.926  17.006  0.00  0.00    +0.000 HD
BRANCH  17  27
ATOM     21  C   UNL     1      -1.748  10.128  17.851  0.00  0.00    +0.000 C 
ATOM     22  C   UNL     1      -0.852  10.890  18.789  0.00  0.00    +0.000 A 
ATOM     23  C   UNL     1      -1.433  11.881  19.602  0.00  0.00    +0.000 A 
ATOM     24  C   UNL     1      -0.655  12.647  20.467  0.00  0.00    +0.000 A 
ATOM     25  C   UNL     1       0.712  12.418  20.544  0.00  0.00    +0.000 A 
ATOM     26  C   UNL     1       1.306  11.439  19.743  0.00  0.00    +0.000 A 
ATOM     27  C   UNL     1       0.545  10.679  18.845  0.00  0.00    +0.000 A 
ENDBRANCH  17  27
ENDBRANCH  16  18
ENDBRANCH   1  16
TORSDOF 5
ENDMDL
MODEL 7
REMARK VINA RESULT:      -8.0      1.876      2.215
REMARK  Name = 
REMARK  6 active torsions:
REMARK  status: ('A' for Active; 'I' for Inactive)
REMARK    1  A    between atoms: C_1  and  C_2
REMARK    2  A    between atoms: C_7  and  N_8
REMARK    3  A    between atoms: C_9  and  C_11
REMARK    4  A    between atoms: C_11  and  N_12
REMARK    5  A    between atoms: C_14  and  C_15
REMARK    6  A    between atoms: C_19  and  C_20
REMARK                            x       y       z     vdW  Elec       q    Type
REMARK                         _______ _______ _______ _____ _____    ______ ____
ROOT
ATOM      1  N   UNL     1       3.490   6.424  18.092  0.00  0.00    +0.000 N 
ATOM      2  N   UNL     1       4.625   6.779  17.435  0.00  0.00    +0.000 NA
ATOM      3  C   UNL     1       4.896   5.724  16.670  0.00  0.00    +0.000 A 
ATOM      4  C   UNL     1       3.980   4.687  16.864  0.00  0.00    +0.000 A 
ATOM      5  C   UNL     1       3.068   5.131  17.802  0.00  0.00    +0.000 A 
ENDROOT
BRANCH   5   6
ATOM      6  C   UNL     1       1.827   4.551  18.275  0.00  0.00    +0.000 C 
ATOM      7  O   UNL     1       0.941   4.247  17.476  0.00  0.00    +0.000 OA
ATOM      8  N   UNL     1       1.688   4.182  19.602  0.00  0.00    +0.000 N 
ATOM      9  C   UNL     1       2.344   4.645  20.813  0.00  0.00    +0.000 C 
ATOM     10  C   UNL     1       2.551   3.343  21.564  0.00  0.00    +0.000 C 
ATOM     11  C   UNL     1       1.240   2.600  21.303  0.00  0.00    +0.000 C 
ATOM     12  C   UNL     1       0.768   3.113  19.941  0.00  0.00    +0.000 C 
ENDBRANCH   5   6
BRANCH   3  13
ATOM     13  C   UNL     1       5.984   5.617  15.619  0.00  0.00    +0.000 C 
ATOM     14  C   UNL     1       7.211   4.799  15.957  0.00  0.00    +0.000 C 
ATOM     15  C   UNL     1       6.270   4.322  14.902  0.00  0.00    +0.000 C 
ENDBRANCH   3  13
BRANCH   1  16
ATOM     16  C   UNL     1       2.867   7.401  18.977  0.00  0.00    +0.000 C 
BRANCH  16  18
ATOM     17  N   UNL     1       1.000   9.036  19.068  0.00  0.00    +0.000 N 
ATOM     18  C   UNL     1       1.998   8.455  18.302  0.00  0.00    +0.000 C 
ATOM     19  O   UNL     1       2.254   8.767  17.136  0.00  0.00    +0.000 OA
ATOM     20  H   UNL     1       0.863   8.669  19.998  0.00  0.00    +0.000 HD
BRANCH  17  27
ATOM     21  C   UNL     1       1.273  11.695  20.228  0.00  0.00    +0.000 C 
ATOM     22  C   UNL     1       0.206  11.339  19.228  0.00  0.00    +0.000 A 
ATOM     23  C   UNL     1      -0.729  12.332  18.875  0.00  0.00    +0.000 A 
ATOM     24  C   UNL     1      -1.762  12.058  17.982  0.00  0.00    +0.000 A 
ATOM     25  C   UNL     1      -1.863  10.795  17.416  0.00  0.00    +0.000 A 
ATOM     26  C   UNL     1      -0.945   9.798  17.756  0.00  0.00    +0.000 A 
ATOM     27  C   UNL     1       0.083  10.044  18.675  0.00  0.00    +0.000 A 
ENDBRANCH  17  27
ENDBRANCH  16  18
ENDBRANCH   1  16
TORSDOF 5
ENDMDL
MODEL 8
REMARK VINA RESULT:      -7.9      2.461      4.384
REMARK  Name = 
REMARK  6 active torsions:
REMARK  status: ('A' for Active; 'I' for Inactive)
REMARK    1  A    between atoms: C_1  and  C_2
REMARK    2  A    between atoms: C_7  and  N_8
REMARK    3  A    between atoms: C_9  and  C_11
REMARK    4  A    between atoms: C_11  and  N_12
REMARK    5  A    between atoms: C_14  and  C_15
REMARK    6  A    between atoms: C_19  and  C_20
REMARK                            x       y       z     vdW  Elec       q    Type
REMARK                         _______ _______ _______ _____ _____    ______ ____
ROOT
ATOM      1  N   UNL     1       5.392   3.852  16.108  0.00  0.00    +0.000 N 
ATOM      2  N   UNL     1       5.056   3.522  14.834  0.00  0.00    +0.000 NA
ATOM      3  C   UNL     1       6.066   3.989  14.105  0.00  0.00    +0.000 A 
ATOM      4  C   UNL     1       7.015   4.653  14.887  0.00  0.00    +0.000 A 
ATOM      5  C   UNL     1       6.574   4.580  16.194  0.00  0.00    +0.000 A 
ENDROOT
BRANCH   5   6
ATOM      6  C   UNL     1       7.215   4.954  17.439  0.00  0.00    +0.000 C 
ATOM      7  O   UNL     1       7.874   4.127  18.069  0.00  0.00    +0.000 OA
ATOM      8  N   UNL     1       7.232   6.277  17.848  0.00  0.00    +0.000 N 
ATOM      9  C   UNL     1       6.351   7.395  17.555  0.00  0.00    +0.000 C 
ATOM     10  C   UNL     1       7.345   8.530  17.388  0.00  0.00    +0.000 C 
ATOM     11  C   UNL     1       8.350   8.254  18.507  0.00  0.00    +0.000 C 
ATOM     12  C   UNL     1       8.315   6.736  18.697  0.00  0.00    +0.000 C 
ENDBRANCH   5   6
BRANCH   3  13
ATOM     13  C   UNL     1       6.288   3.783  12.618  0.00  0.00    +0.000 C 
ATOM     14  C   UNL     1       6.338   2.360  12.104  0.00  0.00    +0.000 C 
ATOM     15  C   UNL     1       5.202   3.247  11.720  0.00  0.00    +0.000 C 
ENDBRANCH   3  13
BRANCH   1  16
ATOM     16  C   UNL     1       4.519   3.415  17.191  0.00  0.00    +0.000 C 
BRANCH  16  18
ATOM     17  N   UNL     1       3.769   5.432  18.431  0.00  0.00    +0.000 N 
ATOM     18  C   UNL     1       3.416   4.387  17.592  0.00  0.00    +0.000 C 
ATOM     19  O   UNL     1       2.289   4.223  17.119  0.00  0.00    +0.000 OA
ATOM     20  H   UNL     1       4.714   5.438  18.784  0.00  0.00    +0.000 HD
BRANCH  17  27
ATOM     21  C   UNL     1       2.407   5.028  20.975  0.00  0.00    +0.000 C 
ATOM     22  C   UNL     1       2.269   6.285  20.159  0.00  0.00    +0.000 A 
ATOM     23  C   UNL     1       1.404   7.291  20.631  0.00  0.00    +0.000 A 
ATOM     24  C   UNL     1       1.204   8.463  19.906  0.00  0.00    +0.000 A 
ATOM     25  C   UNL     1       1.882   8.654  18.710  0.00  0.00    +0.000 A 
ATOM     26  C   UNL     1       2.742   7.666  18.226  0.00  0.00    +0.000 A 
ATOM     27  C   UNL     1       2.934   6.467  18.924  0.00  0.00    +0.000 A 
ENDBRANCH  17  27
ENDBRANCH  16  18
ENDBRANCH   1  16
TORSDOF 5
ENDMDL
MODEL 9
REMARK VINA RESULT:      -7.9      2.039      2.692
REMARK  Name = 
REMARK  6 active torsions:
REMARK  status: ('A' for Active; 'I' for Inactive)
REMARK    1  A    between atoms: C_1  and  C_2
REMARK    2  A    between atoms: C_7  and  N_8
REMARK    3  A    between atoms: C_9  and  C_11
REMARK    4  A    between atoms: C_11  and  N_12
REMARK    5  A    between atoms: C_14  and  C_15
REMARK    6  A    between atoms: C_19  and  C_20
REMARK                            x       y       z     vdW  Elec       q    Type
REMARK                         _______ _______ _______ _____ _____    ______ ____
ROOT
ATOM      1  N   UNL     1       3.083   6.674  18.292  0.00  0.00    +0.000 N 
ATOM      2  N   UNL     1       4.198   7.230  17.751  0.00  0.00    +0.000 NA
ATOM      3  C   UNL     1       4.735   6.243  17.038  0.00  0.00    +0.000 A 
ATOM      4  C   UNL     1       4.007   5.056  17.154  0.00  0.00    +0.000 A 
ATOM      5  C   UNL     1       2.935   5.326  17.984  0.00  0.00    +0.000 A 
ENDROOT
BRANCH   5   6
ATOM      6  C   UNL     1       1.778   4.528  18.336  0.00  0.00    +0.000 C 
ATOM      7  O   UNL     1       1.043   4.081  17.455  0.00  0.00    +0.000 OA
ATOM      8  N   UNL     1       1.577   4.126  19.645  0.00  0.00    +0.000 N 
ATOM      9  C   UNL     1       2.018   4.684  20.912  0.00  0.00    +0.000 C 
ATOM     10  C   UNL     1       2.379   3.431  21.688  0.00  0.00    +0.000 C 
ATOM     11  C   UNL     1       1.254   2.470  21.303  0.00  0.00    +0.000 C 
ATOM     12  C   UNL     1       0.833   2.906  19.898  0.00  0.00    +0.000 C 
ENDBRANCH   5   6
BRANCH   3  13
ATOM     13  C   UNL     1       5.929   6.337  16.107  0.00  0.00    +0.000 C 
ATOM     14  C   UNL     1       7.303   6.111  16.700  0.00  0.00    +0.000 C 
ATOM     15  C   UNL     1       6.742   5.123  15.733  0.00  0.00    +0.000 C 
ENDBRANCH   3  13
BRANCH   1  16
ATOM     16  C   UNL     1       2.204   7.520  19.090  0.00  0.00    +0.000 C 
BRANCH  16  18
ATOM     17  N   UNL     1       1.193   9.779  19.289  0.00  0.00    +0.000 N 
ATOM     18  C   UNL     1       1.814   8.854  18.466  0.00  0.00    +0.000 C 
ATOM     19  O   UNL     1       2.110   9.058  17.286  0.00  0.00    +0.000 OA
ATOM     20  H   UNL     1       0.968   9.481  20.227  0.00  0.00    +0.000 HD
BRANCH  17  27
ATOM     21  C   UNL     1      -1.592  10.161  18.522  0.00  0.00    +0.000 C 
ATOM     22  C   UNL     1      -0.593  11.285  18.577  0.00  0.00    +0.000 A 
ATOM     23  C   UNL     1      -1.021  12.571  18.196  0.00  0.00    +0.000 A 
ATOM     24  C   UNL     1      -0.138  13.648  18.191  0.00  0.00    +0.000 A 
ATOM     25  C   UNL     1       1.179  13.457  18.587  0.00  0.00    +0.000 A 
ATOM     26  C   UNL     1       1.620  12.187  18.967  0.00  0.00    +0.000 A 
ATOM     27  C   UNL     1       0.756  11.085  18.949  0.00  0.00    +0.000 A 
ENDBRANCH  17  27
ENDBRANCH  16  18
ENDBRANCH   1  16
TORSDOF 5
ENDMDL
