MODEL 1
REMARK VINA RESULT:      -8.0      0.000      0.000
REMARK  Name = 
REMARK  5 active torsions:
REMARK  status: ('A' for Active; 'I' for Inactive)
REMARK    1  A    between atoms: C_1  and  C_2
REMARK    2  A    between atoms: C_2  and  C_3
REMARK    3  A    between atoms: C_2  and  C_4
REMARK    4  A    between atoms: C_4  and  C_5
REMARK    5  A    between atoms: C_11  and  C_13
REMARK                            x       y       z     vdW  Elec       q    Type
REMARK                         _______ _______ _______ _____ _____    ______ ____
ROOT
ATOM      1  C   UNL     1       6.724   4.795  16.262  0.00  0.00    +0.000 C 
ATOM      2  O   UNL     1       7.405   3.839  16.627  0.00  0.00    +0.000 OA
ATOM      3  N   UNL     1       5.632   5.216  16.999  0.00  0.00    +0.000 N 
ATOM      4  C   UNL     1       4.794   6.315  16.583  0.00  0.00    +0.000 C 
ATOM      5  C   UNL     1       4.033   6.927  17.742  0.00  0.00    +0.000 C 
ATOM      6  N   UNL     1       3.366   6.009  18.670  0.00  0.00    +0.000 N 
ATOM      7  C   UNL     1       2.379   6.518  19.557  0.00  0.00    +0.000 C 
ATOM      8  O   UNL     1       1.885   5.852  20.464  0.00  0.00    +0.000 OA
ATOM      9  C   UNL     1       4.190   4.832  19.079  0.00  0.00    +0.000 C 
ATOM     10  C   UNL     1       3.499   3.600  19.693  0.00  0.00    +0.000 C 
ATOM     11  S   UNL     1       3.063   2.532  18.339  0.00  0.00    +0.000 S 
ATOM     12  O   UNL     1       3.651   1.226  18.570  0.00  0.00    +0.000 OA
ATOM     13  O   UNL     1       1.664   2.698  18.016  0.00  0.00    +0.000 OA
ATOM     14  C   UNL     1       4.017   3.355  17.101  0.00  0.00    +0.000 C 
ATOM     15  C   UNL     1       5.000   4.226  17.885  0.00  0.00    +0.000 C 
ENDROOT
BRANCH   7  16
ATOM     16  C   UNL     1       1.862   7.917  19.396  0.00  0.00    +0.000 A 
ATOM     17  C   UNL     1       1.389   8.604  20.509  0.00  0.00    +0.000 A 
ATOM     18  C   UNL     1       0.806   9.846  20.304  0.00  0.00    +0.000 A 
ATOM     19  N   UNL     1       0.647  10.412  19.087  0.00  0.00    +0.000 NA
ATOM     20  C   UNL     1       1.181   9.761  18.040  0.00  0.00    +0.000 A 
ATOM     21  C   UNL     1       1.853   8.559  18.155  0.00  0.00    +0.000 A 
ENDBRANCH   7  16
BRANCH   1  22
ATOM     22  C   UNL     1       7.048   5.560  14.976  0.00  0.00    +0.000 C 
BRANCH  22  24
ATOM     23  C   UNL     1       5.982   3.916  13.379  0.00  0.00    +0.000 C 
ATOM     24  C   UNL     1       7.280   4.626  13.782  0.00  0.00    +0.000 C 
ATOM     25  C   UNL     1       7.808   5.433  12.595  0.00  0.00    +0.000 C 
ENDBRANCH  22  24
ENDBRANCH   1  22
TORSDOF 3
ENDMDL
MODEL 2
REMARK VINA RESULT:      -7.9      3.262      4.669
REMARK  Name = 
REMARK  5 active torsions:
REMARK  status: ('A' for Active; 'I' for Inactive)
REMARK    1  A    between atoms: C_1  and  C_2
REMARK    2  A    between atoms: C_2  and  C_3
REMARK    3  A    between atoms: C_2  and  C_4
REMARK    4  A    between atoms: C_4  and  C_5
REMARK    5  A    between atoms: C_11  and  C_13
REMARK                            x       y       z     vdW  Elec       q    Type
REMARK                         _______ _______ _______ _____ _____    ______ ____
ROOT
ATOM      1  C   UNL     1       6.306   4.445  13.786  0.00  0.00    +0.000 C 
ATOM      2  O   UNL     1       6.764   5.413  13.181  0.00  0.00    +0.000 OA
ATOM      3  N   UNL     1       5.665   4.600  15.000  0.00  0.00    +0.000 N 
ATOM      4  C   UNL     1       5.144   3.482  15.750  0.00  0.00    +0.000 C 
ATOM      5  C   UNL     1       4.059   3.899  16.723  0.00  0.00    +0.000 C 
ATOM      6  N   UNL     1       4.314   5.082  17.550  0.00  0.00    +0.000 N 
ATOM      7  C   UNL     1       3.501   5.316  18.692  0.00  0.00    +0.000 C 
ATOM      8  O   UNL     1       3.547   6.354  19.347  0.00  0.00    +0.000 OA
ATOM      9  C   UNL     1       4.903   6.240  16.813  0.00  0.00    +0.000 C 
ATOM     10  C   UNL     1       5.597   7.366  17.601  0.00  0.00    +0.000 C 
ATOM     11  S   UNL     1       7.306   6.898  17.763  0.00  0.00    +0.000 S 
ATOM     12  O   UNL     1       8.132   7.960  17.223  0.00  0.00    +0.000 OA
ATOM     13  O   UNL     1       7.537   6.337  19.076  0.00  0.00    +0.000 OA
ATOM     14  C   UNL     1       7.276   5.573  16.594  0.00  0.00    +0.000 C 
ATOM     15  C   UNL     1       5.998   5.799  15.785  0.00  0.00    +0.000 C 
ENDROOT
BRANCH   7  16
ATOM     16  C   UNL     1       2.550   4.261  19.176  0.00  0.00    +0.000 A 
ATOM     17  C   UNL     1       2.773   3.652  20.408  0.00  0.00    +0.000 A 
ATOM     18  C   UNL     1       1.948   2.598  20.767  0.00  0.00    +0.000 A 
ATOM     19  N   UNL     1       0.961   2.111  19.982  0.00  0.00    +0.000 NA
ATOM     20  C   UNL     1       0.721   2.766  18.833  0.00  0.00    +0.000 A 
ATOM     21  C   UNL     1       1.435   3.877  18.428  0.00  0.00    +0.000 A 
ENDBRANCH   7  16
BRANCH   1  22
ATOM     22  C   UNL     1       6.428   3.025  13.225  0.00  0.00    +0.000 C 
BRANCH  22  24
ATOM     23  C   UNL     1       6.214   1.527  11.201  0.00  0.00    +0.000 C 
ATOM     24  C   UNL     1       5.963   2.930  11.767  0.00  0.00    +0.000 C 
ATOM     25  C   UNL     1       4.470   3.253  11.683  0.00  0.00    +0.000 C 
ENDBRANCH  22  24
ENDBRANCH   1  22
TORSDOF 3
ENDMDL
MODEL 3
REMARK VINA RESULT:      -7.6      2.151      6.867
REMARK  Name = 
REMARK  5 active torsions:
REMARK  status: ('A' for Active; 'I' for Inactive)
REMARK    1  A    between atoms: C_1  and  C_2
REMARK    2  A    between atoms: C_2  and  C_3
REMARK    3  A    between atoms: C_2  and  C_4
REMARK    4  A    between atoms: C_4  and  C_5
REMARK    5  A    between atoms: C_11  and  C_13
REMARK                            x       y       z     vdW  Elec       q    Type
REMARK                         _______ _______ _______ _____ _____    ______ ____
ROOT
ATOM      1  C   UNL     1       0.989   7.302  20.772  0.00  0.00    +0.000 C 
ATOM      2  O   UNL     1      -0.122   6.957  21.170  0.00  0.00    +0.000 OA
ATOM      3  N   UNL     1       1.798   6.426  20.071  0.00  0.00    +0.000 N 
ATOM      4  C   UNL     1       3.119   6.789  19.616  0.00  0.00    +0.000 C 
ATOM      5  C   UNL     1       3.586   5.925  18.462  0.00  0.00    +0.000 C 
ATOM      6  N   UNL     1       3.393   4.476  18.584  0.00  0.00    +0.000 N 
ATOM      7  C   UNL     1       4.100   3.608  17.708  0.00  0.00    +0.000 C 
ATOM      8  O   UNL     1       3.882   2.401  17.641  0.00  0.00    +0.000 OA
ATOM      9  C   UNL     1       2.052   4.070  19.102  0.00  0.00    +0.000 C 
ATOM     10  C   UNL     1       1.856   2.651  19.667  0.00  0.00    +0.000 C 
ATOM     11  S   UNL     1       2.245   2.734  21.401  0.00  0.00    +0.000 S 
ATOM     12  O   UNL     1       1.108   2.245  22.157  0.00  0.00    +0.000 OA
ATOM     13  O   UNL     1       3.586   2.241  21.626  0.00  0.00    +0.000 OA
ATOM     14  C   UNL     1       2.276   4.496  21.530  0.00  0.00    +0.000 C 
ATOM     15  C   UNL     1       1.561   4.988  20.270  0.00  0.00    +0.000 C 
ENDROOT
BRANCH   7  16
ATOM     16  C   UNL     1       5.194   4.141  16.831  0.00  0.00    +0.000 A 
ATOM     17  C   UNL     1       6.433   4.441  17.389  0.00  0.00    +0.000 A 
ATOM     18  C   UNL     1       7.379   5.046  16.575  0.00  0.00    +0.000 A 
ATOM     19  N   UNL     1       7.159   5.385  15.286  0.00  0.00    +0.000 NA
ATOM     20  C   UNL     1       5.981   5.015  14.753  0.00  0.00    +0.000 A 
ATOM     21  C   UNL     1       5.008   4.335  15.460  0.00  0.00    +0.000 A 
ENDBRANCH   7  16
BRANCH   1  22
ATOM     22  C   UNL     1       1.529   8.710  21.034  0.00  0.00    +0.000 C 
BRANCH  22  24
ATOM     23  C   UNL     1       0.121   9.741  22.862  0.00  0.00    +0.000 C 
ATOM     24  C   UNL     1       0.415   9.713  21.358  0.00  0.00    +0.000 C 
ATOM     25  C   UNL     1       0.832  11.110  20.895  0.00  0.00    +0.000 C 
ENDBRANCH  22  24
ENDBRANCH   1  22
TORSDOF 3
ENDMDL
MODEL 4
REMARK VINA RESULT:      -7.4      0.802      1.239
REMARK  Name = 
REMARK  5 active torsions:
REMARK  status: ('A' for Active; 'I' for Inactive)
REMARK    1  A    between atoms: C_1  and  C_2
REMARK    2  A    between atoms: C_2  and  C_3
REMARK    3  A    between atoms: C_2  and  C_4
REMARK    4  A    between atoms: C_4  and  C_5
REMARK    5  A    between atoms: C_11  and  C_13
REMARK                            x       y       z     vdW  Elec       q    Type
REMARK                         _______ _______ _______ _____ _____    ______ ____
ROOT
ATOM      1  C   UNL     1       6.567   4.959  17.111  0.00  0.00    +0.000 C 
ATOM      2  O   UNL     1       7.175   4.015  17.614  0.00  0.00    +0.000 OA
ATOM      3  N   UNL     1       5.428   5.471  17.704  0.00  0.00    +0.000 N 
ATOM      4  C   UNL     1       4.675   6.557  17.124  0.00  0.00    +0.000 C 
ATOM      5  C   UNL     1       3.832   7.284  18.152  0.00  0.00    +0.000 C 
ATOM      6  N   UNL     1       3.046   6.465  19.080  0.00  0.00    +0.000 N 
ATOM      7  C   UNL     1       1.999   7.075  19.824  0.00  0.00    +0.000 C 
ATOM      8  O   UNL     1       1.398   6.500  20.728  0.00  0.00    +0.000 OA
ATOM      9  C   UNL     1       3.783   5.301  19.658  0.00  0.00    +0.000 C 
ATOM     10  C   UNL     1       2.991   4.145  20.296  0.00  0.00    +0.000 C 
ATOM     11  S   UNL     1       2.645   2.983  18.995  0.00  0.00    +0.000 S 
ATOM     12  O   UNL     1       3.158   1.683  19.382  0.00  0.00    +0.000 OA
ATOM     13  O   UNL     1       1.289   3.165  18.525  0.00  0.00    +0.000 OA
ATOM     14  C   UNL     1       3.742   3.674  17.794  0.00  0.00    +0.000 C 
ATOM     15  C   UNL     1       4.678   4.576  18.599  0.00  0.00    +0.000 C 
ENDROOT
BRANCH   7  16
ATOM     16  C   UNL     1       1.554   8.470  19.505  0.00  0.00    +0.000 A 
ATOM     17  C   UNL     1       1.639   8.933  18.195  0.00  0.00    +0.000 A 
ATOM     18  C   UNL     1       1.335  10.265  17.958  0.00  0.00    +0.000 A 
ATOM     19  N   UNL     1       0.990  11.143  18.925  0.00  0.00    +0.000 NA
ATOM     20  C   UNL     1       0.842  10.651  20.168  0.00  0.00    +0.000 A 
ATOM     21  C   UNL     1       1.042   9.322  20.486  0.00  0.00    +0.000 A 
ENDBRANCH   7  16
BRANCH   1  22
ATOM     22  C   UNL     1       7.040   5.606  15.807  0.00  0.00    +0.000 C 
BRANCH  22  24
ATOM     23  C   UNL     1       5.572   4.239  14.270  0.00  0.00    +0.000 C 
ATOM     24  C   UNL     1       7.011   4.629  14.625  0.00  0.00    +0.000 C 
ATOM     25  C   UNL     1       7.678   5.276  13.409  0.00  0.00    +0.000 C 
ENDBRANCH  22  24
ENDBRANCH   1  22
TORSDOF 3
ENDMDL
MODEL 5
REMARK VINA RESULT:      -7.1      1.137      1.233
REMARK  Name = 
REMARK  5 active torsions:
REMARK  status: ('A' for Active; 'I' for Inactive)
REMARK    1  A    between atoms: C_1  and  C_2
REMARK    2  A    between atoms: C_2  and  C_3
REMARK    3  A    between atoms: C_2  and  C_4
REMARK    4  A    between atoms: C_4  and  C_5
REMARK    5  A    between atoms: C_11  and  C_13
REMARK                            x       y       z     vdW  Elec       q    Type
REMARK                         _______ _______ _______ _____ _____    ______ ____
ROOT
ATOM      1  C   UNL     1       5.804   5.061  16.836  0.00  0.00    +0.000 C 
ATOM      2  O   UNL     1       6.445   4.116  17.291  0.00  0.00    +0.000 OA
ATOM      3  N   UNL     1       4.783   5.646  17.562  0.00  0.00    +0.000 N 
ATOM      4  C   UNL     1       3.991   6.736  17.045  0.00  0.00    +0.000 C 
ATOM      5  C   UNL     1       3.334   7.542  18.148  0.00  0.00    +0.000 C 
ATOM      6  N   UNL     1       2.665   6.797  19.219  0.00  0.00    +0.000 N 
ATOM      7  C   UNL     1       1.761   7.481  20.077  0.00  0.00    +0.000 C 
ATOM      8  O   UNL     1       1.279   6.971  21.085  0.00  0.00    +0.000 OA
ATOM      9  C   UNL     1       3.437   5.629  19.740  0.00  0.00    +0.000 C 
ATOM     10  C   UNL     1       2.708   4.536  20.542  0.00  0.00    +0.000 C 
ATOM     11  S   UNL     1       2.134   3.335  19.362  0.00  0.00    +0.000 S 
ATOM     12  O   UNL     1       2.653   2.032  19.734  0.00  0.00    +0.000 OA
ATOM     13  O   UNL     1       0.731   3.552  19.086  0.00  0.00    +0.000 OA
ATOM     14  C   UNL     1       3.066   3.927  17.983  0.00  0.00    +0.000 C 
ATOM     15  C   UNL     1       4.142   4.823  18.599  0.00  0.00    +0.000 C 
ENDROOT
BRANCH   7  16
ATOM     16  C   UNL     1       1.322   8.879  19.758  0.00  0.00    +0.000 A 
ATOM     17  C   UNL     1       1.220   9.815  20.783  0.00  0.00    +0.000 A 
ATOM     18  C   UNL     1       0.694  11.060  20.472  0.00  0.00    +0.000 A 
ATOM     19  N   UNL     1       0.252  11.407  19.243  0.00  0.00    +0.000 NA
ATOM     20  C   UNL     1       0.433  10.510  18.257  0.00  0.00    +0.000 A 
ATOM     21  C   UNL     1       1.023   9.277  18.452  0.00  0.00    +0.000 A 
ENDBRANCH   7  16
BRANCH   1  22
ATOM     22  C   UNL     1       6.102   5.632  15.447  0.00  0.00    +0.000 C 
BRANCH  22  24
ATOM     23  C   UNL     1       5.528   3.882  13.716  0.00  0.00    +0.000 C 
ATOM     24  C   UNL     1       6.659   4.574  14.486  0.00  0.00    +0.000 C 
ATOM     25  C   UNL     1       7.620   5.234  13.496  0.00  0.00    +0.000 C 
ENDBRANCH  22  24
ENDBRANCH   1  22
TORSDOF 3
ENDMDL
MODEL 6
REMARK VINA RESULT:      -6.6      5.916      9.334
REMARK  Name = 
REMARK  5 active torsions:
REMARK  status: ('A' for Active; 'I' for Inactive)
REMARK    1  A    between atoms: C_1  and  C_2
REMARK    2  A    between atoms: C_2  and  C_3
REMARK    3  A    between atoms: C_2  and  C_4
REMARK    4  A    between atoms: C_4  and  C_5
REMARK    5  A    between atoms: C_11  and  C_13
REMARK                            x       y       z     vdW  Elec       q    Type
REMARK                         _______ _______ _______ _____ _____    ______ ____
ROOT
ATOM      1  C   UNL     1       1.189  10.701  18.342  0.00  0.00    +0.000 C 
ATOM      2  O   UNL     1       2.195  11.401  18.249  0.00  0.00    +0.000 OA
ATOM      3  N   UNL     1      -0.009  11.228  18.786  0.00  0.00    +0.000 N 
ATOM      4  C   UNL     1      -1.201  10.428  18.935  0.00  0.00    +0.000 C 
ATOM      5  C   UNL     1      -2.463  11.266  18.907  0.00  0.00    +0.000 C 
ATOM      6  N   UNL     1      -2.480  12.485  19.721  0.00  0.00    +0.000 N 
ATOM      7  C   UNL     1      -3.724  13.116  19.997  0.00  0.00    +0.000 C 
ATOM      8  O   UNL     1      -3.812  14.215  20.538  0.00  0.00    +0.000 OA
ATOM      9  C   UNL     1      -1.238  13.311  19.629  0.00  0.00    +0.000 C 
ATOM     10  C   UNL     1      -0.945  14.363  20.715  0.00  0.00    +0.000 C 
ATOM     11  S   UNL     1      -0.025  13.536  21.992  0.00  0.00    +0.000 S 
ATOM     12  O   UNL     1       1.221  14.249  22.204  0.00  0.00    +0.000 OA
ATOM     13  O   UNL     1      -0.906  13.189  23.085  0.00  0.00    +0.000 OA
ATOM     14  C   UNL     1       0.331  12.064  21.081  0.00  0.00    +0.000 C 
ATOM     15  C   UNL     1       0.060  12.437  19.623  0.00  0.00    +0.000 C 
ENDROOT
BRANCH   7  16
ATOM     16  C   UNL     1      -5.014  12.429  19.660  0.00  0.00    +0.000 A 
ATOM     17  C   UNL     1      -5.828  11.960  20.687  0.00  0.00    +0.000 A 
ATOM     18  C   UNL     1      -6.950  11.223  20.339  0.00  0.00    +0.000 A 
ATOM     19  N   UNL     1      -7.282  10.912  19.066  0.00  0.00    +0.000 NA
ATOM     20  C   UNL     1      -6.520  11.442  18.093  0.00  0.00    +0.000 A 
ATOM     21  C   UNL     1      -5.432  12.256  18.339  0.00  0.00    +0.000 A 
ENDBRANCH   7  16
BRANCH   1  22
ATOM     22  C   UNL     1       1.215   9.215  17.973  0.00  0.00    +0.000 C 
BRANCH  22  24
ATOM     23  C   UNL     1       1.573   8.183  20.253  0.00  0.00    +0.000 C 
ATOM     24  C   UNL     1       2.172   8.409  18.860  0.00  0.00    +0.000 C 
ATOM     25  C   UNL     1       2.462   7.057  18.205  0.00  0.00    +0.000 C 
ENDBRANCH  22  24
ENDBRANCH   1  22
TORSDOF 3
ENDMDL
MODEL 7
REMARK VINA RESULT:      -6.6      2.620      4.920
REMARK  Name = 
REMARK  5 active torsions:
REMARK  status: ('A' for Active; 'I' for Inactive)
REMARK    1  A    between atoms: C_1  and  C_2
REMARK    2  A    between atoms: C_2  and  C_3
REMARK    3  A    between atoms: C_2  and  C_4
REMARK    4  A    between atoms: C_4  and  C_5
REMARK    5  A    between atoms: C_11  and  C_13
REMARK                            x       y       z     vdW  Elec       q    Type
REMARK                         _______ _______ _______ _____ _____    ______ ____
ROOT
ATOM      1  C   UNL     1       3.926   3.028  19.153  0.00  0.00    +0.000 C 
ATOM      2  O   UNL     1       4.446   2.345  18.272  0.00  0.00    +0.000 OA
ATOM      3  N   UNL     1       3.612   4.356  18.933  0.00  0.00    +0.000 N 
ATOM      4  C   UNL     1       3.030   5.193  19.954  0.00  0.00    +0.000 C 
ATOM      5  C   UNL     1       2.299   6.386  19.371  0.00  0.00    +0.000 C 
ATOM      6  N   UNL     1       2.981   7.146  18.319  0.00  0.00    +0.000 N 
ATOM      7  C   UNL     1       2.504   8.442  17.981  0.00  0.00    +0.000 C 
ATOM      8  O   UNL     1       2.919   9.078  17.016  0.00  0.00    +0.000 OA
ATOM      9  C   UNL     1       3.639   6.306  17.273  0.00  0.00    +0.000 C 
ATOM     10  C   UNL     1       4.718   6.929  16.369  0.00  0.00    +0.000 C 
ATOM     11  S   UNL     1       6.274   6.704  17.200  0.00  0.00    +0.000 S 
ATOM     12  O   UNL     1       7.180   6.002  16.310  0.00  0.00    +0.000 OA
ATOM     13  O   UNL     1       6.652   7.928  17.871  0.00  0.00    +0.000 OA
ATOM     14  C   UNL     1       5.702   5.560  18.419  0.00  0.00    +0.000 C 
ATOM     15  C   UNL     1       4.362   5.057  17.879  0.00  0.00    +0.000 C 
ENDROOT
BRANCH   7  16
ATOM     16  C   UNL     1       1.471   9.116  18.834  0.00  0.00    +0.000 A 
ATOM     17  C   UNL     1       0.457   9.852  18.227  0.00  0.00    +0.000 A 
ATOM     18  C   UNL     1      -0.407  10.562  19.047  0.00  0.00    +0.000 A 
ATOM     19  N   UNL     1      -0.304  10.604  20.394  0.00  0.00    +0.000 NA
ATOM     20  C   UNL     1       0.637   9.825  20.956  0.00  0.00    +0.000 A 
ATOM     21  C   UNL     1       1.490   9.019  20.227  0.00  0.00    +0.000 A 
ENDBRANCH   7  16
BRANCH   1  22
ATOM     22  C   UNL     1       3.608   2.443  20.531  0.00  0.00    +0.000 C 
BRANCH  22  24
ATOM     23  C   UNL     1       1.372   2.736  21.673  0.00  0.00    +0.000 C 
ATOM     24  C   UNL     1       2.164   1.936  20.633  0.00  0.00    +0.000 C 
ATOM     25  C   UNL     1       1.481   2.057  19.269  0.00  0.00    +0.000 C 
ENDBRANCH  22  24
ENDBRANCH   1  22
TORSDOF 3
ENDMDL
MODEL 8
REMARK VINA RESULT:      -6.4      8.006      9.848
REMARK  Name = 
REMARK  5 active torsions:
REMARK  status: ('A' for Active; 'I' for Inactive)
REMARK    1  A    between atoms: C_1  and  C_2
REMARK    2  A    between atoms: C_2  and  C_3
REMARK    3  A    between atoms: C_2  and  C_4
REMARK    4  A    between atoms: C_4  and  C_5
REMARK    5  A    between atoms: C_11  and  C_13
REMARK                            x       y       z     vdW  Elec       q    Type
REMARK                         _______ _______ _______ _____ _____    ______ ____
ROOT
ATOM      1  C   UNL     1      -2.509  10.697  18.012  0.00  0.00    +0.000 C 
ATOM      2  O   UNL     1      -2.648   9.506  18.286  0.00  0.00    +0.000 OA
ATOM      3  N   UNL     1      -1.452  11.427  18.521  0.00  0.00    +0.000 N 
ATOM      4  C   UNL     1      -1.277  12.833  18.244  0.00  0.00    +0.000 C 
ATOM      5  C   UNL     1       0.158  13.282  18.435  0.00  0.00    +0.000 C 
ATOM      6  N   UNL     1       0.844  12.842  19.653  0.00  0.00    +0.000 N 
ATOM      7  C   UNL     1       2.046  13.494  20.044  0.00  0.00    +0.000 C 
ATOM      8  O   UNL     1       2.760  13.092  20.959  0.00  0.00    +0.000 OA
ATOM      9  C   UNL     1       0.640  11.403  19.997  0.00  0.00    +0.000 C 
ATOM     10  C   UNL     1       0.939  10.915  21.426  0.00  0.00    +0.000 C 
ATOM     11  S   UNL     1      -0.564  11.111  22.357  0.00  0.00    +0.000 S 
ATOM     12  O   UNL     1      -0.924   9.830  22.935  0.00  0.00    +0.000 OA
ATOM     13  O   UNL     1      -0.495  12.319  23.149  0.00  0.00    +0.000 OA
ATOM     14  C   UNL     1      -1.630  11.414  20.980  0.00  0.00    +0.000 C 
ATOM     15  C   UNL     1      -0.835  10.937  19.764  0.00  0.00    +0.000 C 
ENDROOT
BRANCH   7  16
ATOM     16  C   UNL     1       2.484  14.753  19.357  0.00  0.00    +0.000 A 
ATOM     17  C   UNL     1       2.018  15.982  19.817  0.00  0.00    +0.000 A 
ATOM     18  C   UNL     1       2.344  17.113  19.084  0.00  0.00    +0.000 A 
ATOM     19  N   UNL     1       3.061  17.089  17.939  0.00  0.00    +0.000 NA
ATOM     20  C   UNL     1       3.561  15.900  17.560  0.00  0.00    +0.000 A 
ATOM     21  C   UNL     1       3.360  14.732  18.269  0.00  0.00    +0.000 A 
ENDBRANCH   7  16
BRANCH   1  22
ATOM     22  C   UNL     1      -3.500  11.425  17.099  0.00  0.00    +0.000 C 
BRANCH  22  24
ATOM     23  C   UNL     1      -4.818  12.077  19.155  0.00  0.00    +0.000 C 
ATOM     24  C   UNL     1      -4.897  11.536  17.722  0.00  0.00    +0.000 C 
ATOM     25  C   UNL     1      -5.765  12.467  16.873  0.00  0.00    +0.000 C 
ENDBRANCH  22  24
ENDBRANCH   1  22
TORSDOF 3
ENDMDL
MODEL 9
REMARK VINA RESULT:      -6.3      7.805     10.506
REMARK  Name = 
REMARK  5 active torsions:
REMARK  status: ('A' for Active; 'I' for Inactive)
REMARK    1  A    between atoms: C_1  and  C_2
REMARK    2  A    between atoms: C_2  and  C_3
REMARK    3  A    between atoms: C_2  and  C_4
REMARK    4  A    between atoms: C_4  and  C_5
REMARK    5  A    between atoms: C_11  and  C_13
REMARK                            x       y       z     vdW  Elec       q    Type
REMARK                         _______ _______ _______ _____ _____    ______ ____
ROOT
ATOM      1  C   UNL     1      -0.733  10.472  18.973  0.00  0.00    +0.000 C 
ATOM      2  O   UNL     1      -0.565   9.678  19.897  0.00  0.00    +0.000 OA
ATOM      3  N   UNL     1      -0.626  11.835  19.176  0.00  0.00    +0.000 N 
ATOM      4  C   UNL     1      -0.847  12.794  18.121  0.00  0.00    +0.000 C 
ATOM      5  C   UNL     1      -0.177  14.125  18.405  0.00  0.00    +0.000 C 
ATOM      6  N   UNL     1      -0.347  14.690  19.747  0.00  0.00    +0.000 N 
ATOM      7  C   UNL     1      -0.037  16.061  19.964  0.00  0.00    +0.000 C 
ATOM      8  O   UNL     1      -0.005  16.572  21.080  0.00  0.00    +0.000 OA
ATOM      9  C   UNL     1      -0.176  13.710  20.861  0.00  0.00    +0.000 C 
ATOM     10  C   UNL     1      -0.723  14.049  22.260  0.00  0.00    +0.000 C 
ATOM     11  S   UNL     1      -2.401  13.461  22.308  0.00  0.00    +0.000 S 
ATOM     12  O   UNL     1      -2.544  12.555  23.432  0.00  0.00    +0.000 OA
ATOM     13  O   UNL     1      -3.312  14.562  22.088  0.00  0.00    +0.000 OA
ATOM     14  C   UNL     1      -2.332  12.496  20.829  0.00  0.00    +0.000 C 
ATOM     15  C   UNL     1      -0.839  12.328  20.546  0.00  0.00    +0.000 C 
ENDROOT
BRANCH   7  16
ATOM     16  C   UNL     1       0.237  16.970  18.803  0.00  0.00    +0.000 A 
ATOM     17  C   UNL     1      -0.821  17.639  18.193  0.00  0.00    +0.000 A 
ATOM     18  C   UNL     1      -0.548  18.373  17.048  0.00  0.00    +0.000 A 
ATOM     19  N   UNL     1       0.674  18.453  16.477  0.00  0.00    +0.000 NA
ATOM     20  C   UNL     1       1.689  17.860  17.130  0.00  0.00    +0.000 A 
ATOM     21  C   UNL     1       1.531  17.176  18.320  0.00  0.00    +0.000 A 
ENDBRANCH   7  16
BRANCH   1  22
ATOM     22  C   UNL     1      -1.071   9.990  17.560  0.00  0.00    +0.000 C 
BRANCH  22  24
ATOM     23  C   UNL     1      -2.672  10.212  15.616  0.00  0.00    +0.000 C 
ATOM     24  C   UNL     1      -2.487  10.392  17.128  0.00  0.00    +0.000 C 
ATOM     25  C   UNL     1      -3.513   9.534  17.872  0.00  0.00    +0.000 C 
ENDBRANCH  22  24
ENDBRANCH   1  22
TORSDOF 3
ENDMDL
