MODEL 1
REMARK VINA RESULT:      -7.9      0.000      0.000
REMARK  Name = 
REMARK  9 active torsions:
REMARK  status: ('A' for Active; 'I' for Inactive)
REMARK    1  A    between atoms: C_4  and  S_5
REMARK    2  A    between atoms: S_5  and  C_6
REMARK    3  A    between atoms: C_6  and  C_7
REMARK    4  A    between atoms: C_10  and  N_11
REMARK    5  A    between atoms: N_19  and  C1*_20
REMARK    6  A    between atoms: C4*_22  and  C5*_23
REMARK    7  A    between atoms: C5*_23  and  O5*_24
REMARK    8  A    between atoms: C3*_25  and  O3*_26
REMARK    9  A    between atoms: C2*_27  and  O2*_28
REMARK                            x       y       z     vdW  Elec       q    Type
REMARK                         _______ _______ _______ _____ _____    ______ ____
ROOT
ATOM      1  N   UNL     1       8.703   5.020  20.527  0.00  0.00    +0.000 N 
ATOM      2  C   UNL     1       7.932   5.626  19.557  0.00  0.00    +0.000 A 
ATOM      3  N   UNL     1       8.352   6.816  19.092  0.00  0.00    +0.000 NA
ATOM      4  C   UNL     1       7.590   7.468  18.173  0.00  0.00    +0.000 A 
ATOM      5  C   UNL     1       6.410   6.875  17.722  0.00  0.00    +0.000 A 
ATOM      6  N   UNL     1       5.438   7.251  16.819  0.00  0.00    +0.000 NA
ATOM      7  C   UNL     1       4.566   6.266  16.828  0.00  0.00    +0.000 A 
ATOM      8  N   UNL     1       4.928   5.270  17.696  0.00  0.00    +0.000 N 
ATOM      9  C   UNL     1       6.111   5.638  18.272  0.00  0.00    +0.000 A 
ATOM     10  N   UNL     1       6.833   4.958  19.174  0.00  0.00    +0.000 NA
ATOM     11  H   UNL     1       9.658   5.359  20.499  0.00  0.00    +0.000 HD
ATOM     12  H   UNL     1       8.555   4.025  20.559  0.00  0.00    +0.000 HD
ENDROOT
BRANCH   8  13
ATOM     13  C1* UNL     1       4.177   4.054  17.915  0.00  0.00    +0.000 C 
ATOM     14  O4* UNL     1       2.780   4.270  17.607  0.00  0.00    +0.000 OA
ATOM     15  C4* UNL     1       2.003   3.762  18.724  0.00  0.00    +0.000 C 
ATOM     16  C3* UNL     1       2.922   2.787  19.455  0.00  0.00    +0.000 C 
ATOM     17  C2* UNL     1       4.268   3.486  19.333  0.00  0.00    +0.000 C 
BRANCH  16  18
ATOM     18  O3* UNL     1       3.025   1.501  18.822  0.00  0.00    +0.000 OA
ATOM     19  H3* UNL     1       2.875   1.594  17.863  0.00  0.00    +0.000 HD
ENDBRANCH  16  18
BRANCH  17  20
ATOM     20  O2* UNL     1       5.357   2.575  19.475  0.00  0.00    +0.000 OA
ATOM     21  H2* UNL     1       6.042   2.860  18.833  0.00  0.00    +0.000 HD
ENDBRANCH  17  20
BRANCH  15  22
ATOM     22  C5* UNL     1       0.713   3.147  18.187  0.00  0.00    +0.000 C 
BRANCH  22  23
ATOM     23  O5* UNL     1       0.345   2.019  18.977  0.00  0.00    +0.000 OA
ATOM     24  H5* UNL     1      -0.463   1.647  18.575  0.00  0.00    +0.000 HD
ENDBRANCH  22  23
ENDBRANCH  15  22
ENDBRANCH   8  13
BRANCH   4  25
ATOM     25  S   UNL     1       8.150   9.013  17.513  0.00  0.00    +0.000 S 
BRANCH  25  26
ATOM     26  C   UNL     1       9.080   9.672  18.941  0.00  0.00    +0.000 C 
BRANCH  26  27
ATOM     27  C   UNL     1       9.587  11.077  18.675  0.00  0.00    +0.000 A 
ATOM     28  C   UNL     1       8.826  11.984  17.918  0.00  0.00    +0.000 A 
ATOM     29  C   UNL     1       9.304  13.273  17.656  0.00  0.00    +0.000 A 
ATOM     30  C   UNL     1      10.556  13.660  18.150  0.00  0.00    +0.000 A 
ATOM     31  C   UNL     1      11.325  12.771  18.906  0.00  0.00    +0.000 A 
ATOM     32  C   UNL     1      10.841  11.484  19.163  0.00  0.00    +0.000 A 
BRANCH  30  33
ATOM     33  N   UNL     1      11.069  15.009  17.865  0.00  0.00    +0.000 N 
ATOM     34  O   UNL     1      11.471  15.245  16.716  0.00  0.00    +0.000 OA
ATOM     35  O   UNL     1      11.069  15.833  18.790  0.00  0.00    +0.000 OA
ENDBRANCH  30  33
ENDBRANCH  26  27
ENDBRANCH  25  26
ENDBRANCH   4  25
TORSDOF 9
ENDMDL
MODEL 2
REMARK VINA RESULT:      -7.7      6.615      9.610
REMARK  Name = 
REMARK  9 active torsions:
REMARK  status: ('A' for Active; 'I' for Inactive)
REMARK    1  A    between atoms: C_4  and  S_5
REMARK    2  A    between atoms: S_5  and  C_6
REMARK    3  A    between atoms: C_6  and  C_7
REMARK    4  A    between atoms: C_10  and  N_11
REMARK    5  A    between atoms: N_19  and  C1*_20
REMARK    6  A    between atoms: C4*_22  and  C5*_23
REMARK    7  A    between atoms: C5*_23  and  O5*_24
REMARK    8  A    between atoms: C3*_25  and  O3*_26
REMARK    9  A    between atoms: C2*_27  and  O2*_28
REMARK                            x       y       z     vdW  Elec       q    Type
REMARK                         _______ _______ _______ _____ _____    ______ ____
ROOT
ATOM      1  N   UNL     1       0.163   8.956  23.144  0.00  0.00    +0.000 N 
ATOM      2  C   UNL     1       0.421   9.216  21.815  0.00  0.00    +0.000 A 
ATOM      3  N   UNL     1      -0.169  10.298  21.274  0.00  0.00    +0.000 NA
ATOM      4  C   UNL     1       0.020  10.557  19.952  0.00  0.00    +0.000 A 
ATOM      5  C   UNL     1       0.837   9.710  19.202  0.00  0.00    +0.000 A 
ATOM      6  N   UNL     1       1.231   9.689  17.881  0.00  0.00    +0.000 NA
ATOM      7  C   UNL     1       2.007   8.632  17.774  0.00  0.00    +0.000 A 
ATOM      8  N   UNL     1       2.131   7.966  18.965  0.00  0.00    +0.000 N 
ATOM      9  C   UNL     1       1.396   8.646  19.894  0.00  0.00    +0.000 A 
ATOM     10  N   UNL     1       1.242   8.356  21.194  0.00  0.00    +0.000 NA
ATOM     11  H   UNL     1      -0.129   9.796  23.631  0.00  0.00    +0.000 HD
ATOM     12  H   UNL     1       0.883   8.392  23.565  0.00  0.00    +0.000 HD
ENDROOT
BRANCH   8  13
ATOM     13  C1* UNL     1       2.928   6.776  19.164  0.00  0.00    +0.000 C 
ATOM     14  O4* UNL     1       3.824   6.583  18.044  0.00  0.00    +0.000 OA
ATOM     15  C4* UNL     1       3.687   5.205  17.608  0.00  0.00    +0.000 C 
ATOM     16  C3* UNL     1       3.090   4.454  18.796  0.00  0.00    +0.000 C 
ATOM     17  C2* UNL     1       2.125   5.487  19.356  0.00  0.00    +0.000 C 
BRANCH  16  18
ATOM     18  O3* UNL     1       4.047   4.133  19.819  0.00  0.00    +0.000 OA
ATOM     19  H3* UNL     1       3.582   3.858  20.630  0.00  0.00    +0.000 HD
ENDBRANCH  16  18
BRANCH  17  20
ATOM     20  O2* UNL     1       1.823   5.246  20.729  0.00  0.00    +0.000 OA
ATOM     21  H2* UNL     1       1.082   4.603  20.741  0.00  0.00    +0.000 HD
ENDBRANCH  17  20
BRANCH  15  22
ATOM     22  C5* UNL     1       5.051   4.697  17.147  0.00  0.00    +0.000 C 
BRANCH  22  23
ATOM     23  O5* UNL     1       5.204   3.324  17.499  0.00  0.00    +0.000 OA
ATOM     24  H5* UNL     1       6.118   3.218  17.825  0.00  0.00    +0.000 HD
ENDBRANCH  22  23
ENDBRANCH  15  22
ENDBRANCH   8  13
BRANCH   4  25
ATOM     25  S   UNL     1      -0.708  12.002  19.233  0.00  0.00    +0.000 S 
BRANCH  25  26
ATOM     26  C   UNL     1      -2.440  11.448  19.046  0.00  0.00    +0.000 C 
BRANCH  26  27
ATOM     27  C   UNL     1      -2.740  11.031  17.619  0.00  0.00    +0.000 A 
ATOM     28  C   UNL     1      -3.824  11.588  16.921  0.00  0.00    +0.000 A 
ATOM     29  C   UNL     1      -4.113  11.188  15.610  0.00  0.00    +0.000 A 
ATOM     30  C   UNL     1      -3.314  10.218  14.992  0.00  0.00    +0.000 A 
ATOM     31  C   UNL     1      -2.230   9.654  15.672  0.00  0.00    +0.000 A 
ATOM     32  C   UNL     1      -1.949  10.060  16.981  0.00  0.00    +0.000 A 
BRANCH  30  33
ATOM     33  N   UNL     1      -3.620   9.783  13.621  0.00  0.00    +0.000 N 
ATOM     34  O   UNL     1      -4.813   9.641  13.312  0.00  0.00    +0.000 OA
ATOM     35  O   UNL     1      -2.669   9.584  12.853  0.00  0.00    +0.000 OA
ENDBRANCH  30  33
ENDBRANCH  26  27
ENDBRANCH  25  26
ENDBRANCH   4  25
TORSDOF 9
ENDMDL
MODEL 3
REMARK VINA RESULT:      -7.6      7.520     10.405
REMARK  Name = 
REMARK  9 active torsions:
REMARK  status: ('A' for Active; 'I' for Inactive)
REMARK    1  A    between atoms: C_4  and  S_5
REMARK    2  A    between atoms: S_5  and  C_6
REMARK    3  A    between atoms: C_6  and  C_7
REMARK    4  A    between atoms: C_10  and  N_11
REMARK    5  A    between atoms: N_19  and  C1*_20
REMARK    6  A    between atoms: C4*_22  and  C5*_23
REMARK    7  A    between atoms: C5*_23  and  O5*_24
REMARK    8  A    between atoms: C3*_25  and  O3*_26
REMARK    9  A    between atoms: C2*_27  and  O2*_28
REMARK                            x       y       z     vdW  Elec       q    Type
REMARK                         _______ _______ _______ _____ _____    ______ ____
ROOT
ATOM      1  N   UNL     1      -0.420   8.850  22.832  0.00  0.00    +0.000 N 
ATOM      2  C   UNL     1       0.053   9.160  21.574  0.00  0.00    +0.000 A 
ATOM      3  N   UNL     1      -0.401  10.294  21.009  0.00  0.00    +0.000 NA
ATOM      4  C   UNL     1       0.002  10.605  19.748  0.00  0.00    +0.000 A 
ATOM      5  C   UNL     1       0.889   9.756  19.086  0.00  0.00    +0.000 A 
ATOM      6  N   UNL     1       1.482   9.778  17.842  0.00  0.00    +0.000 NA
ATOM      7  C   UNL     1       2.221   8.689  17.797  0.00  0.00    +0.000 A 
ATOM      8  N   UNL     1       2.131   7.963  18.955  0.00  0.00    +0.000 N 
ATOM      9  C   UNL     1       1.289   8.634  19.796  0.00  0.00    +0.000 A 
ATOM     10  N   UNL     1       0.923   8.290  21.039  0.00  0.00    +0.000 NA
ATOM     11  H   UNL     1      -0.748   9.679  23.313  0.00  0.00    +0.000 HD
ATOM     12  H   UNL     1       0.203   8.232  23.326  0.00  0.00    +0.000 HD
ENDROOT
BRANCH   8  13
ATOM     13  C1* UNL     1       2.836   6.727  19.209  0.00  0.00    +0.000 C 
ATOM     14  O4* UNL     1       3.785   6.468  18.147  0.00  0.00    +0.000 OA
ATOM     15  C4* UNL     1       3.588   5.097  17.710  0.00  0.00    +0.000 C 
ATOM     16  C3* UNL     1       2.873   4.396  18.862  0.00  0.00    +0.000 C 
ATOM     17  C2* UNL     1       1.943   5.493  19.357  0.00  0.00    +0.000 C 
BRANCH  16  18
ATOM     18  O3* UNL     1       3.744   4.024  19.944  0.00  0.00    +0.000 OA
ATOM     19  H3* UNL     1       3.226   3.932  20.765  0.00  0.00    +0.000 HD
ENDBRANCH  16  18
BRANCH  17  20
ATOM     20  O2* UNL     1       1.542   5.283  20.710  0.00  0.00    +0.000 OA
ATOM     21  H2* UNL     1       0.938   6.021  20.938  0.00  0.00    +0.000 HD
ENDBRANCH  17  20
BRANCH  15  22
ATOM     22  C5* UNL     1       4.943   4.500  17.337  0.00  0.00    +0.000 C 
BRANCH  22  23
ATOM     23  O5* UNL     1       4.914   3.084  17.504  0.00  0.00    +0.000 OA
ATOM     24  H5* UNL     1       5.581   2.869  18.184  0.00  0.00    +0.000 HD
ENDBRANCH  22  23
ENDBRANCH  15  22
ENDBRANCH   8  13
BRANCH   4  25
ATOM     25  S   UNL     1      -0.545  12.117  19.005  0.00  0.00    +0.000 S 
BRANCH  25  26
ATOM     26  C   UNL     1      -1.761  11.479  17.799  0.00  0.00    +0.000 C 
BRANCH  26  27
ATOM     27  C   UNL     1      -3.178  11.571  18.334  0.00  0.00    +0.000 A 
ATOM     28  C   UNL     1      -4.237  10.926  17.674  0.00  0.00    +0.000 A 
ATOM     29  C   UNL     1      -5.548  11.028  18.157  0.00  0.00    +0.000 A 
ATOM     30  C   UNL     1      -5.803  11.784  19.308  0.00  0.00    +0.000 A 
ATOM     31  C   UNL     1      -4.759  12.429  19.978  0.00  0.00    +0.000 A 
ATOM     32  C   UNL     1      -3.454  12.323  19.489  0.00  0.00    +0.000 A 
BRANCH  30  33
ATOM     33  N   UNL     1      -7.180  11.906  19.812  0.00  0.00    +0.000 N 
ATOM     34  O   UNL     1      -7.713  10.894  20.292  0.00  0.00    +0.000 OA
ATOM     35  O   UNL     1      -7.727  13.015  19.731  0.00  0.00    +0.000 OA
ENDBRANCH  30  33
ENDBRANCH  26  27
ENDBRANCH  25  26
ENDBRANCH   4  25
TORSDOF 9
ENDMDL
MODEL 4
REMARK VINA RESULT:      -7.5      7.534     10.206
REMARK  Name = 
REMARK  9 active torsions:
REMARK  status: ('A' for Active; 'I' for Inactive)
REMARK    1  A    between atoms: C_4  and  S_5
REMARK    2  A    between atoms: S_5  and  C_6
REMARK    3  A    between atoms: C_6  and  C_7
REMARK    4  A    between atoms: C_10  and  N_11
REMARK    5  A    between atoms: N_19  and  C1*_20
REMARK    6  A    between atoms: C4*_22  and  C5*_23
REMARK    7  A    between atoms: C5*_23  and  O5*_24
REMARK    8  A    between atoms: C3*_25  and  O3*_26
REMARK    9  A    between atoms: C2*_27  and  O2*_28
REMARK                            x       y       z     vdW  Elec       q    Type
REMARK                         _______ _______ _______ _____ _____    ______ ____
ROOT
ATOM      1  N   UNL     1      -0.519   8.889  22.832  0.00  0.00    +0.000 N 
ATOM      2  C   UNL     1       0.048   9.142  21.601  0.00  0.00    +0.000 A 
ATOM      3  N   UNL     1      -0.289  10.295  20.994  0.00  0.00    +0.000 NA
ATOM      4  C   UNL     1       0.209  10.555  19.756  0.00  0.00    +0.000 A 
ATOM      5  C   UNL     1       1.071   9.633  19.160  0.00  0.00    +0.000 A 
ATOM      6  N   UNL     1       1.738   9.591  17.954  0.00  0.00    +0.000 NA
ATOM      7  C   UNL     1       2.398   8.452  17.969  0.00  0.00    +0.000 A 
ATOM      8  N   UNL     1       2.187   7.755  19.129  0.00  0.00    +0.000 N 
ATOM      9  C   UNL     1       1.348   8.499  19.909  0.00  0.00    +0.000 A 
ATOM     10  N   UNL     1       0.884   8.204  21.132  0.00  0.00    +0.000 NA
ATOM     11  H   UNL     1      -0.816   9.747  23.281  0.00  0.00    +0.000 HD
ATOM     12  H   UNL     1       0.027   8.237  23.372  0.00  0.00    +0.000 HD
ENDROOT
BRANCH   8  13
ATOM     13  C1* UNL     1       2.786   6.477  19.442  0.00  0.00    +0.000 C 
ATOM     14  O4* UNL     1       3.912   6.228  18.568  0.00  0.00    +0.000 OA
ATOM     15  C4* UNL     1       3.755   4.890  18.023  0.00  0.00    +0.000 C 
ATOM     16  C3* UNL     1       2.807   4.167  18.976  0.00  0.00    +0.000 C 
ATOM     17  C2* UNL     1       1.838   5.279  19.346  0.00  0.00    +0.000 C 
BRANCH  16  18
ATOM     18  O3* UNL     1       3.439   3.703  20.181  0.00  0.00    +0.000 OA
ATOM     19  H3* UNL     1       4.391   3.910  20.154  0.00  0.00    +0.000 HD
ENDBRANCH  16  18
BRANCH  17  20
ATOM     20  O2* UNL     1       1.177   5.021  20.584  0.00  0.00    +0.000 OA
ATOM     21  H2* UNL     1       1.868   5.049  21.278  0.00  0.00    +0.000 HD
ENDBRANCH  17  20
BRANCH  15  22
ATOM     22  C5* UNL     1       5.135   4.251  17.882  0.00  0.00    +0.000 C 
BRANCH  22  23
ATOM     23  O5* UNL     1       5.057   3.108  17.035  0.00  0.00    +0.000 OA
ATOM     24  H5* UNL     1       5.908   3.055  16.557  0.00  0.00    +0.000 HD
ENDBRANCH  22  23
ENDBRANCH  15  22
ENDBRANCH   8  13
BRANCH   4  25
ATOM     25  S   UNL     1      -0.183  12.088  18.961  0.00  0.00    +0.000 S 
BRANCH  25  26
ATOM     26  C   UNL     1      -1.613  11.582  17.941  0.00  0.00    +0.000 C 
BRANCH  26  27
ATOM     27  C   UNL     1      -2.925  11.811  18.669  0.00  0.00    +0.000 A 
ATOM     28  C   UNL     1      -2.959  12.526  19.878  0.00  0.00    +0.000 A 
ATOM     29  C   UNL     1      -4.167  12.720  20.559  0.00  0.00    +0.000 A 
ATOM     30  C   UNL     1      -5.351  12.192  20.031  0.00  0.00    +0.000 A 
ATOM     31  C   UNL     1      -5.335  11.480  18.827  0.00  0.00    +0.000 A 
ATOM     32  C   UNL     1      -4.124  11.290  18.153  0.00  0.00    +0.000 A 
BRANCH  30  33
ATOM     33  N   UNL     1      -6.621  12.380  20.749  0.00  0.00    +0.000 N 
ATOM     34  O   UNL     1      -6.982  11.487  21.530  0.00  0.00    +0.000 OA
ATOM     35  O   UNL     1      -7.256  13.422  20.534  0.00  0.00    +0.000 OA
ENDBRANCH  30  33
ENDBRANCH  26  27
ENDBRANCH  25  26
ENDBRANCH   4  25
TORSDOF 9
ENDMDL
MODEL 5
REMARK VINA RESULT:      -7.4      5.812      8.073
REMARK  Name = 
REMARK  9 active torsions:
REMARK  status: ('A' for Active; 'I' for Inactive)
REMARK    1  A    between atoms: C_4  and  S_5
REMARK    2  A    between atoms: S_5  and  C_6
REMARK    3  A    between atoms: C_6  and  C_7
REMARK    4  A    between atoms: C_10  and  N_11
REMARK    5  A    between atoms: N_19  and  C1*_20
REMARK    6  A    between atoms: C4*_22  and  C5*_23
REMARK    7  A    between atoms: C5*_23  and  O5*_24
REMARK    8  A    between atoms: C3*_25  and  O3*_26
REMARK    9  A    between atoms: C2*_27  and  O2*_28
REMARK                            x       y       z     vdW  Elec       q    Type
REMARK                         _______ _______ _______ _____ _____    ______ ____
ROOT
ATOM      1  N   UNL     1       4.764   2.606  19.689  0.00  0.00    +0.000 N 
ATOM      2  C   UNL     1       4.310   3.855  19.321  0.00  0.00    +0.000 A 
ATOM      3  N   UNL     1       3.402   4.440  20.123  0.00  0.00    +0.000 NA
ATOM      4  C   UNL     1       2.892   5.649  19.765  0.00  0.00    +0.000 A 
ATOM      5  C   UNL     1       3.340   6.258  18.593  0.00  0.00    +0.000 A 
ATOM      6  N   UNL     1       3.043   7.447  17.962  0.00  0.00    +0.000 NA
ATOM      7  C   UNL     1       3.795   7.457  16.881  0.00  0.00    +0.000 A 
ATOM      8  N   UNL     1       4.563   6.327  16.784  0.00  0.00    +0.000 N 
ATOM      9  C   UNL     1       4.293   5.551  17.875  0.00  0.00    +0.000 A 
ATOM     10  N   UNL     1       4.826   4.362  18.191  0.00  0.00    +0.000 NA
ATOM     11  H   UNL     1       4.643   2.451  20.683  0.00  0.00    +0.000 HD
ATOM     12  H   UNL     1       5.662   2.397  19.284  0.00  0.00    +0.000 HD
ENDROOT
BRANCH   8  13
ATOM     13  C1* UNL     1       5.498   6.056  15.714  0.00  0.00    +0.000 C 
ATOM     14  O4* UNL     1       4.909   5.146  14.757  0.00  0.00    +0.000 OA
ATOM     15  C4* UNL     1       5.871   4.084  14.515  0.00  0.00    +0.000 C 
ATOM     16  C3* UNL     1       7.223   4.649  14.942  0.00  0.00    +0.000 C 
ATOM     17  C2* UNL     1       6.839   5.471  16.163  0.00  0.00    +0.000 C 
BRANCH  16  18
ATOM     18  O3* UNL     1       7.814   5.533  13.974  0.00  0.00    +0.000 OA
ATOM     19  H3* UNL     1       8.146   5.016  13.217  0.00  0.00    +0.000 HD
ENDBRANCH  16  18
BRANCH  17  20
ATOM     20  O2* UNL     1       7.799   6.489  16.444  0.00  0.00    +0.000 OA
ATOM     21  H2* UNL     1       8.594   6.276  15.911  0.00  0.00    +0.000 HD
ENDBRANCH  17  20
BRANCH  15  22
ATOM     22  C5* UNL     1       5.784   3.666  13.049  0.00  0.00    +0.000 C 
BRANCH  22  23
ATOM     23  O5* UNL     1       7.043   3.161  12.611  0.00  0.00    +0.000 OA
ATOM     24  H5* UNL     1       7.027   3.175  11.635  0.00  0.00    +0.000 HD
ENDBRANCH  22  23
ENDBRANCH  15  22
ENDBRANCH   8  13
BRANCH   4  25
ATOM     25  S   UNL     1       1.732   6.457  20.831  0.00  0.00    +0.000 S 
BRANCH  25  26
ATOM     26  C   UNL     1       1.640   8.103  20.044  0.00  0.00    +0.000 C 
BRANCH  26  27
ATOM     27  C   UNL     1       0.770   9.055  20.842  0.00  0.00    +0.000 A 
ATOM     28  C   UNL     1      -0.017  10.023  20.195  0.00  0.00    +0.000 A 
ATOM     29  C   UNL     1      -0.804  10.914  20.934  0.00  0.00    +0.000 A 
ATOM     30  C   UNL     1      -0.803  10.842  22.332  0.00  0.00    +0.000 A 
ATOM     31  C   UNL     1      -0.028   9.884  22.992  0.00  0.00    +0.000 A 
ATOM     32  C   UNL     1       0.757   8.997  22.247  0.00  0.00    +0.000 A 
BRANCH  30  33
ATOM     33  N   UNL     1      -1.618  11.785  23.114  0.00  0.00    +0.000 N 
ATOM     34  O   UNL     1      -2.807  11.496  23.313  0.00  0.00    +0.000 OA
ATOM     35  O   UNL     1      -1.068  12.814  23.531  0.00  0.00    +0.000 OA
ENDBRANCH  30  33
ENDBRANCH  26  27
ENDBRANCH  25  26
ENDBRANCH   4  25
TORSDOF 9
ENDMDL
MODEL 6
REMARK VINA RESULT:      -7.4      7.713     10.033
REMARK  Name = 
REMARK  9 active torsions:
REMARK  status: ('A' for Active; 'I' for Inactive)
REMARK    1  A    between atoms: C_4  and  S_5
REMARK    2  A    between atoms: S_5  and  C_6
REMARK    3  A    between atoms: C_6  and  C_7
REMARK    4  A    between atoms: C_10  and  N_11
REMARK    5  A    between atoms: N_19  and  C1*_20
REMARK    6  A    between atoms: C4*_22  and  C5*_23
REMARK    7  A    between atoms: C5*_23  and  O5*_24
REMARK    8  A    between atoms: C3*_25  and  O3*_26
REMARK    9  A    between atoms: C2*_27  and  O2*_28
REMARK                            x       y       z     vdW  Elec       q    Type
REMARK                         _______ _______ _______ _____ _____    ______ ____
ROOT
ATOM      1  N   UNL     1      -0.192   8.909  23.101  0.00  0.00    +0.000 N 
ATOM      2  C   UNL     1       0.281   9.121  21.822  0.00  0.00    +0.000 A 
ATOM      3  N   UNL     1      -0.086  10.263  21.212  0.00  0.00    +0.000 NA
ATOM      4  C   UNL     1       0.317  10.482  19.932  0.00  0.00    +0.000 A 
ATOM      5  C   UNL     1       1.117   9.531  19.297  0.00  0.00    +0.000 A 
ATOM      6  N   UNL     1       1.686   9.446  18.044  0.00  0.00    +0.000 NA
ATOM      7  C   UNL     1       2.329   8.298  18.039  0.00  0.00    +0.000 A 
ATOM      8  N   UNL     1       2.200   7.635  19.230  0.00  0.00    +0.000 N 
ATOM      9  C   UNL     1       1.435   8.412  20.053  0.00  0.00    +0.000 A 
ATOM     10  N   UNL     1       1.064   8.157  21.316  0.00  0.00    +0.000 NA
ATOM     11  H   UNL     1      -0.440   9.784  23.548  0.00  0.00    +0.000 HD
ATOM     12  H   UNL     1       0.385   8.263  23.614  0.00  0.00    +0.000 HD
ENDROOT
BRANCH   8  13
ATOM     13  C1* UNL     1       2.803   6.356  19.531  0.00  0.00    +0.000 C 
ATOM     14  O4* UNL     1       3.928   6.117  18.652  0.00  0.00    +0.000 OA
ATOM     15  C4* UNL     1       3.773   4.784  18.096  0.00  0.00    +0.000 C 
ATOM     16  C3* UNL     1       2.830   4.050  19.045  0.00  0.00    +0.000 C 
ATOM     17  C2* UNL     1       1.858   5.156  19.427  0.00  0.00    +0.000 C 
BRANCH  16  18
ATOM     18  O3* UNL     1       3.466   3.577  20.244  0.00  0.00    +0.000 OA
ATOM     19  H3* UNL     1       3.011   2.776  20.564  0.00  0.00    +0.000 HD
ENDBRANCH  16  18
BRANCH  17  20
ATOM     20  O2* UNL     1       1.201   4.886  20.664  0.00  0.00    +0.000 OA
ATOM     21  H2* UNL     1       0.818   3.986  20.584  0.00  0.00    +0.000 HD
ENDBRANCH  17  20
BRANCH  15  22
ATOM     22  C5* UNL     1       5.154   4.150  17.946  0.00  0.00    +0.000 C 
BRANCH  22  23
ATOM     23  O5* UNL     1       5.926   4.382  19.121  0.00  0.00    +0.000 OA
ATOM     24  H5* UNL     1       6.665   4.965  18.860  0.00  0.00    +0.000 HD
ENDBRANCH  22  23
ENDBRANCH  15  22
ENDBRANCH   8  13
BRANCH   4  25
ATOM     25  S   UNL     1      -0.115  11.999  19.129  0.00  0.00    +0.000 S 
BRANCH  25  26
ATOM     26  C   UNL     1      -0.663  12.994  20.561  0.00  0.00    +0.000 C 
BRANCH  26  27
ATOM     27  C   UNL     1      -2.149  12.829  20.817  0.00  0.00    +0.000 A 
ATOM     28  C   UNL     1      -3.048  12.665  19.749  0.00  0.00    +0.000 A 
ATOM     29  C   UNL     1      -4.422  12.533  19.985  0.00  0.00    +0.000 A 
ATOM     30  C   UNL     1      -4.904  12.569  21.299  0.00  0.00    +0.000 A 
ATOM     31  C   UNL     1      -4.023  12.730  22.373  0.00  0.00    +0.000 A 
ATOM     32  C   UNL     1      -2.653  12.862  22.129  0.00  0.00    +0.000 A 
BRANCH  30  33
ATOM     33  N   UNL     1      -6.348  12.446  21.552  0.00  0.00    +0.000 N 
ATOM     34  O   UNL     1      -6.712  12.173  22.706  0.00  0.00    +0.000 OA
ATOM     35  O   UNL     1      -7.118  12.623  20.598  0.00  0.00    +0.000 OA
ENDBRANCH  30  33
ENDBRANCH  26  27
ENDBRANCH  25  26
ENDBRANCH   4  25
TORSDOF 9
ENDMDL
MODEL 7
REMARK VINA RESULT:      -7.3      7.445     10.112
REMARK  Name = 
REMARK  9 active torsions:
REMARK  status: ('A' for Active; 'I' for Inactive)
REMARK    1  A    between atoms: C_4  and  S_5
REMARK    2  A    between atoms: S_5  and  C_6
REMARK    3  A    between atoms: C_6  and  C_7
REMARK    4  A    between atoms: C_10  and  N_11
REMARK    5  A    between atoms: N_19  and  C1*_20
REMARK    6  A    between atoms: C4*_22  and  C5*_23
REMARK    7  A    between atoms: C5*_23  and  O5*_24
REMARK    8  A    between atoms: C3*_25  and  O3*_26
REMARK    9  A    between atoms: C2*_27  and  O2*_28
REMARK                            x       y       z     vdW  Elec       q    Type
REMARK                         _______ _______ _______ _____ _____    ______ ____
ROOT
ATOM      1  N   UNL     1       0.281   9.257  23.108  0.00  0.00    +0.000 N 
ATOM      2  C   UNL     1       0.611   9.350  21.772  0.00  0.00    +0.000 A 
ATOM      3  N   UNL     1       0.188  10.442  21.109  0.00  0.00    +0.000 NA
ATOM      4  C   UNL     1       0.448  10.544  19.778  0.00  0.00    +0.000 A 
ATOM      5  C   UNL     1       1.165   9.529  19.144  0.00  0.00    +0.000 A 
ATOM      6  N   UNL     1       1.591   9.328  17.848  0.00  0.00    +0.000 NA
ATOM      7  C   UNL     1       2.219   8.171  17.872  0.00  0.00    +0.000 A 
ATOM      8  N   UNL     1       2.218   7.615  19.123  0.00  0.00    +0.000 N 
ATOM      9  C   UNL     1       1.555   8.473  19.954  0.00  0.00    +0.000 A 
ATOM     10  N   UNL     1       1.325   8.333  21.267  0.00  0.00    +0.000 NA
ATOM     11  H   UNL     1       0.091  10.171  23.502  0.00  0.00    +0.000 HD
ATOM     12  H   UNL     1       0.906   8.647  23.608  0.00  0.00    +0.000 HD
ENDROOT
BRANCH   8  13
ATOM     13  C1* UNL     1       2.840   6.355  19.465  0.00  0.00    +0.000 C 
ATOM     14  O4* UNL     1       4.008   6.137  18.640  0.00  0.00    +0.000 OA
ATOM     15  C4* UNL     1       3.913   4.794  18.093  0.00  0.00    +0.000 C 
ATOM     16  C3* UNL     1       2.947   4.046  19.008  0.00  0.00    +0.000 C 
ATOM     17  C2* UNL     1       1.931   5.130  19.334  0.00  0.00    +0.000 C 
BRANCH  16  18
ATOM     18  O3* UNL     1       3.541   3.602  20.240  0.00  0.00    +0.000 OA
ATOM     19  H3* UNL     1       4.485   3.405  20.097  0.00  0.00    +0.000 HD
ENDBRANCH  16  18
BRANCH  17  20
ATOM     20  O2* UNL     1       1.227   4.856  20.543  0.00  0.00    +0.000 OA
ATOM     21  H2* UNL     1       1.902   4.806  21.252  0.00  0.00    +0.000 HD
ENDBRANCH  17  20
BRANCH  15  22
ATOM     22  C5* UNL     1       5.315   4.195  18.013  0.00  0.00    +0.000 C 
BRANCH  22  23
ATOM     23  O5* UNL     1       5.453   3.440  16.811  0.00  0.00    +0.000 OA
ATOM     24  H5* UNL     1       5.528   4.085  16.082  0.00  0.00    +0.000 HD
ENDBRANCH  22  23
ENDBRANCH  15  22
ENDBRANCH   8  13
BRANCH   4  25
ATOM     25  S   UNL     1      -0.057  11.996  18.899  0.00  0.00    +0.000 S 
BRANCH  25  26
ATOM     26  C   UNL     1      -1.196  12.746  20.114  0.00  0.00    +0.000 C 
BRANCH  26  27
ATOM     27  C   UNL     1      -2.645  12.443  19.781  0.00  0.00    +0.000 A 
ATOM     28  C   UNL     1      -2.980  11.739  18.613  0.00  0.00    +0.000 A 
ATOM     29  C   UNL     1      -4.319  11.476  18.295  0.00  0.00    +0.000 A 
ATOM     30  C   UNL     1      -5.332  11.924  19.151  0.00  0.00    +0.000 A 
ATOM     31  C   UNL     1      -5.016  12.624  20.320  0.00  0.00    +0.000 A 
ATOM     32  C   UNL     1      -3.677  12.883  20.629  0.00  0.00    +0.000 A 
BRANCH  30  33
ATOM     33  N   UNL     1      -6.741  11.663  18.816  0.00  0.00    +0.000 N 
ATOM     34  O   UNL     1      -7.454  11.137  19.684  0.00  0.00    +0.000 OA
ATOM     35  O   UNL     1      -7.134  11.987  17.687  0.00  0.00    +0.000 OA
ENDBRANCH  30  33
ENDBRANCH  26  27
ENDBRANCH  25  26
ENDBRANCH   4  25
TORSDOF 9
ENDMDL
MODEL 8
REMARK VINA RESULT:      -7.3      7.618      9.506
REMARK  Name = 
REMARK  9 active torsions:
REMARK  status: ('A' for Active; 'I' for Inactive)
REMARK    1  A    between atoms: C_4  and  S_5
REMARK    2  A    between atoms: S_5  and  C_6
REMARK    3  A    between atoms: C_6  and  C_7
REMARK    4  A    between atoms: C_10  and  N_11
REMARK    5  A    between atoms: N_19  and  C1*_20
REMARK    6  A    between atoms: C4*_22  and  C5*_23
REMARK    7  A    between atoms: C5*_23  and  O5*_24
REMARK    8  A    between atoms: C3*_25  and  O3*_26
REMARK    9  A    between atoms: C2*_27  and  O2*_28
REMARK                            x       y       z     vdW  Elec       q    Type
REMARK                         _______ _______ _______ _____ _____    ______ ____
ROOT
ATOM      1  N   UNL     1      -0.135   8.781  22.943  0.00  0.00    +0.000 N 
ATOM      2  C   UNL     1       0.359   9.008  21.675  0.00  0.00    +0.000 A 
ATOM      3  N   UNL     1       0.010  10.162  21.078  0.00  0.00    +0.000 NA
ATOM      4  C   UNL     1       0.434  10.397  19.807  0.00  0.00    +0.000 A 
ATOM      5  C   UNL     1       1.235   9.449  19.169  0.00  0.00    +0.000 A 
ATOM      6  N   UNL     1       1.822   9.378  17.924  0.00  0.00    +0.000 NA
ATOM      7  C   UNL     1       2.455   8.224  17.910  0.00  0.00    +0.000 A 
ATOM      8  N   UNL     1       2.303   7.544  19.089  0.00  0.00    +0.000 N 
ATOM      9  C   UNL     1       1.532   8.316  19.912  0.00  0.00    +0.000 A 
ATOM     10  N   UNL     1       1.141   8.045  21.166  0.00  0.00    +0.000 NA
ATOM     11  H   UNL     1      -0.382   9.651  23.400  0.00  0.00    +0.000 HD
ATOM     12  H   UNL     1       0.430   8.123  23.455  0.00  0.00    +0.000 HD
ENDROOT
BRANCH   8  13
ATOM     13  C1* UNL     1       2.891   6.256  19.379  0.00  0.00    +0.000 C 
ATOM     14  O4* UNL     1       3.919   5.948  18.408  0.00  0.00    +0.000 OA
ATOM     15  C4* UNL     1       3.670   4.603  17.919  0.00  0.00    +0.000 C 
ATOM     16  C3* UNL     1       2.797   3.935  18.978  0.00  0.00    +0.000 C 
ATOM     17  C2* UNL     1       1.902   5.087  19.409  0.00  0.00    +0.000 C 
BRANCH  16  18
ATOM     18  O3* UNL     1       3.529   3.481  20.129  0.00  0.00    +0.000 OA
ATOM     19  H3* UNL     1       4.332   4.022  20.243  0.00  0.00    +0.000 HD
ENDBRANCH  16  18
BRANCH  17  20
ATOM     20  O2* UNL     1       1.357   4.882  20.711  0.00  0.00    +0.000 OA
ATOM     21  H2* UNL     1       1.709   5.603  21.275  0.00  0.00    +0.000 HD
ENDBRANCH  17  20
BRANCH  15  22
ATOM     22  C5* UNL     1       5.009   3.916  17.664  0.00  0.00    +0.000 C 
BRANCH  22  23
ATOM     23  O5* UNL     1       5.834   4.014  18.822  0.00  0.00    +0.000 OA
ATOM     24  H5* UNL     1       5.245   3.912  19.595  0.00  0.00    +0.000 HD
ENDBRANCH  22  23
ENDBRANCH  15  22
ENDBRANCH   8  13
BRANCH   4  25
ATOM     25  S   UNL     1       0.027  11.930  19.020  0.00  0.00    +0.000 S 
BRANCH  25  26
ATOM     26  C   UNL     1       0.081  13.067  20.450  0.00  0.00    +0.000 C 
BRANCH  26  27
ATOM     27  C   UNL     1      -1.187  12.979  21.279  0.00  0.00    +0.000 A 
ATOM     28  C   UNL     1      -2.444  12.877  20.660  0.00  0.00    +0.000 A 
ATOM     29  C   UNL     1      -3.615  12.817  21.425  0.00  0.00    +0.000 A 
ATOM     30  C   UNL     1      -3.531  12.863  22.822  0.00  0.00    +0.000 A 
ATOM     31  C   UNL     1      -2.288  12.962  23.454  0.00  0.00    +0.000 A 
ATOM     32  C   UNL     1      -1.123  13.023  22.683  0.00  0.00    +0.000 A 
BRANCH  30  33
ATOM     33  N   UNL     1      -4.759  12.814  23.630  0.00  0.00    +0.000 N 
ATOM     34  O   UNL     1      -5.704  13.544  23.292  0.00  0.00    +0.000 OA
ATOM     35  O   UNL     1      -4.780  12.046  24.601  0.00  0.00    +0.000 OA
ENDBRANCH  30  33
ENDBRANCH  26  27
ENDBRANCH  25  26
ENDBRANCH   4  25
TORSDOF 9
ENDMDL
MODEL 9
REMARK VINA RESULT:      -7.3      1.377      1.664
REMARK  Name = 
REMARK  9 active torsions:
REMARK  status: ('A' for Active; 'I' for Inactive)
REMARK    1  A    between atoms: C_4  and  S_5
REMARK    2  A    between atoms: S_5  and  C_6
REMARK    3  A    between atoms: C_6  and  C_7
REMARK    4  A    between atoms: C_10  and  N_11
REMARK    5  A    between atoms: N_19  and  C1*_20
REMARK    6  A    between atoms: C4*_22  and  C5*_23
REMARK    7  A    between atoms: C5*_23  and  O5*_24
REMARK    8  A    between atoms: C3*_25  and  O3*_26
REMARK    9  A    between atoms: C2*_27  and  O2*_28
REMARK                            x       y       z     vdW  Elec       q    Type
REMARK                         _______ _______ _______ _____ _____    ______ ____
ROOT
ATOM      1  N   UNL     1       8.482   4.061  17.859  0.00  0.00    +0.000 N 
ATOM      2  C   UNL     1       7.480   5.007  17.792  0.00  0.00    +0.000 A 
ATOM      3  N   UNL     1       7.854   6.287  17.608  0.00  0.00    +0.000 NA
ATOM      4  C   UNL     1       6.898   7.254  17.590  0.00  0.00    +0.000 A 
ATOM      5  C   UNL     1       5.558   6.891  17.738  0.00  0.00    +0.000 A 
ATOM      6  N   UNL     1       4.376   7.598  17.761  0.00  0.00    +0.000 NA
ATOM      7  C   UNL     1       3.439   6.691  17.939  0.00  0.00    +0.000 A 
ATOM      8  N   UNL     1       3.963   5.428  18.035  0.00  0.00    +0.000 N 
ATOM      9  C   UNL     1       5.318   5.534  17.900  0.00  0.00    +0.000 A 
ATOM     10  N   UNL     1       6.226   4.548  17.919  0.00  0.00    +0.000 NA
ATOM     11  H   UNL     1       9.324   4.388  17.399  0.00  0.00    +0.000 HD
ATOM     12  H   UNL     1       8.146   3.140  17.631  0.00  0.00    +0.000 HD
ENDROOT
BRANCH   8  13
ATOM     13  C1* UNL     1       3.183   4.225  18.219  0.00  0.00    +0.000 C 
ATOM     14  O4* UNL     1       2.247   4.401  19.309  0.00  0.00    +0.000 OA
ATOM     15  C4* UNL     1       2.377   3.250  20.187  0.00  0.00    +0.000 C 
ATOM     16  C3* UNL     1       3.023   2.157  19.339  0.00  0.00    +0.000 C 
ATOM     17  C2* UNL     1       4.001   2.962  18.496  0.00  0.00    +0.000 C 
BRANCH  16  18
ATOM     18  O3* UNL     1       2.107   1.494  18.452  0.00  0.00    +0.000 OA
ATOM     19  H3* UNL     1       1.610   2.157  17.937  0.00  0.00    +0.000 HD
ENDBRANCH  16  18
BRANCH  17  20
ATOM     20  O2* UNL     1       4.356   2.281  17.294  0.00  0.00    +0.000 OA
ATOM     21  H2* UNL     1       4.637   1.379  17.559  0.00  0.00    +0.000 HD
ENDBRANCH  17  20
BRANCH  15  22
ATOM     22  C5* UNL     1       1.000   2.899  20.745  0.00  0.00    +0.000 C 
BRANCH  22  23
ATOM     23  O5* UNL     1       0.052   2.811  19.684  0.00  0.00    +0.000 OA
ATOM     24  H5* UNL     1       0.420   3.322  18.937  0.00  0.00    +0.000 HD
ENDBRANCH  22  23
ENDBRANCH  15  22
ENDBRANCH   8  13
BRANCH   4  25
ATOM     25  S   UNL     1       7.364   8.937  17.300  0.00  0.00    +0.000 S 
BRANCH  25  26
ATOM     26  C   UNL     1       8.598   9.177  18.627  0.00  0.00    +0.000 C 
BRANCH  26  27
ATOM     27  C   UNL     1       9.184  10.577  18.596  0.00  0.00    +0.000 A 
ATOM     28  C   UNL     1      10.279  10.914  19.408  0.00  0.00    +0.000 A 
ATOM     29  C   UNL     1      10.806  12.212  19.394  0.00  0.00    +0.000 A 
ATOM     30  C   UNL     1      10.232  13.182  18.563  0.00  0.00    +0.000 A 
ATOM     31  C   UNL     1       9.143  12.861  17.747  0.00  0.00    +0.000 A 
ATOM     32  C   UNL     1       8.622  11.564  17.768  0.00  0.00    +0.000 A 
BRANCH  30  33
ATOM     33  N   UNL     1      10.772  14.550  18.555  0.00  0.00    +0.000 N 
ATOM     34  O   UNL     1      11.919  14.722  18.994  0.00  0.00    +0.000 OA
ATOM     35  O   UNL     1      10.051  15.452  18.106  0.00  0.00    +0.000 OA
ENDBRANCH  30  33
ENDBRANCH  26  27
ENDBRANCH  25  26
ENDBRANCH   4  25
TORSDOF 9
ENDMDL
