MODEL 1
REMARK VINA RESULT:      -7.8      0.000      0.000
REMARK  Name = 
REMARK  6 active torsions:
REMARK  status: ('A' for Active; 'I' for Inactive)
REMARK    1  A    between atoms: N_1  and  C_2
REMARK    2  A    between atoms: N_11  and  C1*_12
REMARK    3  A    between atoms: C4*_14  and  C5*_15
REMARK    4  A    between atoms: C5*_15  and  O5*_16
REMARK    5  A    between atoms: C3*_17  and  O3*_18
REMARK    6  A    between atoms: C2*_19  and  O2*_20
REMARK                            x       y       z     vdW  Elec       q    Type
REMARK                         _______ _______ _______ _____ _____    ______ ____
ROOT
ATOM      1  C   UNL     1       1.454   3.155  19.562  0.00  0.00    +0.000 A 
ATOM      2  N   UNL     1       1.529   1.978  18.900  0.00  0.00    +0.000 NA
ATOM      3  C   UNL     1       2.551   1.774  18.047  0.00  0.00    +0.000 A 
ATOM      4  N   UNL     1       3.555   2.615  17.751  0.00  0.00    +0.000 NA
ATOM      5  C   UNL     1       3.447   3.771  18.430  0.00  0.00    +0.000 A 
ATOM      6  C   UNL     1       2.460   4.110  19.343  0.00  0.00    +0.000 A 
ATOM      7  C   UNL     1       2.831   5.406  19.792  0.00  0.00    +0.000 A 
ATOM      8  N   UNL     1       2.192   6.131  20.716  0.00  0.00    +0.000 N 
ATOM      9  N   UNL     1       3.940   5.856  19.199  0.00  0.00    +0.000 NA
ATOM     10  N   UNL     1       4.291   4.846  18.366  0.00  0.00    +0.000 N 
ATOM     11  H   UNL     1       1.291   5.887  21.109  0.00  0.00    +0.000 HD
ATOM     12  H   UNL     1       2.519   7.068  20.913  0.00  0.00    +0.000 HD
ENDROOT
BRANCH  10  13
ATOM     13  C1* UNL     1       5.470   4.950  17.521  0.00  0.00    +0.000 C 
ATOM     14  O4* UNL     1       6.632   4.478  18.255  0.00  0.00    +0.000 OA
ATOM     15  C4* UNL     1       7.713   5.422  18.061  0.00  0.00    +0.000 C 
ATOM     16  C3* UNL     1       7.282   6.341  16.925  0.00  0.00    +0.000 C 
ATOM     17  C2* UNL     1       5.768   6.377  17.060  0.00  0.00    +0.000 C 
BRANCH  16  18
ATOM     18  O3* UNL     1       7.599   5.777  15.637  0.00  0.00    +0.000 OA
ATOM     19  H3* UNL     1       8.360   6.258  15.258  0.00  0.00    +0.000 HD
ENDBRANCH  16  18
BRANCH  17  20
ATOM     20  O2* UNL     1       5.154   6.711  15.812  0.00  0.00    +0.000 OA
ATOM     21  H2* UNL     1       4.536   5.979  15.607  0.00  0.00    +0.000 HD
ENDBRANCH  17  20
BRANCH  15  22
ATOM     22  C5* UNL     1       7.977   6.170  19.369  0.00  0.00    +0.000 C 
BRANCH  22  23
ATOM     23  O5* UNL     1       7.968   5.253  20.460  0.00  0.00    +0.000 OA
ATOM     24  H5* UNL     1       7.322   4.559  20.219  0.00  0.00    +0.000 HD
ENDBRANCH  22  23
ENDBRANCH  15  22
ENDBRANCH  10  13
BRANCH   1  25
ATOM     25  N   UNL     1       0.376   3.306  20.422  0.00  0.00    +0.000 N 
ATOM     26  H   UNL     1      -0.069   2.408  20.575  0.00  0.00    +0.000 HD
ATOM     27  H   UNL     1       0.569   3.845  21.254  0.00  0.00    +0.000 HD
ENDBRANCH   1  25
TORSDOF 6
ENDMDL
MODEL 2
REMARK VINA RESULT:      -7.6      3.099      6.036
REMARK  Name = 
REMARK  6 active torsions:
REMARK  status: ('A' for Active; 'I' for Inactive)
REMARK    1  A    between atoms: N_1  and  C_2
REMARK    2  A    between atoms: N_11  and  C1*_12
REMARK    3  A    between atoms: C4*_14  and  C5*_15
REMARK    4  A    between atoms: C5*_15  and  O5*_16
REMARK    5  A    between atoms: C3*_17  and  O3*_18
REMARK    6  A    between atoms: C2*_19  and  O2*_20
REMARK                            x       y       z     vdW  Elec       q    Type
REMARK                         _______ _______ _______ _____ _____    ______ ____
ROOT
ATOM      1  C   UNL     1       7.129   5.738  17.127  0.00  0.00    +0.000 A 
ATOM      2  N   UNL     1       7.850   6.125  18.203  0.00  0.00    +0.000 NA
ATOM      3  C   UNL     1       7.407   5.806  19.434  0.00  0.00    +0.000 A 
ATOM      4  N   UNL     1       6.296   5.123  19.756  0.00  0.00    +0.000 NA
ATOM      5  C   UNL     1       5.608   4.754  18.660  0.00  0.00    +0.000 A 
ATOM      6  C   UNL     1       5.952   5.003  17.340  0.00  0.00    +0.000 A 
ATOM      7  C   UNL     1       4.923   4.373  16.588  0.00  0.00    +0.000 A 
ATOM      8  N   UNL     1       4.848   4.313  15.255  0.00  0.00    +0.000 N 
ATOM      9  N   UNL     1       3.999   3.799  17.364  0.00  0.00    +0.000 NA
ATOM     10  N   UNL     1       4.434   4.053  18.623  0.00  0.00    +0.000 N 
ATOM     11  H   UNL     1       5.454   4.826  14.627  0.00  0.00    +0.000 HD
ATOM     12  H   UNL     1       4.035   3.886  14.830  0.00  0.00    +0.000 HD
ENDROOT
BRANCH  10  13
ATOM     13  C1* UNL     1       3.686   3.588  19.779  0.00  0.00    +0.000 C 
ATOM     14  O4* UNL     1       3.218   2.233  19.537  0.00  0.00    +0.000 OA
ATOM     15  C4* UNL     1       1.828   2.148  19.932  0.00  0.00    +0.000 C 
ATOM     16  C3* UNL     1       1.529   3.415  20.723  0.00  0.00    +0.000 C 
ATOM     17  C2* UNL     1       2.461   4.443  20.102  0.00  0.00    +0.000 C 
BRANCH  16  18
ATOM     18  O3* UNL     1       1.888   3.273  22.111  0.00  0.00    +0.000 OA
ATOM     19  H3* UNL     1       1.499   2.446  22.457  0.00  0.00    +0.000 HD
ENDBRANCH  16  18
BRANCH  17  20
ATOM     20  O2* UNL     1       2.735   5.504  21.022  0.00  0.00    +0.000 OA
ATOM     21  H2* UNL     1       2.386   6.321  20.609  0.00  0.00    +0.000 HD
ENDBRANCH  17  20
BRANCH  15  22
ATOM     22  C5* UNL     1       0.952   1.999  18.687  0.00  0.00    +0.000 C 
BRANCH  22  23
ATOM     23  O5* UNL     1       1.775   1.801  17.540  0.00  0.00    +0.000 OA
ATOM     24  H5* UNL     1       1.671   2.607  16.995  0.00  0.00    +0.000 HD
ENDBRANCH  22  23
ENDBRANCH  15  22
ENDBRANCH  10  13
BRANCH   1  25
ATOM     25  N   UNL     1       7.636   6.100  15.888  0.00  0.00    +0.000 N 
ATOM     26  H   UNL     1       7.074   6.845  15.491  0.00  0.00    +0.000 HD
ATOM     27  H   UNL     1       8.635   6.247  15.863  0.00  0.00    +0.000 HD
ENDBRANCH   1  25
TORSDOF 6
ENDMDL
MODEL 3
REMARK VINA RESULT:      -7.4      1.506      3.479
REMARK  Name = 
REMARK  6 active torsions:
REMARK  status: ('A' for Active; 'I' for Inactive)
REMARK    1  A    between atoms: N_1  and  C_2
REMARK    2  A    between atoms: N_11  and  C1*_12
REMARK    3  A    between atoms: C4*_14  and  C5*_15
REMARK    4  A    between atoms: C5*_15  and  O5*_16
REMARK    5  A    between atoms: C3*_17  and  O3*_18
REMARK    6  A    between atoms: C2*_19  and  O2*_20
REMARK                            x       y       z     vdW  Elec       q    Type
REMARK                         _______ _______ _______ _____ _____    ______ ____
ROOT
ATOM      1  C   UNL     1       1.510   4.023  20.233  0.00  0.00    +0.000 A 
ATOM      2  N   UNL     1       1.360   5.289  20.685  0.00  0.00    +0.000 NA
ATOM      3  C   UNL     1       2.178   6.250  20.215  0.00  0.00    +0.000 A 
ATOM      4  N   UNL     1       3.168   6.120  19.316  0.00  0.00    +0.000 NA
ATOM      5  C   UNL     1       3.283   4.850  18.890  0.00  0.00    +0.000 A 
ATOM      6  C   UNL     1       2.506   3.769  19.277  0.00  0.00    +0.000 A 
ATOM      7  C   UNL     1       3.012   2.684  18.510  0.00  0.00    +0.000 A 
ATOM      8  N   UNL     1       2.545   1.431  18.516  0.00  0.00    +0.000 N 
ATOM      9  N   UNL     1       4.033   3.042  17.727  0.00  0.00    +0.000 NA
ATOM     10  N   UNL     1       4.186   4.365  17.983  0.00  0.00    +0.000 N 
ATOM     11  H   UNL     1       1.855   1.084  19.171  0.00  0.00    +0.000 HD
ATOM     12  H   UNL     1       3.025   0.728  17.969  0.00  0.00    +0.000 HD
ENDROOT
BRANCH  10  13
ATOM     13  C1* UNL     1       5.219   5.140  17.316  0.00  0.00    +0.000 C 
ATOM     14  O4* UNL     1       4.766   5.500  15.983  0.00  0.00    +0.000 OA
ATOM     15  C4* UNL     1       5.841   5.244  15.046  0.00  0.00    +0.000 C 
ATOM     16  C3* UNL     1       7.091   5.004  15.883  0.00  0.00    +0.000 C 
ATOM     17  C2* UNL     1       6.543   4.391  17.162  0.00  0.00    +0.000 C 
BRANCH  16  18
ATOM     18  O3* UNL     1       7.744   6.242  16.229  0.00  0.00    +0.000 OA
ATOM     19  H3* UNL     1       7.212   6.703  16.906  0.00  0.00    +0.000 HD
ENDBRANCH  16  18
BRANCH  17  20
ATOM     20  O2* UNL     1       7.444   4.600  18.253  0.00  0.00    +0.000 OA
ATOM     21  H2* UNL     1       8.331   4.336  17.930  0.00  0.00    +0.000 HD
ENDBRANCH  17  20
BRANCH  15  22
ATOM     22  C5* UNL     1       5.474   4.050  14.163  0.00  0.00    +0.000 C 
BRANCH  22  23
ATOM     23  O5* UNL     1       6.603   3.662  13.384  0.00  0.00    +0.000 OA
ATOM     24  H5* UNL     1       7.282   3.372  14.025  0.00  0.00    +0.000 HD
ENDBRANCH  22  23
ENDBRANCH  15  22
ENDBRANCH  10  13
BRANCH   1  25
ATOM     25  N   UNL     1       0.640   3.079  20.758  0.00  0.00    +0.000 N 
ATOM     26  H   UNL     1       0.576   2.285  20.130  0.00  0.00    +0.000 HD
ATOM     27  H   UNL     1       0.793   2.854  21.730  0.00  0.00    +0.000 HD
ENDBRANCH   1  25
TORSDOF 6
ENDMDL
MODEL 4
REMARK VINA RESULT:      -7.2      1.391      3.173
REMARK  Name = 
REMARK  6 active torsions:
REMARK  status: ('A' for Active; 'I' for Inactive)
REMARK    1  A    between atoms: N_1  and  C_2
REMARK    2  A    between atoms: N_11  and  C1*_12
REMARK    3  A    between atoms: C4*_14  and  C5*_15
REMARK    4  A    between atoms: C5*_15  and  O5*_16
REMARK    5  A    between atoms: C3*_17  and  O3*_18
REMARK    6  A    between atoms: C2*_19  and  O2*_20
REMARK                            x       y       z     vdW  Elec       q    Type
REMARK                         _______ _______ _______ _____ _____    ______ ____
ROOT
ATOM      1  C   UNL     1       1.179   3.708  19.851  0.00  0.00    +0.000 A 
ATOM      2  N   UNL     1       0.907   4.784  20.624  0.00  0.00    +0.000 NA
ATOM      3  C   UNL     1       1.753   5.831  20.603  0.00  0.00    +0.000 A 
ATOM      4  N   UNL     1       2.881   5.963  19.885  0.00  0.00    +0.000 NA
ATOM      5  C   UNL     1       3.114   4.876  19.129  0.00  0.00    +0.000 A 
ATOM      6  C   UNL     1       2.327   3.737  19.044  0.00  0.00    +0.000 A 
ATOM      7  C   UNL     1       2.993   2.924  18.088  0.00  0.00    +0.000 A 
ATOM      8  N   UNL     1       2.581   1.732  17.646  0.00  0.00    +0.000 N 
ATOM      9  N   UNL     1       4.114   3.487  17.627  0.00  0.00    +0.000 NA
ATOM     10  N   UNL     1       4.171   4.672  18.284  0.00  0.00    +0.000 N 
ATOM     11  H   UNL     1       1.808   1.213  18.043  0.00  0.00    +0.000 HD
ATOM     12  H   UNL     1       3.172   1.218  17.004  0.00  0.00    +0.000 HD
ENDROOT
BRANCH  10  13
ATOM     13  C1* UNL     1       5.269   5.599  18.059  0.00  0.00    +0.000 C 
ATOM     14  O4* UNL     1       5.377   5.880  16.637  0.00  0.00    +0.000 OA
ATOM     15  C4* UNL     1       6.772   5.795  16.256  0.00  0.00    +0.000 C 
ATOM     16  C3* UNL     1       7.569   5.756  17.553  0.00  0.00    +0.000 C 
ATOM     17  C2* UNL     1       6.624   5.067  18.525  0.00  0.00    +0.000 C 
BRANCH  16  18
ATOM     18  O3* UNL     1       7.832   7.082  18.055  0.00  0.00    +0.000 OA
ATOM     19  H3* UNL     1       7.884   7.702  17.302  0.00  0.00    +0.000 HD
ENDBRANCH  16  18
BRANCH  17  20
ATOM     20  O2* UNL     1       6.939   5.418  19.875  0.00  0.00    +0.000 OA
ATOM     21  H2* UNL     1       7.803   5.001  20.073  0.00  0.00    +0.000 HD
ENDBRANCH  17  20
BRANCH  15  22
ATOM     22  C5* UNL     1       6.987   4.555  15.385  0.00  0.00    +0.000 C 
BRANCH  22  23
ATOM     23  O5* UNL     1       5.728   3.974  15.054  0.00  0.00    +0.000 OA
ATOM     24  H5* UNL     1       5.816   3.654  14.135  0.00  0.00    +0.000 HD
ENDBRANCH  22  23
ENDBRANCH  15  22
ENDBRANCH  10  13
BRANCH   1  25
ATOM     25  N   UNL     1       0.273   2.660  19.920  0.00  0.00    +0.000 N 
ATOM     26  H   UNL     1       0.540   1.932  19.267  0.00  0.00    +0.000 HD
ATOM     27  H   UNL     1       0.054   2.348  20.856  0.00  0.00    +0.000 HD
ENDBRANCH   1  25
TORSDOF 6
ENDMDL
MODEL 5
REMARK VINA RESULT:      -7.2      0.661      2.317
REMARK  Name = 
REMARK  6 active torsions:
REMARK  status: ('A' for Active; 'I' for Inactive)
REMARK    1  A    between atoms: N_1  and  C_2
REMARK    2  A    between atoms: N_11  and  C1*_12
REMARK    3  A    between atoms: C4*_14  and  C5*_15
REMARK    4  A    between atoms: C5*_15  and  O5*_16
REMARK    5  A    between atoms: C3*_17  and  O3*_18
REMARK    6  A    between atoms: C2*_19  and  O2*_20
REMARK                            x       y       z     vdW  Elec       q    Type
REMARK                         _______ _______ _______ _____ _____    ______ ____
ROOT
ATOM      1  C   UNL     1       1.618   4.278  19.971  0.00  0.00    +0.000 A 
ATOM      2  N   UNL     1       1.753   5.553  20.402  0.00  0.00    +0.000 NA
ATOM      3  C   UNL     1       2.795   6.283  19.961  0.00  0.00    +0.000 A 
ATOM      4  N   UNL     1       3.764   5.904  19.111  0.00  0.00    +0.000 NA
ATOM      5  C   UNL     1       3.594   4.633  18.704  0.00  0.00    +0.000 A 
ATOM      6  C   UNL     1       2.566   3.775  19.066  0.00  0.00    +0.000 A 
ATOM      7  C   UNL     1       2.833   2.586  18.335  0.00  0.00    +0.000 A 
ATOM      8  N   UNL     1       2.083   1.479  18.333  0.00  0.00    +0.000 N 
ATOM      9  N   UNL     1       3.943   2.675  17.597  0.00  0.00    +0.000 NA
ATOM     10  N   UNL     1       4.394   3.929  17.846  0.00  0.00    +0.000 N 
ATOM     11  H   UNL     1       1.303   1.318  18.957  0.00  0.00    +0.000 HD
ATOM     12  H   UNL     1       2.406   0.671  17.815  0.00  0.00    +0.000 HD
ENDROOT
BRANCH  10  13
ATOM     13  C1* UNL     1       5.610   4.424  17.221  0.00  0.00    +0.000 C 
ATOM     14  O4* UNL     1       6.743   4.150  18.087  0.00  0.00    +0.000 OA
ATOM     15  C4* UNL     1       7.563   5.341  18.165  0.00  0.00    +0.000 C 
ATOM     16  C3* UNL     1       7.069   6.274  17.067  0.00  0.00    +0.000 C 
ATOM     17  C2* UNL     1       5.592   5.929  16.953  0.00  0.00    +0.000 C 
BRANCH  16  18
ATOM     18  O3* UNL     1       7.691   5.980  15.800  0.00  0.00    +0.000 OA
ATOM     19  H3* UNL     1       7.094   5.411  15.278  0.00  0.00    +0.000 HD
ENDBRANCH  16  18
BRANCH  17  20
ATOM     20  O2* UNL     1       5.088   6.271  15.659  0.00  0.00    +0.000 OA
ATOM     21  H2* UNL     1       4.541   5.511  15.369  0.00  0.00    +0.000 HD
ENDBRANCH  17  20
BRANCH  15  22
ATOM     22  C5* UNL     1       7.446   5.950  19.564  0.00  0.00    +0.000 C 
BRANCH  22  23
ATOM     23  O5* UNL     1       8.332   5.279  20.457  0.00  0.00    +0.000 OA
ATOM     24  H5* UNL     1       8.595   5.946  21.122  0.00  0.00    +0.000 HD
ENDBRANCH  22  23
ENDBRANCH  15  22
ENDBRANCH  10  13
BRANCH   1  25
ATOM     25  N   UNL     1       0.528   3.577  20.464  0.00  0.00    +0.000 N 
ATOM     26  H   UNL     1       0.502   3.650  21.475  0.00  0.00    +0.000 HD
ATOM     27  H   UNL     1      -0.345   3.762  19.991  0.00  0.00    +0.000 HD
ENDBRANCH   1  25
TORSDOF 6
ENDMDL
MODEL 6
REMARK VINA RESULT:      -7.2      2.964      5.936
REMARK  Name = 
REMARK  6 active torsions:
REMARK  status: ('A' for Active; 'I' for Inactive)
REMARK    1  A    between atoms: N_1  and  C_2
REMARK    2  A    between atoms: N_11  and  C1*_12
REMARK    3  A    between atoms: C4*_14  and  C5*_15
REMARK    4  A    between atoms: C5*_15  and  O5*_16
REMARK    5  A    between atoms: C3*_17  and  O3*_18
REMARK    6  A    between atoms: C2*_19  and  O2*_20
REMARK                            x       y       z     vdW  Elec       q    Type
REMARK                         _______ _______ _______ _____ _____    ______ ____
ROOT
ATOM      1  C   UNL     1       7.312   6.625  17.802  0.00  0.00    +0.000 A 
ATOM      2  N   UNL     1       8.212   6.331  18.768  0.00  0.00    +0.000 NA
ATOM      3  C   UNL     1       7.830   5.554  19.800  0.00  0.00    +0.000 A 
ATOM      4  N   UNL     1       6.623   5.003  20.012  0.00  0.00    +0.000 NA
ATOM      5  C   UNL     1       5.759   5.316  19.030  0.00  0.00    +0.000 A 
ATOM      6  C   UNL     1       6.018   6.091  17.910  0.00  0.00    +0.000 A 
ATOM      7  C   UNL     1       4.795   6.075  17.186  0.00  0.00    +0.000 A 
ATOM      8  N   UNL     1       4.573   6.661  16.005  0.00  0.00    +0.000 N 
ATOM      9  N   UNL     1       3.841   5.374  17.804  0.00  0.00    +0.000 NA
ATOM     10  N   UNL     1       4.450   4.928  18.931  0.00  0.00    +0.000 N 
ATOM     11  H   UNL     1       5.220   7.295  15.553  0.00  0.00    +0.000 HD
ATOM     12  H   UNL     1       3.641   6.630  15.612  0.00  0.00    +0.000 HD
ENDROOT
BRANCH  10  13
ATOM     13  C1* UNL     1       3.731   4.112  19.895  0.00  0.00    +0.000 C 
ATOM     14  O4* UNL     1       3.540   2.778  19.350  0.00  0.00    +0.000 OA
ATOM     15  C4* UNL     1       2.168   2.378  19.582  0.00  0.00    +0.000 C 
ATOM     16  C3* UNL     1       1.589   3.383  20.569  0.00  0.00    +0.000 C 
ATOM     17  C2* UNL     1       2.350   4.661  20.255  0.00  0.00    +0.000 C 
BRANCH  16  18
ATOM     18  O3* UNL     1       1.882   3.017  21.933  0.00  0.00    +0.000 OA
ATOM     19  H3* UNL     1       2.770   3.347  22.166  0.00  0.00    +0.000 HD
ENDBRANCH  16  18
BRANCH  17  20
ATOM     20  O2* UNL     1       2.364   5.537  21.386  0.00  0.00    +0.000 OA
ATOM     21  H2* UNL     1       3.065   6.199  21.210  0.00  0.00    +0.000 HD
ENDBRANCH  17  20
BRANCH  15  22
ATOM     22  C5* UNL     1       1.415   2.346  18.251  0.00  0.00    +0.000 C 
BRANCH  22  23
ATOM     23  O5* UNL     1       2.254   2.841  17.210  0.00  0.00    +0.000 OA
ATOM     24  H5* UNL     1       2.976   3.324  17.657  0.00  0.00    +0.000 HD
ENDBRANCH  22  23
ENDBRANCH  15  22
ENDBRANCH  10  13
BRANCH   1  25
ATOM     25  N   UNL     1       7.764   7.432  16.770  0.00  0.00    +0.000 N 
ATOM     26  H   UNL     1       8.274   8.222  17.150  0.00  0.00    +0.000 HD
ATOM     27  H   UNL     1       8.221   6.941  16.015  0.00  0.00    +0.000 HD
ENDBRANCH   1  25
TORSDOF 6
ENDMDL
MODEL 7
REMARK VINA RESULT:      -7.1      1.766      3.155
REMARK  Name = 
REMARK  6 active torsions:
REMARK  status: ('A' for Active; 'I' for Inactive)
REMARK    1  A    between atoms: N_1  and  C_2
REMARK    2  A    between atoms: N_11  and  C1*_12
REMARK    3  A    between atoms: C4*_14  and  C5*_15
REMARK    4  A    between atoms: C5*_15  and  O5*_16
REMARK    5  A    between atoms: C3*_17  and  O3*_18
REMARK    6  A    between atoms: C2*_19  and  O2*_20
REMARK                            x       y       z     vdW  Elec       q    Type
REMARK                         _______ _______ _______ _____ _____    ______ ____
ROOT
ATOM      1  C   UNL     1       2.348   3.555  21.033  0.00  0.00    +0.000 A 
ATOM      2  N   UNL     1       1.519   4.623  21.057  0.00  0.00    +0.000 NA
ATOM      3  C   UNL     1       1.866   5.733  20.378  0.00  0.00    +0.000 A 
ATOM      4  N   UNL     1       2.973   5.936  19.644  0.00  0.00    +0.000 NA
ATOM      5  C   UNL     1       3.769   4.851  19.643  0.00  0.00    +0.000 A 
ATOM      6  C   UNL     1       3.532   3.645  20.284  0.00  0.00    +0.000 A 
ATOM      7  C   UNL     1       4.649   2.839  19.933  0.00  0.00    +0.000 A 
ATOM      8  N   UNL     1       4.844   1.566  20.291  0.00  0.00    +0.000 N 
ATOM      9  N   UNL     1       5.526   3.486  19.159  0.00  0.00    +0.000 NA
ATOM     10  N   UNL     1       4.972   4.714  19.004  0.00  0.00    +0.000 N 
ATOM     11  H   UNL     1       4.274   1.070  20.964  0.00  0.00    +0.000 HD
ATOM     12  H   UNL     1       5.709   1.111  20.027  0.00  0.00    +0.000 HD
ENDROOT
BRANCH  10  13
ATOM     13  C1* UNL     1       5.635   5.738  18.213  0.00  0.00    +0.000 C 
ATOM     14  O4* UNL     1       5.167   5.663  16.839  0.00  0.00    +0.000 OA
ATOM     15  C4* UNL     1       6.313   5.740  15.958  0.00  0.00    +0.000 C 
ATOM     16  C3* UNL     1       7.489   6.181  16.821  0.00  0.00    +0.000 C 
ATOM     17  C2* UNL     1       7.157   5.601  18.186  0.00  0.00    +0.000 C 
BRANCH  16  18
ATOM     18  O3* UNL     1       7.544   7.616  16.950  0.00  0.00    +0.000 OA
ATOM     19  H3* UNL     1       8.353   7.943  16.511  0.00  0.00    +0.000 HD
ENDBRANCH  16  18
BRANCH  17  20
ATOM     20  O2* UNL     1       7.812   6.336  19.224  0.00  0.00    +0.000 OA
ATOM     21  H2* UNL     1       7.714   5.803  20.041  0.00  0.00    +0.000 HD
ENDBRANCH  17  20
BRANCH  15  22
ATOM     22  C5* UNL     1       6.537   4.381  15.291  0.00  0.00    +0.000 C 
BRANCH  22  23
ATOM     23  O5* UNL     1       5.835   3.371  16.010  0.00  0.00    +0.000 OA
ATOM     24  H5* UNL     1       6.490   2.970  16.615  0.00  0.00    +0.000 HD
ENDBRANCH  22  23
ENDBRANCH  15  22
ENDBRANCH  10  13
BRANCH   1  25
ATOM     25  N   UNL     1       1.937   2.444  21.755  0.00  0.00    +0.000 N 
ATOM     26  H   UNL     1       1.631   1.716  21.119  0.00  0.00    +0.000 HD
ATOM     27  H   UNL     1       2.574   2.149  22.481  0.00  0.00    +0.000 HD
ENDBRANCH   1  25
TORSDOF 6
ENDMDL
MODEL 8
REMARK VINA RESULT:      -7.1      1.279      1.669
REMARK  Name = 
REMARK  6 active torsions:
REMARK  status: ('A' for Active; 'I' for Inactive)
REMARK    1  A    between atoms: N_1  and  C_2
REMARK    2  A    between atoms: N_11  and  C1*_12
REMARK    3  A    between atoms: C4*_14  and  C5*_15
REMARK    4  A    between atoms: C5*_15  and  O5*_16
REMARK    5  A    between atoms: C3*_17  and  O3*_18
REMARK    6  A    between atoms: C2*_19  and  O2*_20
REMARK                            x       y       z     vdW  Elec       q    Type
REMARK                         _______ _______ _______ _____ _____    ______ ____
ROOT
ATOM      1  C   UNL     1       1.426   3.169  19.737  0.00  0.00    +0.000 A 
ATOM      2  N   UNL     1       1.519   1.926  19.211  0.00  0.00    +0.000 NA
ATOM      3  C   UNL     1       2.658   1.564  18.591  0.00  0.00    +0.000 A 
ATOM      4  N   UNL     1       3.768   2.300  18.415  0.00  0.00    +0.000 NA
ATOM      5  C   UNL     1       3.637   3.526  18.953  0.00  0.00    +0.000 A 
ATOM      6  C   UNL     1       2.532   4.025  19.626  0.00  0.00    +0.000 A 
ATOM      7  C   UNL     1       2.925   5.334  20.017  0.00  0.00    +0.000 A 
ATOM      8  N   UNL     1       2.193   6.194  20.732  0.00  0.00    +0.000 N 
ATOM      9  N   UNL     1       4.158   5.644  19.606  0.00  0.00    +0.000 NA
ATOM     10  N   UNL     1       4.568   4.529  18.952  0.00  0.00    +0.000 N 
ATOM     11  H   UNL     1       1.218   6.055  20.967  0.00  0.00    +0.000 HD
ATOM     12  H   UNL     1       2.557   7.123  20.901  0.00  0.00    +0.000 HD
ENDROOT
BRANCH  10  13
ATOM     13  C1* UNL     1       5.885   4.464  18.340  0.00  0.00    +0.000 C 
ATOM     14  O4* UNL     1       6.681   5.594  18.789  0.00  0.00    +0.000 OA
ATOM     15  C4* UNL     1       7.343   6.177  17.641  0.00  0.00    +0.000 C 
ATOM     16  C3* UNL     1       7.181   5.179  16.501  0.00  0.00    +0.000 C 
ATOM     17  C2* UNL     1       5.854   4.505  16.812  0.00  0.00    +0.000 C 
BRANCH  16  18
ATOM     18  O3* UNL     1       8.208   4.169  16.528  0.00  0.00    +0.000 OA
ATOM     19  H3* UNL     1       8.341   3.876  17.450  0.00  0.00    +0.000 HD
ENDBRANCH  16  18
BRANCH  17  20
ATOM     20  O2* UNL     1       5.788   3.209  16.210  0.00  0.00    +0.000 OA
ATOM     21  H2* UNL     1       4.869   2.894  16.340  0.00  0.00    +0.000 HD
ENDBRANCH  17  20
BRANCH  15  22
ATOM     22  C5* UNL     1       6.725   7.542  17.333  0.00  0.00    +0.000 C 
BRANCH  22  23
ATOM     23  O5* UNL     1       7.736   8.547  17.364  0.00  0.00    +0.000 OA
ATOM     24  H5* UNL     1       8.229   8.404  18.196  0.00  0.00    +0.000 HD
ENDBRANCH  22  23
ENDBRANCH  15  22
ENDBRANCH  10  13
BRANCH   1  25
ATOM     25  N   UNL     1       0.226   3.482  20.358  0.00  0.00    +0.000 N 
ATOM     26  H   UNL     1      -0.384   2.672  20.354  0.00  0.00    +0.000 HD
ATOM     27  H   UNL     1       0.318   3.954  21.246  0.00  0.00    +0.000 HD
ENDBRANCH   1  25
TORSDOF 6
ENDMDL
MODEL 9
REMARK VINA RESULT:      -7.1      3.115      5.736
REMARK  Name = 
REMARK  6 active torsions:
REMARK  status: ('A' for Active; 'I' for Inactive)
REMARK    1  A    between atoms: N_1  and  C_2
REMARK    2  A    between atoms: N_11  and  C1*_12
REMARK    3  A    between atoms: C4*_14  and  C5*_15
REMARK    4  A    between atoms: C5*_15  and  O5*_16
REMARK    5  A    between atoms: C3*_17  and  O3*_18
REMARK    6  A    between atoms: C2*_19  and  O2*_20
REMARK                            x       y       z     vdW  Elec       q    Type
REMARK                         _______ _______ _______ _____ _____    ______ ____
ROOT
ATOM      1  C   UNL     1       6.899   7.048  17.426  0.00  0.00    +0.000 A 
ATOM      2  N   UNL     1       6.178   7.496  16.373  0.00  0.00    +0.000 NA
ATOM      3  C   UNL     1       5.009   6.894  16.081  0.00  0.00    +0.000 A 
ATOM      4  N   UNL     1       4.431   5.865  16.722  0.00  0.00    +0.000 NA
ATOM      5  C   UNL     1       5.176   5.451  17.763  0.00  0.00    +0.000 A 
ATOM      6  C   UNL     1       6.386   5.982  18.182  0.00  0.00    +0.000 A 
ATOM      7  C   UNL     1       6.723   5.216  19.331  0.00  0.00    +0.000 A 
ATOM      8  N   UNL     1       7.799   5.391  20.106  0.00  0.00    +0.000 N 
ATOM      9  N   UNL     1       5.819   4.270  19.599  0.00  0.00    +0.000 NA
ATOM     10  N   UNL     1       4.891   4.427  18.624  0.00  0.00    +0.000 N 
ATOM     11  H   UNL     1       8.566   6.012  19.882  0.00  0.00    +0.000 HD
ATOM     12  H   UNL     1       7.963   4.744  20.867  0.00  0.00    +0.000 HD
ENDROOT
BRANCH  10  13
ATOM     13  C1* UNL     1       3.721   3.566  18.561  0.00  0.00    +0.000 C 
ATOM     14  O4* UNL     1       2.555   4.303  19.020  0.00  0.00    +0.000 OA
ATOM     15  C4* UNL     1       1.810   3.464  19.936  0.00  0.00    +0.000 C 
ATOM     16  C3* UNL     1       2.382   2.060  19.792  0.00  0.00    +0.000 C 
ATOM     17  C2* UNL     1       3.837   2.310  19.426  0.00  0.00    +0.000 C 
BRANCH  16  18
ATOM     18  O3* UNL     1       1.767   1.345  18.702  0.00  0.00    +0.000 OA
ATOM     19  H3* UNL     1       1.209   0.631  19.065  0.00  0.00    +0.000 HD
ENDBRANCH  16  18
BRANCH  17  20
ATOM     20  O2* UNL     1       4.386   1.189  18.728  0.00  0.00    +0.000 OA
ATOM     21  H2* UNL     1       3.689   0.499  18.727  0.00  0.00    +0.000 HD
ENDBRANCH  17  20
BRANCH  15  22
ATOM     22  C5* UNL     1       1.937   4.020  21.355  0.00  0.00    +0.000 C 
BRANCH  22  23
ATOM     23  O5* UNL     1       1.984   2.945  22.291  0.00  0.00    +0.000 OA
ATOM     24  H5* UNL     1       2.922   2.863  22.556  0.00  0.00    +0.000 HD
ENDBRANCH  22  23
ENDBRANCH  15  22
ENDBRANCH  10  13
BRANCH   1  25
ATOM     25  N   UNL     1       8.095   7.705  17.672  0.00  0.00    +0.000 N 
ATOM     26  H   UNL     1       7.969   8.704  17.549  0.00  0.00    +0.000 HD
ATOM     27  H   UNL     1       8.567   7.427  18.521  0.00  0.00    +0.000 HD
ENDBRANCH   1  25
TORSDOF 6
ENDMDL
