MODEL 1
REMARK VINA RESULT:      -7.6      0.000      0.000
REMARK  Name = 
REMARK  7 active torsions:
REMARK  status: ('A' for Active; 'I' for Inactive)
REMARK    1  A    between atoms: C_1  and  O_2
REMARK    2  A    between atoms: O_2  and  C_3
REMARK    3  A    between atoms: C_7  and  C_8
REMARK    4  A    between atoms: C_8  and  S_9
REMARK    5  A    between atoms: S_9  and  C_11
REMARK    6  A    between atoms: C_22  and  O_23
REMARK    7  A    between atoms: O_23  and  C_24
REMARK                            x       y       z     vdW  Elec       q    Type
REMARK                         _______ _______ _______ _____ _____    ______ ____
ROOT
ATOM      1  S   UNL     1       6.229   6.099  17.948  0.00  0.00    +0.000 S 
ATOM      2  O   UNL     1       7.713   6.420  18.367  0.00  0.00    +0.000 OA
ENDROOT
BRANCH   1   3
ATOM      3  C   UNL     1       6.341   5.502  16.320  0.00  0.00    +0.000 A 
ATOM      4  N   UNL     1       7.334   5.654  15.469  0.00  0.00    +0.000 NA
ATOM      5  C   UNL     1       6.962   4.947  14.346  0.00  0.00    +0.000 A 
ATOM      6  C   UNL     1       7.643   4.767  13.131  0.00  0.00    +0.000 A 
ATOM      7  C   UNL     1       7.032   3.983  12.150  0.00  0.00    +0.000 A 
ATOM      8  F   UNL     1       7.661   3.802  10.978  0.00  0.00    +0.000 F 
ATOM      9  C   UNL     1       5.792   3.384  12.362  0.00  0.00    +0.000 A 
ATOM     10  F   UNL     1       5.240   2.632  11.399  0.00  0.00    +0.000 F 
ATOM     11  C   UNL     1       5.100   3.548  13.562  0.00  0.00    +0.000 A 
ATOM     12  C   UNL     1       5.721   4.344  14.526  0.00  0.00    +0.000 A 
ATOM     13  N   UNL     1       5.342   4.732  15.784  0.00  0.00    +0.000 N 
ATOM     14  H   UNL     1       4.480   4.508  16.263  0.00  0.00    +0.000 HD
ENDBRANCH   1   3
BRANCH   1  15
ATOM     15  C   UNL     1       5.624   4.630  18.815  0.00  0.00    +0.000 C 
BRANCH  15  20
ATOM     16  C   UNL     1       2.106   3.973  20.100  0.00  0.00    +0.000 A 
ATOM     17  C   UNL     1       1.666   5.296  20.195  0.00  0.00    +0.000 A 
ATOM     18  C   UNL     1       2.535   6.315  19.861  0.00  0.00    +0.000 A 
ATOM     19  N   UNL     1       3.791   6.109  19.431  0.00  0.00    +0.000 NA
ATOM     20  C   UNL     1       4.218   4.816  19.332  0.00  0.00    +0.000 A 
ATOM     21  C   UNL     1       3.427   3.714  19.698  0.00  0.00    +0.000 A 
BRANCH  16  23
ATOM     22  C   UNL     1       1.396   2.489  21.805  0.00  0.00    +0.000 C 
ATOM     23  O   UNL     1       1.291   2.927  20.451  0.00  0.00    +0.000 OA
ENDBRANCH  16  23
BRANCH  21  24
ATOM     24  O   UNL     1       4.063   2.504  19.638  0.00  0.00    +0.000 OA
ATOM     25  C   UNL     1       3.697   1.574  18.632  0.00  0.00    +0.000 C 
ENDBRANCH  21  24
ENDBRANCH  15  20
ENDBRANCH   1  15
TORSDOF 5
ENDMDL
MODEL 2
REMARK VINA RESULT:      -7.4      0.852      1.680
REMARK  Name = 
REMARK  7 active torsions:
REMARK  status: ('A' for Active; 'I' for Inactive)
REMARK    1  A    between atoms: C_1  and  O_2
REMARK    2  A    between atoms: O_2  and  C_3
REMARK    3  A    between atoms: C_7  and  C_8
REMARK    4  A    between atoms: C_8  and  S_9
REMARK    5  A    between atoms: S_9  and  C_11
REMARK    6  A    between atoms: C_22  and  O_23
REMARK    7  A    between atoms: O_23  and  C_24
REMARK                            x       y       z     vdW  Elec       q    Type
REMARK                         _______ _______ _______ _____ _____    ______ ____
ROOT
ATOM      1  S   UNL     1       6.358   6.471  17.941  0.00  0.00    +0.000 S 
ATOM      2  O   UNL     1       7.852   6.939  18.112  0.00  0.00    +0.000 OA
ENDROOT
BRANCH   1   3
ATOM      3  C   UNL     1       6.320   5.630  16.422  0.00  0.00    +0.000 A 
ATOM      4  N   UNL     1       5.362   4.864  15.944  0.00  0.00    +0.000 NA
ATOM      5  C   UNL     1       5.788   4.487  14.689  0.00  0.00    +0.000 A 
ATOM      6  C   UNL     1       5.160   3.671  13.733  0.00  0.00    +0.000 A 
ATOM      7  C   UNL     1       5.820   3.458  12.522  0.00  0.00    +0.000 A 
ATOM      8  F   UNL     1       5.242   2.676  11.596  0.00  0.00    +0.000 F 
ATOM      9  C   UNL     1       7.058   4.038  12.253  0.00  0.00    +0.000 A 
ATOM     10  F   UNL     1       7.658   3.816  11.074  0.00  0.00    +0.000 F 
ATOM     11  C   UNL     1       7.697   4.854  13.187  0.00  0.00    +0.000 A 
ATOM     12  C   UNL     1       7.028   5.046  14.396  0.00  0.00    +0.000 A 
ATOM     13  N   UNL     1       7.350   5.752  15.525  0.00  0.00    +0.000 N 
ATOM     14  H   UNL     1       8.194   6.280  15.700  0.00  0.00    +0.000 HD
ENDBRANCH   1   3
BRANCH   1  15
ATOM     15  C   UNL     1       5.975   5.126  19.091  0.00  0.00    +0.000 C 
BRANCH  15  20
ATOM     16  C   UNL     1       2.504   3.651  19.576  0.00  0.00    +0.000 A 
ATOM     17  C   UNL     1       1.777   4.844  19.644  0.00  0.00    +0.000 A 
ATOM     18  C   UNL     1       2.451   6.044  19.551  0.00  0.00    +0.000 A 
ATOM     19  N   UNL     1       3.781   6.138  19.383  0.00  0.00    +0.000 NA
ATOM     20  C   UNL     1       4.490   4.974  19.311  0.00  0.00    +0.000 A 
ATOM     21  C   UNL     1       3.902   3.705  19.446  0.00  0.00    +0.000 A 
BRANCH  16  23
ATOM     22  C   UNL     1       0.753   2.231  18.849  0.00  0.00    +0.000 C 
ATOM     23  O   UNL     1       1.884   2.433  19.696  0.00  0.00    +0.000 OA
ENDBRANCH  16  23
BRANCH  21  24
ATOM     24  O   UNL     1       4.785   2.660  19.460  0.00  0.00    +0.000 OA
ATOM     25  C   UNL     1       4.848   1.817  20.599  0.00  0.00    +0.000 C 
ENDBRANCH  21  24
ENDBRANCH  15  20
ENDBRANCH   1  15
TORSDOF 5
ENDMDL
MODEL 3
REMARK VINA RESULT:      -7.4      1.012      1.019
REMARK  Name = 
REMARK  7 active torsions:
REMARK  status: ('A' for Active; 'I' for Inactive)
REMARK    1  A    between atoms: C_1  and  O_2
REMARK    2  A    between atoms: O_2  and  C_3
REMARK    3  A    between atoms: C_7  and  C_8
REMARK    4  A    between atoms: C_8  and  S_9
REMARK    5  A    between atoms: S_9  and  C_11
REMARK    6  A    between atoms: C_22  and  O_23
REMARK    7  A    between atoms: O_23  and  C_24
REMARK                            x       y       z     vdW  Elec       q    Type
REMARK                         _______ _______ _______ _____ _____    ______ ____
ROOT
ATOM      1  S   UNL     1       6.261   6.212  17.842  0.00  0.00    +0.000 S 
ATOM      2  O   UNL     1       7.745   6.556  18.242  0.00  0.00    +0.000 OA
ENDROOT
BRANCH   1   3
ATOM      3  C   UNL     1       6.366   5.573  16.230  0.00  0.00    +0.000 A 
ATOM      4  N   UNL     1       7.359   5.693  15.375  0.00  0.00    +0.000 NA
ATOM      5  C   UNL     1       6.980   4.961  14.270  0.00  0.00    +0.000 A 
ATOM      6  C   UNL     1       7.658   4.744  13.060  0.00  0.00    +0.000 A 
ATOM      7  C   UNL     1       7.039   3.941  12.099  0.00  0.00    +0.000 A 
ATOM      8  F   UNL     1       7.665   3.725  10.933  0.00  0.00    +0.000 F 
ATOM      9  C   UNL     1       5.793   3.361  12.327  0.00  0.00    +0.000 A 
ATOM     10  F   UNL     1       5.233   2.589  11.384  0.00  0.00    +0.000 F 
ATOM     11  C   UNL     1       5.104   3.562  13.524  0.00  0.00    +0.000 A 
ATOM     12  C   UNL     1       5.732   4.376  14.466  0.00  0.00    +0.000 A 
ATOM     13  N   UNL     1       5.359   4.799  15.714  0.00  0.00    +0.000 N 
ATOM     14  H   UNL     1       4.495   4.596  16.199  0.00  0.00    +0.000 HD
ENDBRANCH   1   3
BRANCH   1  15
ATOM     15  C   UNL     1       5.674   4.762  18.753  0.00  0.00    +0.000 C 
BRANCH  15  20
ATOM     16  C   UNL     1       1.948   4.021  18.604  0.00  0.00    +0.000 A 
ATOM     17  C   UNL     1       1.497   5.039  19.449  0.00  0.00    +0.000 A 
ATOM     18  C   UNL     1       2.421   5.884  20.030  0.00  0.00    +0.000 A 
ATOM     19  N   UNL     1       3.744   5.795  19.818  0.00  0.00    +0.000 NA
ATOM     20  C   UNL     1       4.183   4.805  18.988  0.00  0.00    +0.000 A 
ATOM     21  C   UNL     1       3.327   3.865  18.390  0.00  0.00    +0.000 A 
BRANCH  16  23
ATOM     22  C   UNL     1       0.519   2.155  18.905  0.00  0.00    +0.000 C 
ATOM     23  O   UNL     1       1.071   3.136  18.028  0.00  0.00    +0.000 OA
ENDBRANCH  16  23
BRANCH  21  24
ATOM     24  O   UNL     1       3.959   2.879  17.682  0.00  0.00    +0.000 OA
ATOM     25  C   UNL     1       3.951   1.551  18.178  0.00  0.00    +0.000 C 
ENDBRANCH  21  24
ENDBRANCH  15  20
ENDBRANCH   1  15
TORSDOF 5
ENDMDL
MODEL 4
REMARK VINA RESULT:      -7.1      4.118      7.236
REMARK  Name = 
REMARK  7 active torsions:
REMARK  status: ('A' for Active; 'I' for Inactive)
REMARK    1  A    between atoms: C_1  and  O_2
REMARK    2  A    between atoms: O_2  and  C_3
REMARK    3  A    between atoms: C_7  and  C_8
REMARK    4  A    between atoms: C_8  and  S_9
REMARK    5  A    between atoms: S_9  and  C_11
REMARK    6  A    between atoms: C_22  and  O_23
REMARK    7  A    between atoms: O_23  and  C_24
REMARK                            x       y       z     vdW  Elec       q    Type
REMARK                         _______ _______ _______ _____ _____    ______ ____
ROOT
ATOM      1  S   UNL     1       3.521   3.415  18.695  0.00  0.00    +0.000 S 
ATOM      2  O   UNL     1       4.199   3.021  20.061  0.00  0.00    +0.000 OA
ENDROOT
BRANCH   1   3
ATOM      3  C   UNL     1       2.888   5.013  18.953  0.00  0.00    +0.000 A 
ATOM      4  N   UNL     1       2.469   5.545  20.082  0.00  0.00    +0.000 NA
ATOM      5  C   UNL     1       2.125   6.842  19.768  0.00  0.00    +0.000 A 
ATOM      6  C   UNL     1       1.618   7.861  20.590  0.00  0.00    +0.000 A 
ATOM      7  C   UNL     1       1.360   9.104  20.007  0.00  0.00    +0.000 A 
ATOM      8  F   UNL     1       0.869  10.091  20.771  0.00  0.00    +0.000 F 
ATOM      9  C   UNL     1       1.604   9.339  18.655  0.00  0.00    +0.000 A 
ATOM     10  F   UNL     1       1.352  10.548  18.132  0.00  0.00    +0.000 F 
ATOM     11  C   UNL     1       2.111   8.341  17.822  0.00  0.00    +0.000 A 
ATOM     12  C   UNL     1       2.350   7.103  18.420  0.00  0.00    +0.000 A 
ATOM     13  N   UNL     1       2.817   5.915  17.924  0.00  0.00    +0.000 N 
ATOM     14  H   UNL     1       3.072   5.706  16.968  0.00  0.00    +0.000 HD
ENDBRANCH   1   3
BRANCH   1  15
ATOM     15  C   UNL     1       4.775   3.740  17.430  0.00  0.00    +0.000 C 
BRANCH  15  20
ATOM     16  C   UNL     1       7.217   6.648  17.626  0.00  0.00    +0.000 A 
ATOM     17  C   UNL     1       7.787   6.361  18.870  0.00  0.00    +0.000 A 
ATOM     18  C   UNL     1       7.334   5.264  19.575  0.00  0.00    +0.000 A 
ATOM     19  N   UNL     1       6.376   4.436  19.126  0.00  0.00    +0.000 NA
ATOM     20  C   UNL     1       5.825   4.713  17.909  0.00  0.00    +0.000 A 
ATOM     21  C   UNL     1       6.181   5.834  17.139  0.00  0.00    +0.000 A 
BRANCH  16  23
ATOM     22  C   UNL     1       7.946   8.902  17.665  0.00  0.00    +0.000 C 
ATOM     23  O   UNL     1       7.610   7.745  16.901  0.00  0.00    +0.000 OA
ENDBRANCH  16  23
BRANCH  21  24
ATOM     24  O   UNL     1       5.441   6.009  16.002  0.00  0.00    +0.000 OA
ATOM     25  C   UNL     1       5.882   5.424  14.788  0.00  0.00    +0.000 C 
ENDBRANCH  21  24
ENDBRANCH  15  20
ENDBRANCH   1  15
TORSDOF 5
ENDMDL
MODEL 5
REMARK VINA RESULT:      -7.1      4.164      7.275
REMARK  Name = 
REMARK  7 active torsions:
REMARK  status: ('A' for Active; 'I' for Inactive)
REMARK    1  A    between atoms: C_1  and  O_2
REMARK    2  A    between atoms: O_2  and  C_3
REMARK    3  A    between atoms: C_7  and  C_8
REMARK    4  A    between atoms: C_8  and  S_9
REMARK    5  A    between atoms: S_9  and  C_11
REMARK    6  A    between atoms: C_22  and  O_23
REMARK    7  A    between atoms: O_23  and  C_24
REMARK                            x       y       z     vdW  Elec       q    Type
REMARK                         _______ _______ _______ _____ _____    ______ ____
ROOT
ATOM      1  S   UNL     1       3.720   3.539  18.470  0.00  0.00    +0.000 S 
ATOM      2  O   UNL     1       4.268   3.122  19.886  0.00  0.00    +0.000 OA
ENDROOT
BRANCH   1   3
ATOM      3  C   UNL     1       3.114   5.154  18.680  0.00  0.00    +0.000 A 
ATOM      4  N   UNL     1       2.913   6.069  17.756  0.00  0.00    +0.000 NA
ATOM      5  C   UNL     1       2.373   7.148  18.423  0.00  0.00    +0.000 A 
ATOM      6  C   UNL     1       1.965   8.398  17.928  0.00  0.00    +0.000 A 
ATOM      7  C   UNL     1       1.435   9.318  18.835  0.00  0.00    +0.000 A 
ATOM      8  F   UNL     1       1.045  10.521  18.388  0.00  0.00    +0.000 F 
ATOM      9  C   UNL     1       1.301   9.013  20.189  0.00  0.00    +0.000 A 
ATOM     10  F   UNL     1       0.780   9.919  21.029  0.00  0.00    +0.000 F 
ATOM     11  C   UNL     1       1.696   7.776  20.699  0.00  0.00    +0.000 A 
ATOM     12  C   UNL     1       2.234   6.875  19.780  0.00  0.00    +0.000 A 
ATOM     13  N   UNL     1       2.733   5.607  19.917  0.00  0.00    +0.000 N 
ATOM     14  H   UNL     1       2.821   5.069  20.769  0.00  0.00    +0.000 HD
ENDBRANCH   1   3
BRANCH   1  15
ATOM     15  C   UNL     1       5.085   3.828  17.317  0.00  0.00    +0.000 C 
BRANCH  15  20
ATOM     16  C   UNL     1       7.452   6.785  17.644  0.00  0.00    +0.000 A 
ATOM     17  C   UNL     1       7.938   6.525  18.929  0.00  0.00    +0.000 A 
ATOM     18  C   UNL     1       7.457   5.428  19.615  0.00  0.00    +0.000 A 
ATOM     19  N   UNL     1       6.549   4.576  19.111  0.00  0.00    +0.000 NA
ATOM     20  C   UNL     1       6.079   4.827  17.855  0.00  0.00    +0.000 A 
ATOM     21  C   UNL     1       6.468   5.945  17.097  0.00  0.00    +0.000 A 
BRANCH  16  23
ATOM     22  C   UNL     1       8.057   9.075  17.692  0.00  0.00    +0.000 C 
ATOM     23  O   UNL     1       7.875   7.881  16.933  0.00  0.00    +0.000 OA
ENDBRANCH  16  23
BRANCH  21  24
ATOM     24  O   UNL     1       5.807   6.092  15.908  0.00  0.00    +0.000 OA
ATOM     25  C   UNL     1       6.312   5.452  14.747  0.00  0.00    +0.000 C 
ENDBRANCH  21  24
ENDBRANCH  15  20
ENDBRANCH   1  15
TORSDOF 5
ENDMDL
MODEL 6
REMARK VINA RESULT:      -7.1      5.241      8.837
REMARK  Name = 
REMARK  7 active torsions:
REMARK  status: ('A' for Active; 'I' for Inactive)
REMARK    1  A    between atoms: C_1  and  O_2
REMARK    2  A    between atoms: O_2  and  C_3
REMARK    3  A    between atoms: C_7  and  C_8
REMARK    4  A    between atoms: C_8  and  S_9
REMARK    5  A    between atoms: S_9  and  C_11
REMARK    6  A    between atoms: C_22  and  O_23
REMARK    7  A    between atoms: O_23  and  C_24
REMARK                            x       y       z     vdW  Elec       q    Type
REMARK                         _______ _______ _______ _____ _____    ______ ____
ROOT
ATOM      1  S   UNL     1       2.883   5.952  18.873  0.00  0.00    +0.000 S 
ATOM      2  O   UNL     1       3.487   5.165  20.096  0.00  0.00    +0.000 OA
ENDROOT
BRANCH   1   3
ATOM      3  C   UNL     1       2.117   7.348  19.570  0.00  0.00    +0.000 A 
ATOM      4  N   UNL     1       1.771   8.466  18.968  0.00  0.00    +0.000 NA
ATOM      5  C   UNL     1       1.152   9.225  19.938  0.00  0.00    +0.000 A 
ATOM      6  C   UNL     1       0.586  10.508  19.851  0.00  0.00    +0.000 A 
ATOM      7  C   UNL     1       0.007  11.046  21.002  0.00  0.00    +0.000 A 
ATOM      8  F   UNL     1      -0.533  12.273  20.944  0.00  0.00    +0.000 F 
ATOM      9  C   UNL     1      -0.024  10.339  22.202  0.00  0.00    +0.000 A 
ATOM     10  F   UNL     1      -0.596  10.886  23.285  0.00  0.00    +0.000 F 
ATOM     11  C   UNL     1       0.529   9.062  22.309  0.00  0.00    +0.000 A 
ATOM     12  C   UNL     1       1.114   8.546  21.152  0.00  0.00    +0.000 A 
ATOM     13  N   UNL     1       1.753   7.363  20.892  0.00  0.00    +0.000 N 
ATOM     14  H   UNL     1       1.942   6.611  21.541  0.00  0.00    +0.000 HD
ENDBRANCH   1   3
BRANCH   1  15
ATOM     15  C   UNL     1       4.198   6.728  17.901  0.00  0.00    +0.000 C 
BRANCH  15  20
ATOM     16  C   UNL     1       6.630   5.124  15.458  0.00  0.00    +0.000 A 
ATOM     17  C   UNL     1       6.032   3.863  15.364  0.00  0.00    +0.000 A 
ATOM     18  C   UNL     1       4.899   3.604  16.108  0.00  0.00    +0.000 A 
ATOM     19  N   UNL     1       4.320   4.505  16.918  0.00  0.00    +0.000 NA
ATOM     20  C   UNL     1       4.900   5.738  17.004  0.00  0.00    +0.000 A 
ATOM     21  C   UNL     1       6.082   6.082  16.327  0.00  0.00    +0.000 A 
BRANCH  16  23
ATOM     22  C   UNL     1       7.716   5.201  13.354  0.00  0.00    +0.000 C 
ATOM     23  O   UNL     1       7.775   5.421  14.762  0.00  0.00    +0.000 OA
ENDBRANCH  16  23
BRANCH  21  24
ATOM     24  O   UNL     1       6.575   7.323  16.624  0.00  0.00    +0.000 OA
ATOM     25  C   UNL     1       7.601   7.450  17.594  0.00  0.00    +0.000 C 
ENDBRANCH  21  24
ENDBRANCH  15  20
ENDBRANCH   1  15
TORSDOF 5
ENDMDL
MODEL 7
REMARK VINA RESULT:      -7.0      1.104      1.267
REMARK  Name = 
REMARK  7 active torsions:
REMARK  status: ('A' for Active; 'I' for Inactive)
REMARK    1  A    between atoms: C_1  and  O_2
REMARK    2  A    between atoms: O_2  and  C_3
REMARK    3  A    between atoms: C_7  and  C_8
REMARK    4  A    between atoms: C_8  and  S_9
REMARK    5  A    between atoms: S_9  and  C_11
REMARK    6  A    between atoms: C_22  and  O_23
REMARK    7  A    between atoms: O_23  and  C_24
REMARK                            x       y       z     vdW  Elec       q    Type
REMARK                         _______ _______ _______ _____ _____    ______ ____
ROOT
ATOM      1  S   UNL     1       6.832   5.475  18.578  0.00  0.00    +0.000 S 
ATOM      2  O   UNL     1       8.294   5.099  19.024  0.00  0.00    +0.000 OA
ENDROOT
BRANCH   1   3
ATOM      3  C   UNL     1       6.788   5.162  16.870  0.00  0.00    +0.000 A 
ATOM      4  N   UNL     1       7.563   5.669  15.934  0.00  0.00    +0.000 NA
ATOM      5  C   UNL     1       7.164   5.062  14.763  0.00  0.00    +0.000 A 
ATOM      6  C   UNL     1       7.649   5.227  13.455  0.00  0.00    +0.000 A 
ATOM      7  C   UNL     1       7.062   4.468  12.440  0.00  0.00    +0.000 A 
ATOM      8  F   UNL     1       7.503   4.614  11.181  0.00  0.00    +0.000 F 
ATOM      9  C   UNL     1       6.034   3.565  12.706  0.00  0.00    +0.000 A 
ATOM     10  F   UNL     1       5.500   2.848  11.706  0.00  0.00    +0.000 F 
ATOM     11  C   UNL     1       5.541   3.384  13.998  0.00  0.00    +0.000 A 
ATOM     12  C   UNL     1       6.131   4.159  14.996  0.00  0.00    +0.000 A 
ATOM     13  N   UNL     1       5.900   4.259  16.343  0.00  0.00    +0.000 N 
ATOM     14  H   UNL     1       5.202   3.769  16.885  0.00  0.00    +0.000 HD
ENDBRANCH   1   3
BRANCH   1  15
ATOM     15  C   UNL     1       5.645   4.249  19.185  0.00  0.00    +0.000 C 
BRANCH  15  20
ATOM     16  C   UNL     1       1.845   4.342  19.088  0.00  0.00    +0.000 A 
ATOM     17  C   UNL     1       1.681   5.601  18.502  0.00  0.00    +0.000 A 
ATOM     18  C   UNL     1       2.801   6.347  18.196  0.00  0.00    +0.000 A 
ATOM     19  N   UNL     1       4.057   5.926  18.417  0.00  0.00    +0.000 NA
ATOM     20  C   UNL     1       4.217   4.695  18.984  0.00  0.00    +0.000 A 
ATOM     21  C   UNL     1       3.141   3.882  19.378  0.00  0.00    +0.000 A 
BRANCH  16  23
ATOM     22  C   UNL     1       0.585   2.376  18.688  0.00  0.00    +0.000 C 
ATOM     23  O   UNL     1       0.763   3.575  19.440  0.00  0.00    +0.000 OA
ENDBRANCH  16  23
BRANCH  21  24
ATOM     24  O   UNL     1       3.495   2.733  20.031  0.00  0.00    +0.000 OA
ATOM     25  C   UNL     1       3.100   2.549  21.380  0.00  0.00    +0.000 C 
ENDBRANCH  21  24
ENDBRANCH  15  20
ENDBRANCH   1  15
TORSDOF 5
ENDMDL
MODEL 8
REMARK VINA RESULT:      -7.0      1.418      2.089
REMARK  Name = 
REMARK  7 active torsions:
REMARK  status: ('A' for Active; 'I' for Inactive)
REMARK    1  A    between atoms: C_1  and  O_2
REMARK    2  A    between atoms: O_2  and  C_3
REMARK    3  A    between atoms: C_7  and  C_8
REMARK    4  A    between atoms: C_8  and  S_9
REMARK    5  A    between atoms: S_9  and  C_11
REMARK    6  A    between atoms: C_22  and  O_23
REMARK    7  A    between atoms: O_23  and  C_24
REMARK                            x       y       z     vdW  Elec       q    Type
REMARK                         _______ _______ _______ _____ _____    ______ ____
ROOT
ATOM      1  S   UNL     1       5.875   5.871  17.922  0.00  0.00    +0.000 S 
ATOM      2  O   UNL     1       6.090   4.576  18.791  0.00  0.00    +0.000 OA
ENDROOT
BRANCH   1   3
ATOM      3  C   UNL     1       6.131   5.359  16.281  0.00  0.00    +0.000 A 
ATOM      4  N   UNL     1       7.097   5.722  15.462  0.00  0.00    +0.000 NA
ATOM      5  C   UNL     1       6.887   4.995  14.309  0.00  0.00    +0.000 A 
ATOM      6  C   UNL     1       7.616   4.986  13.109  0.00  0.00    +0.000 A 
ATOM      7  C   UNL     1       7.183   4.135  12.089  0.00  0.00    +0.000 A 
ATOM      8  F   UNL     1       7.860   4.114  10.931  0.00  0.00    +0.000 F 
ATOM      9  C   UNL     1       6.072   3.310  12.250  0.00  0.00    +0.000 A 
ATOM     10  F   UNL     1       5.691   2.501  11.251  0.00  0.00    +0.000 F 
ATOM     11  C   UNL     1       5.336   3.303  13.435  0.00  0.00    +0.000 A 
ATOM     12  C   UNL     1       5.776   4.168  14.438  0.00  0.00    +0.000 A 
ATOM     13  N   UNL     1       5.305   4.436  15.695  0.00  0.00    +0.000 N 
ATOM     14  H   UNL     1       4.490   4.040  16.144  0.00  0.00    +0.000 HD
ENDBRANCH   1   3
BRANCH   1  15
ATOM     15  C   UNL     1       4.123   6.324  17.873  0.00  0.00    +0.000 C 
BRANCH  15  20
ATOM     16  C   UNL     1       1.888   4.022  19.913  0.00  0.00    +0.000 A 
ATOM     17  C   UNL     1       1.685   3.024  18.955  0.00  0.00    +0.000 A 
ATOM     18  C   UNL     1       2.261   3.166  17.709  0.00  0.00    +0.000 A 
ATOM     19  N   UNL     1       3.027   4.213  17.360  0.00  0.00    +0.000 NA
ATOM     20  C   UNL     1       3.231   5.184  18.297  0.00  0.00    +0.000 A 
ATOM     21  C   UNL     1       2.646   5.155  19.575  0.00  0.00    +0.000 A 
BRANCH  16  23
ATOM     22  C   UNL     1       1.302   2.645  21.750  0.00  0.00    +0.000 C 
ATOM     23  O   UNL     1       1.311   3.942  21.155  0.00  0.00    +0.000 OA
ENDBRANCH  16  23
BRANCH  21  24
ATOM     24  O   UNL     1       2.872   6.270  20.336  0.00  0.00    +0.000 OA
ATOM     25  C   UNL     1       1.872   7.271  20.418  0.00  0.00    +0.000 C 
ENDBRANCH  21  24
ENDBRANCH  15  20
ENDBRANCH   1  15
TORSDOF 5
ENDMDL
MODEL 9
REMARK VINA RESULT:      -6.9      4.309      7.841
REMARK  Name = 
REMARK  7 active torsions:
REMARK  status: ('A' for Active; 'I' for Inactive)
REMARK    1  A    between atoms: C_1  and  O_2
REMARK    2  A    between atoms: O_2  and  C_3
REMARK    3  A    between atoms: C_7  and  C_8
REMARK    4  A    between atoms: C_8  and  S_9
REMARK    5  A    between atoms: S_9  and  C_11
REMARK    6  A    between atoms: C_22  and  O_23
REMARK    7  A    between atoms: O_23  and  C_24
REMARK                            x       y       z     vdW  Elec       q    Type
REMARK                         _______ _______ _______ _____ _____    ______ ____
ROOT
ATOM      1  S   UNL     1       3.622   4.554  19.070  0.00  0.00    +0.000 S 
ATOM      2  O   UNL     1       3.517   4.014  20.545  0.00  0.00    +0.000 OA
ENDROOT
BRANCH   1   3
ATOM      3  C   UNL     1       2.928   6.146  19.124  0.00  0.00    +0.000 A 
ATOM      4  N   UNL     1       2.786   7.001  18.132  0.00  0.00    +0.000 NA
ATOM      5  C   UNL     1       2.131   8.085  18.677  0.00  0.00    +0.000 A 
ATOM      6  C   UNL     1       1.724   9.286  18.073  0.00  0.00    +0.000 A 
ATOM      7  C   UNL     1       1.062  10.225  18.867  0.00  0.00    +0.000 A 
ATOM      8  F   UNL     1       0.670  11.382  18.313  0.00  0.00    +0.000 F 
ATOM      9  C   UNL     1       0.798   9.984  20.214  0.00  0.00    +0.000 A 
ATOM     10  F   UNL     1       0.152  10.907  20.943  0.00  0.00    +0.000 F 
ATOM     11  C   UNL     1       1.191   8.797  20.833  0.00  0.00    +0.000 A 
ATOM     12  C   UNL     1       1.862   7.877  20.027  0.00  0.00    +0.000 A 
ATOM     13  N   UNL     1       2.398   6.644  20.286  0.00  0.00    +0.000 N 
ATOM     14  H   UNL     1       2.419   6.156  21.172  0.00  0.00    +0.000 HD
ENDBRANCH   1   3
BRANCH   1  15
ATOM     15  C   UNL     1       5.340   4.940  18.651  0.00  0.00    +0.000 C 
BRANCH  15  20
ATOM     16  C   UNL     1       6.905   5.063  15.189  0.00  0.00    +0.000 A 
ATOM     17  C   UNL     1       6.023   4.202  14.528  0.00  0.00    +0.000 A 
ATOM     18  C   UNL     1       4.995   3.621  15.244  0.00  0.00    +0.000 A 
ATOM     19  N   UNL     1       4.781   3.846  16.551  0.00  0.00    +0.000 NA
ATOM     20  C   UNL     1       5.638   4.691  17.193  0.00  0.00    +0.000 A 
ATOM     21  C   UNL     1       6.743   5.291  16.565  0.00  0.00    +0.000 A 
BRANCH  16  23
ATOM     22  C   UNL     1       8.035   5.373  13.129  0.00  0.00    +0.000 C 
ATOM     23  O   UNL     1       7.960   5.641  14.528  0.00  0.00    +0.000 OA
ENDBRANCH  16  23
BRANCH  21  24
ATOM     24  O   UNL     1       7.553   6.016  17.395  0.00  0.00    +0.000 OA
ATOM     25  C   UNL     1       7.490   7.433  17.367  0.00  0.00    +0.000 C 
ENDBRANCH  21  24
ENDBRANCH  15  20
ENDBRANCH   1  15
TORSDOF 5
ENDMDL
