MODEL 1
REMARK VINA RESULT:      -6.3      0.000      0.000
REMARK  Name = 
REMARK  7 active torsions:
REMARK  status: ('A' for Active; 'I' for Inactive)
REMARK    1  A    between atoms: C_1  and  C_2
REMARK    2  A    between atoms: C_2  and  C_10
REMARK    3  A    between atoms: N_3  and  O_4
REMARK    4  A    between atoms: O_4  and  C_5
REMARK    5  A    between atoms: C_5  and  C_6
REMARK    6  A    between atoms: C_5  and  C_7
REMARK    7  A    between atoms: C_7  and  O_9
REMARK                            x       y       z     vdW  Elec       q    Type
REMARK                         _______ _______ _______ _____ _____    ______ ____
ROOT
ATOM      1  C   UNL     1       2.541   3.299  17.302  0.00  0.00    +0.000 C 
ATOM      2  C   UNL     1       3.421   4.488  17.654  0.00  0.00    +0.000 C 
ATOM      3  N   UNL     1       4.652   4.620  17.247  0.00  0.00    +0.000 NA
ENDROOT
BRANCH   2   4
ATOM      4  C   UNL     1       2.825   5.560  18.526  0.00  0.00    +0.000 A 
ATOM      5  C   UNL     1       2.288   5.270  19.788  0.00  0.00    +0.000 A 
ATOM      6  C   UNL     1       1.760   6.292  20.586  0.00  0.00    +0.000 A 
ATOM      7  C   UNL     1       1.767   7.607  20.128  0.00  0.00    +0.000 A 
ATOM      8 CL   UNL     1       1.129   8.860  21.116  0.00  0.00    +0.000 Cl
ATOM      9  C   UNL     1       2.292   7.909  18.875  0.00  0.00    +0.000 A 
ATOM     10  C   UNL     1       2.820   6.890  18.075  0.00  0.00    +0.000 A 
ENDBRANCH   2   4
BRANCH   3  11
ATOM     11  O   UNL     1       5.083   3.529  16.488  0.00  0.00    +0.000 OA
BRANCH  11  12
ATOM     12  C   UNL     1       6.202   3.909  15.676  0.00  0.00    +0.000 C 
ATOM     13  C   UNL     1       5.717   4.661  14.449  0.00  0.00    +0.000 C 
BRANCH  12  14
ATOM     14  C   UNL     1       7.088   4.793  16.549  0.00  0.00    +0.000 C 
ATOM     15  O   UNL     1       7.467   5.917  16.256  0.00  0.00    +0.000 OA
BRANCH  14  16
ATOM     16  O   UNL     1       7.477   4.180  17.699  0.00  0.00    +0.000 OA
ATOM     17  H   UNL     1       6.691   3.841  18.179  0.00  0.00    +0.000 HD
ENDBRANCH  14  16
ENDBRANCH  12  14
ENDBRANCH  11  12
ENDBRANCH   3  11
TORSDOF 5
ENDMDL
MODEL 2
REMARK VINA RESULT:      -6.3      3.905      5.947
REMARK  Name = 
REMARK  7 active torsions:
REMARK  status: ('A' for Active; 'I' for Inactive)
REMARK    1  A    between atoms: C_1  and  C_2
REMARK    2  A    between atoms: C_2  and  C_10
REMARK    3  A    between atoms: N_3  and  O_4
REMARK    4  A    between atoms: O_4  and  C_5
REMARK    5  A    between atoms: C_5  and  C_6
REMARK    6  A    between atoms: C_5  and  C_7
REMARK    7  A    between atoms: C_7  and  O_9
REMARK                            x       y       z     vdW  Elec       q    Type
REMARK                         _______ _______ _______ _____ _____    ______ ____
ROOT
ATOM      1  C   UNL     1       3.444   5.970  19.651  0.00  0.00    +0.000 C 
ATOM      2  C   UNL     1       3.113   5.092  18.455  0.00  0.00    +0.000 C 
ATOM      3  N   UNL     1       2.039   4.357  18.375  0.00  0.00    +0.000 NA
ENDROOT
BRANCH   2   4
ATOM      4  C   UNL     1       4.091   5.076  17.312  0.00  0.00    +0.000 A 
ATOM      5  C   UNL     1       4.539   6.260  16.708  0.00  0.00    +0.000 A 
ATOM      6  C   UNL     1       5.467   6.215  15.660  0.00  0.00    +0.000 A 
ATOM      7  C   UNL     1       5.951   4.989  15.213  0.00  0.00    +0.000 A 
ATOM      8 CL   UNL     1       7.099   4.939  13.934  0.00  0.00    +0.000 Cl
ATOM      9  C   UNL     1       5.512   3.805  15.799  0.00  0.00    +0.000 A 
ATOM     10  C   UNL     1       4.585   3.848  16.846  0.00  0.00    +0.000 A 
ENDBRANCH   2   4
BRANCH   3  11
ATOM     11  O   UNL     1       1.251   4.436  19.527  0.00  0.00    +0.000 OA
BRANCH  11  12
ATOM     12  C   UNL     1       0.847   3.122  19.933  0.00  0.00    +0.000 C 
ATOM     13  C   UNL     1       0.911   2.173  18.749  0.00  0.00    +0.000 C 
BRANCH  12  14
ATOM     14  C   UNL     1       1.813   2.695  21.034  0.00  0.00    +0.000 C 
ATOM     15  O   UNL     1       1.534   2.611  22.221  0.00  0.00    +0.000 OA
BRANCH  14  16
ATOM     16  O   UNL     1       3.070   2.459  20.573  0.00  0.00    +0.000 OA
ATOM     17  H   UNL     1       3.146   2.759  19.641  0.00  0.00    +0.000 HD
ENDBRANCH  14  16
ENDBRANCH  12  14
ENDBRANCH  11  12
ENDBRANCH   3  11
TORSDOF 5
ENDMDL
MODEL 3
REMARK VINA RESULT:      -6.3      2.139      2.807
REMARK  Name = 
REMARK  7 active torsions:
REMARK  status: ('A' for Active; 'I' for Inactive)
REMARK    1  A    between atoms: C_1  and  C_2
REMARK    2  A    between atoms: C_2  and  C_10
REMARK    3  A    between atoms: N_3  and  O_4
REMARK    4  A    between atoms: O_4  and  C_5
REMARK    5  A    between atoms: C_5  and  C_6
REMARK    6  A    between atoms: C_5  and  C_7
REMARK    7  A    between atoms: C_7  and  O_9
REMARK                            x       y       z     vdW  Elec       q    Type
REMARK                         _______ _______ _______ _____ _____    ______ ____
ROOT
ATOM      1  C   UNL     1       4.153   6.442  17.168  0.00  0.00    +0.000 C 
ATOM      2  C   UNL     1       4.083   4.925  17.239  0.00  0.00    +0.000 C 
ATOM      3  N   UNL     1       4.615   4.136  16.348  0.00  0.00    +0.000 NA
ENDROOT
BRANCH   2   4
ATOM      4  C   UNL     1       3.350   4.317  18.404  0.00  0.00    +0.000 A 
ATOM      5  C   UNL     1       3.179   2.930  18.525  0.00  0.00    +0.000 A 
ATOM      6  C   UNL     1       2.511   2.391  19.630  0.00  0.00    +0.000 A 
ATOM      7  C   UNL     1       2.014   3.234  20.621  0.00  0.00    +0.000 A 
ATOM      8 CL   UNL     1       1.206   2.567  21.984  0.00  0.00    +0.000 Cl
ATOM      9  C   UNL     1       2.173   4.613  20.513  0.00  0.00    +0.000 A 
ATOM     10  C   UNL     1       2.839   5.154  19.408  0.00  0.00    +0.000 A 
ENDBRANCH   2   4
BRANCH   3  11
ATOM     11  O   UNL     1       5.219   4.841  15.303  0.00  0.00    +0.000 OA
BRANCH  11  12
ATOM     12  C   UNL     1       6.564   4.380  15.116  0.00  0.00    +0.000 C 
ATOM     13  C   UNL     1       7.058   4.776  13.735  0.00  0.00    +0.000 C 
BRANCH  12  14
ATOM     14  C   UNL     1       7.401   5.036  16.210  0.00  0.00    +0.000 C 
ATOM     15  O   UNL     1       7.613   6.235  16.310  0.00  0.00    +0.000 OA
BRANCH  14  16
ATOM     16  O   UNL     1       7.954   4.135  17.065  0.00  0.00    +0.000 OA
ATOM     17  H   UNL     1       8.825   4.463  17.379  0.00  0.00    +0.000 HD
ENDBRANCH  14  16
ENDBRANCH  12  14
ENDBRANCH  11  12
ENDBRANCH   3  11
TORSDOF 5
ENDMDL
MODEL 4
REMARK VINA RESULT:      -6.3      3.835      5.810
REMARK  Name = 
REMARK  7 active torsions:
REMARK  status: ('A' for Active; 'I' for Inactive)
REMARK    1  A    between atoms: C_1  and  C_2
REMARK    2  A    between atoms: C_2  and  C_10
REMARK    3  A    between atoms: N_3  and  O_4
REMARK    4  A    between atoms: O_4  and  C_5
REMARK    5  A    between atoms: C_5  and  C_6
REMARK    6  A    between atoms: C_5  and  C_7
REMARK    7  A    between atoms: C_7  and  O_9
REMARK                            x       y       z     vdW  Elec       q    Type
REMARK                         _______ _______ _______ _____ _____    ______ ____
ROOT
ATOM      1  C   UNL     1       3.147   6.331  19.379  0.00  0.00    +0.000 C 
ATOM      2  C   UNL     1       3.036   5.199  18.371  0.00  0.00    +0.000 C 
ATOM      3  N   UNL     1       2.100   4.292  18.404  0.00  0.00    +0.000 NA
ENDROOT
BRANCH   2   4
ATOM      4  C   UNL     1       4.076   5.130  17.285  0.00  0.00    +0.000 A 
ATOM      5  C   UNL     1       4.548   3.906  16.793  0.00  0.00    +0.000 A 
ATOM      6  C   UNL     1       5.501   3.873  15.767  0.00  0.00    +0.000 A 
ATOM      7  C   UNL     1       5.983   5.063  15.228  0.00  0.00    +0.000 A 
ATOM      8 CL   UNL     1       7.142   5.018  13.960  0.00  0.00    +0.000 Cl
ATOM      9  C   UNL     1       5.527   6.286  15.710  0.00  0.00    +0.000 A 
ATOM     10  C   UNL     1       4.575   6.321  16.736  0.00  0.00    +0.000 A 
ENDBRANCH   2   4
BRANCH   3  11
ATOM     11  O   UNL     1       1.237   4.455  19.491  0.00  0.00    +0.000 OA
BRANCH  11  12
ATOM     12  C   UNL     1       0.930   3.178  20.066  0.00  0.00    +0.000 C 
ATOM     13  C   UNL     1       0.869   2.122  18.976  0.00  0.00    +0.000 C 
BRANCH  12  14
ATOM     14  C   UNL     1       2.042   2.875  21.065  0.00  0.00    +0.000 C 
ATOM     15  O   UNL     1       1.962   3.026  22.275  0.00  0.00    +0.000 OA
BRANCH  14  16
ATOM     16  O   UNL     1       3.191   2.459  20.467  0.00  0.00    +0.000 OA
ATOM     17  H   UNL     1       3.309   2.925  19.611  0.00  0.00    +0.000 HD
ENDBRANCH  14  16
ENDBRANCH  12  14
ENDBRANCH  11  12
ENDBRANCH   3  11
TORSDOF 5
ENDMDL
MODEL 5
REMARK VINA RESULT:      -6.2      2.174      2.919
REMARK  Name = 
REMARK  7 active torsions:
REMARK  status: ('A' for Active; 'I' for Inactive)
REMARK    1  A    between atoms: C_1  and  C_2
REMARK    2  A    between atoms: C_2  and  C_10
REMARK    3  A    between atoms: N_3  and  O_4
REMARK    4  A    between atoms: O_4  and  C_5
REMARK    5  A    between atoms: C_5  and  C_6
REMARK    6  A    between atoms: C_5  and  C_7
REMARK    7  A    between atoms: C_7  and  O_9
REMARK                            x       y       z     vdW  Elec       q    Type
REMARK                         _______ _______ _______ _____ _____    ______ ____
ROOT
ATOM      1  C   UNL     1       3.793   6.254  17.402  0.00  0.00    +0.000 C 
ATOM      2  C   UNL     1       3.800   4.743  17.566  0.00  0.00    +0.000 C 
ATOM      3  N   UNL     1       4.357   3.928  16.715  0.00  0.00    +0.000 NA
ENDROOT
BRANCH   2   4
ATOM      4  C   UNL     1       3.116   4.172  18.779  0.00  0.00    +0.000 A 
ATOM      5  C   UNL     1       3.002   4.900  19.972  0.00  0.00    +0.000 A 
ATOM      6  C   UNL     1       2.341   4.351  21.078  0.00  0.00    +0.000 A 
ATOM      7  C   UNL     1       1.790   3.074  20.995  0.00  0.00    +0.000 A 
ATOM      8 CL   UNL     1       0.969   2.409  22.350  0.00  0.00    +0.000 Cl
ATOM      9  C   UNL     1       1.900   2.338  19.819  0.00  0.00    +0.000 A 
ATOM     10  C   UNL     1       2.560   2.885  18.713  0.00  0.00    +0.000 A 
ENDBRANCH   2   4
BRANCH   3  11
ATOM     11  O   UNL     1       4.909   4.595  15.618  0.00  0.00    +0.000 OA
BRANCH  11  12
ATOM     12  C   UNL     1       6.167   4.005  15.270  0.00  0.00    +0.000 C 
ATOM     13  C   UNL     1       6.353   4.038  13.762  0.00  0.00    +0.000 C 
BRANCH  12  14
ATOM     14  C   UNL     1       7.241   4.828  15.975  0.00  0.00    +0.000 C 
ATOM     15  O   UNL     1       7.535   5.982  15.702  0.00  0.00    +0.000 OA
BRANCH  14  16
ATOM     16  O   UNL     1       7.903   4.125  16.933  0.00  0.00    +0.000 OA
ATOM     17  H   UNL     1       8.860   4.338  16.902  0.00  0.00    +0.000 HD
ENDBRANCH  14  16
ENDBRANCH  12  14
ENDBRANCH  11  12
ENDBRANCH   3  11
TORSDOF 5
ENDMDL
MODEL 6
REMARK VINA RESULT:      -6.2      0.944      1.746
REMARK  Name = 
REMARK  7 active torsions:
REMARK  status: ('A' for Active; 'I' for Inactive)
REMARK    1  A    between atoms: C_1  and  C_2
REMARK    2  A    between atoms: C_2  and  C_10
REMARK    3  A    between atoms: N_3  and  O_4
REMARK    4  A    between atoms: O_4  and  C_5
REMARK    5  A    between atoms: C_5  and  C_6
REMARK    6  A    between atoms: C_5  and  C_7
REMARK    7  A    between atoms: C_7  and  O_9
REMARK                            x       y       z     vdW  Elec       q    Type
REMARK                         _______ _______ _______ _____ _____    ______ ____
ROOT
ATOM      1  C   UNL     1       4.147   3.815  19.029  0.00  0.00    +0.000 C 
ATOM      2  C   UNL     1       4.004   4.923  17.999  0.00  0.00    +0.000 C 
ATOM      3  N   UNL     1       4.486   4.851  16.790  0.00  0.00    +0.000 NA
ENDROOT
BRANCH   2   4
ATOM      4  C   UNL     1       3.270   6.170  18.416  0.00  0.00    +0.000 A 
ATOM      5  C   UNL     1       3.165   7.281  17.568  0.00  0.00    +0.000 A 
ATOM      6  C   UNL     1       2.457   8.419  17.974  0.00  0.00    +0.000 A 
ATOM      7  C   UNL     1       1.851   8.449  19.228  0.00  0.00    +0.000 A 
ATOM      8 CL   UNL     1       0.972   9.844  19.717  0.00  0.00    +0.000 Cl
ATOM      9  C   UNL     1       1.951   7.356  20.082  0.00  0.00    +0.000 A 
ATOM     10  C   UNL     1       2.659   6.218  19.678  0.00  0.00    +0.000 A 
ENDBRANCH   2   4
BRANCH   3  11
ATOM     11  O   UNL     1       5.181   3.660  16.562  0.00  0.00    +0.000 OA
BRANCH  11  12
ATOM     12  C   UNL     1       6.236   3.883  15.619  0.00  0.00    +0.000 C 
ATOM     13  C   UNL     1       5.705   4.655  14.423  0.00  0.00    +0.000 C 
BRANCH  12  14
ATOM     14  C   UNL     1       7.312   4.677  16.354  0.00  0.00    +0.000 C 
ATOM     15  O   UNL     1       8.059   4.226  17.209  0.00  0.00    +0.000 OA
BRANCH  14  16
ATOM     16  O   UNL     1       7.333   5.991  16.002  0.00  0.00    +0.000 OA
ATOM     17  H   UNL     1       6.912   6.108  15.122  0.00  0.00    +0.000 HD
ENDBRANCH  14  16
ENDBRANCH  12  14
ENDBRANCH  11  12
ENDBRANCH   3  11
TORSDOF 5
ENDMDL
MODEL 7
REMARK VINA RESULT:      -6.2      2.442      3.017
REMARK  Name = 
REMARK  7 active torsions:
REMARK  status: ('A' for Active; 'I' for Inactive)
REMARK    1  A    between atoms: C_1  and  C_2
REMARK    2  A    between atoms: C_2  and  C_10
REMARK    3  A    between atoms: N_3  and  O_4
REMARK    4  A    between atoms: O_4  and  C_5
REMARK    5  A    between atoms: C_5  and  C_6
REMARK    6  A    between atoms: C_5  and  C_7
REMARK    7  A    between atoms: C_7  and  O_9
REMARK                            x       y       z     vdW  Elec       q    Type
REMARK                         _______ _______ _______ _____ _____    ______ ____
ROOT
ATOM      1  C   UNL     1       4.407   6.394  17.275  0.00  0.00    +0.000 C 
ATOM      2  C   UNL     1       4.121   4.903  17.201  0.00  0.00    +0.000 C 
ATOM      3  N   UNL     1       4.450   4.155  16.186  0.00  0.00    +0.000 NA
ENDROOT
BRANCH   2   4
ATOM      4  C   UNL     1       3.412   4.272  18.369  0.00  0.00    +0.000 A 
ATOM      5  C   UNL     1       4.089   3.464  19.294  0.00  0.00    +0.000 A 
ATOM      6  C   UNL     1       3.408   2.908  20.383  0.00  0.00    +0.000 A 
ATOM      7  C   UNL     1       2.048   3.159  20.554  0.00  0.00    +0.000 A 
ATOM      8 CL   UNL     1       1.219   2.485  21.901  0.00  0.00    +0.000 Cl
ATOM      9  C   UNL     1       1.362   3.955  19.643  0.00  0.00    +0.000 A 
ATOM     10  C   UNL     1       2.041   4.512  18.553  0.00  0.00    +0.000 A 
ENDBRANCH   2   4
BRANCH   3  11
ATOM     11  O   UNL     1       5.056   4.884  15.159  0.00  0.00    +0.000 OA
BRANCH  11  12
ATOM     12  C   UNL     1       6.227   4.197  14.699  0.00  0.00    +0.000 C 
ATOM     13  C   UNL     1       6.001   3.680  13.288  0.00  0.00    +0.000 C 
BRANCH  12  14
ATOM     14  C   UNL     1       7.365   5.212  14.737  0.00  0.00    +0.000 C 
ATOM     15  O   UNL     1       8.057   5.532  13.782  0.00  0.00    +0.000 OA
BRANCH  14  16
ATOM     16  O   UNL     1       7.588   5.710  15.983  0.00  0.00    +0.000 OA
ATOM     17  H   UNL     1       7.665   6.688  15.943  0.00  0.00    +0.000 HD
ENDBRANCH  14  16
ENDBRANCH  12  14
ENDBRANCH  11  12
ENDBRANCH   3  11
TORSDOF 5
ENDMDL
MODEL 8
REMARK VINA RESULT:      -6.2      1.363      2.004
REMARK  Name = 
REMARK  7 active torsions:
REMARK  status: ('A' for Active; 'I' for Inactive)
REMARK    1  A    between atoms: C_1  and  C_2
REMARK    2  A    between atoms: C_2  and  C_10
REMARK    3  A    between atoms: N_3  and  O_4
REMARK    4  A    between atoms: O_4  and  C_5
REMARK    5  A    between atoms: C_5  and  C_6
REMARK    6  A    between atoms: C_5  and  C_7
REMARK    7  A    between atoms: C_7  and  O_9
REMARK                            x       y       z     vdW  Elec       q    Type
REMARK                         _______ _______ _______ _____ _____    ______ ____
ROOT
ATOM      1  C   UNL     1       3.142   4.534  19.521  0.00  0.00    +0.000 C 
ATOM      2  C   UNL     1       3.230   5.653  18.497  0.00  0.00    +0.000 C 
ATOM      3  N   UNL     1       3.859   5.544  17.361  0.00  0.00    +0.000 NA
ENDROOT
BRANCH   2   4
ATOM      4  C   UNL     1       2.556   6.957  18.832  0.00  0.00    +0.000 A 
ATOM      5  C   UNL     1       2.387   7.967  17.875  0.00  0.00    +0.000 A 
ATOM      6  C   UNL     1       1.736   9.160  18.209  0.00  0.00    +0.000 A 
ATOM      7  C   UNL     1       1.251   9.348  19.501  0.00  0.00    +0.000 A 
ATOM      8 CL   UNL     1       0.441  10.810  19.904  0.00  0.00    +0.000 Cl
ATOM      9  C   UNL     1       1.415   8.357  20.463  0.00  0.00    +0.000 A 
ATOM     10  C   UNL     1       2.066   7.163  20.131  0.00  0.00    +0.000 A 
ENDBRANCH   2   4
BRANCH   3  11
ATOM     11  O   UNL     1       4.475   4.299  17.209  0.00  0.00    +0.000 OA
BRANCH  11  12
ATOM     12  C   UNL     1       5.571   4.404  16.292  0.00  0.00    +0.000 C 
ATOM     13  C   UNL     1       5.455   5.692  15.494  0.00  0.00    +0.000 C 
BRANCH  12  14
ATOM     14  C   UNL     1       6.842   4.393  17.136  0.00  0.00    +0.000 C 
ATOM     15  O   UNL     1       7.978   4.509  16.699  0.00  0.00    +0.000 OA
BRANCH  14  16
ATOM     16  O   UNL     1       6.598   4.180  18.457  0.00  0.00    +0.000 OA
ATOM     17  H   UNL     1       6.021   3.395  18.568  0.00  0.00    +0.000 HD
ENDBRANCH  14  16
ENDBRANCH  12  14
ENDBRANCH  11  12
ENDBRANCH   3  11
TORSDOF 5
ENDMDL
MODEL 9
REMARK VINA RESULT:      -6.2      3.757      6.036
REMARK  Name = 
REMARK  7 active torsions:
REMARK  status: ('A' for Active; 'I' for Inactive)
REMARK    1  A    between atoms: C_1  and  C_2
REMARK    2  A    between atoms: C_2  and  C_10
REMARK    3  A    between atoms: N_3  and  O_4
REMARK    4  A    between atoms: O_4  and  C_5
REMARK    5  A    between atoms: C_5  and  C_6
REMARK    6  A    between atoms: C_5  and  C_7
REMARK    7  A    between atoms: C_7  and  O_9
REMARK                            x       y       z     vdW  Elec       q    Type
REMARK                         _______ _______ _______ _____ _____    ______ ____
ROOT
ATOM      1  C   UNL     1       2.871   6.081  18.641  0.00  0.00    +0.000 C 
ATOM      2  C   UNL     1       3.735   4.871  18.326  0.00  0.00    +0.000 C 
ATOM      3  N   UNL     1       3.775   3.801  19.069  0.00  0.00    +0.000 NA
ENDROOT
BRANCH   2   4
ATOM      4  C   UNL     1       4.591   4.931  17.090  0.00  0.00    +0.000 A 
ATOM      5  C   UNL     1       4.857   6.142  16.435  0.00  0.00    +0.000 A 
ATOM      6  C   UNL     1       5.675   6.170  15.299  0.00  0.00    +0.000 A 
ATOM      7  C   UNL     1       6.232   4.989  14.815  0.00  0.00    +0.000 A 
ATOM      8 CL   UNL     1       7.246   5.029  13.427  0.00  0.00    +0.000 Cl
ATOM      9  C   UNL     1       5.973   3.779  15.451  0.00  0.00    +0.000 A 
ATOM     10  C   UNL     1       5.156   3.749  16.587  0.00  0.00    +0.000 A 
ENDBRANCH   2   4
BRANCH   3  11
ATOM     11  O   UNL     1       2.968   3.908  20.204  0.00  0.00    +0.000 OA
BRANCH  11  12
ATOM     12  C   UNL     1       2.369   2.639  20.499  0.00  0.00    +0.000 C 
ATOM     13  C   UNL     1       1.339   2.799  21.604  0.00  0.00    +0.000 C 
BRANCH  12  14
ATOM     14  C   UNL     1       1.720   2.157  19.205  0.00  0.00    +0.000 C 
ATOM     15  O   UNL     1       0.585   2.431  18.843  0.00  0.00    +0.000 OA
BRANCH  14  16
ATOM     16  O   UNL     1       2.521   1.323  18.490  0.00  0.00    +0.000 OA
ATOM     17  H   UNL     1       1.978   0.633  18.051  0.00  0.00    +0.000 HD
ENDBRANCH  14  16
ENDBRANCH  12  14
ENDBRANCH  11  12
ENDBRANCH   3  11
TORSDOF 5
ENDMDL
