MODEL 1
REMARK VINA RESULT:      -8.2      0.000      0.000
REMARK  Name = 
REMARK  8 active torsions:
REMARK  status: ('A' for Active; 'I' for Inactive)
REMARK    1  A    between atoms: C_1  and  C_2
REMARK    2  A    between atoms: C_2  and  C_3
REMARK    3  A    between atoms: C_3  and  C_4
REMARK    4  A    between atoms: C_4  and  O_5
REMARK    5  A    between atoms: C_4  and  C_6
REMARK    6  A    between atoms: C_10  and  O_11
REMARK    7  A    between atoms: N_13  and  C_14
REMARK    8  A    between atoms: C_18  and  C_19
REMARK                            x       y       z     vdW  Elec       q    Type
REMARK                         _______ _______ _______ _____ _____    ______ ____
ROOT
ATOM      1  C   UNL     1       2.699   5.335  19.093  0.00  0.00    +0.000 A 
ATOM      2  C   UNL     1       1.596   4.835  19.710  0.00  0.00    +0.000 A 
ATOM      3  C   UNL     1       1.292   3.399  19.725  0.00  0.00    +0.000 A 
ATOM      4  O   UNL     1       0.303   2.938  20.291  0.00  0.00    +0.000 OA
ATOM      5  C   UNL     1       2.224   2.505  19.024  0.00  0.00    +0.000 A 
ATOM      6  C   UNL     1       3.271   3.072  18.415  0.00  0.00    +0.000 A 
ATOM      7  N   UNL     1       3.591   4.444  18.397  0.00  0.00    +0.000 N 
ENDROOT
BRANCH   7   8
ATOM      8  C   UNL     1       4.849   4.837  17.799  0.00  0.00    +0.000 A 
ATOM      9  C   UNL     1       5.756   5.668  18.488  0.00  0.00    +0.000 A 
ATOM     10  C   UNL     1       6.938   6.119  17.894  0.00  0.00    +0.000 A 
ATOM     11  C   UNL     1       7.218   5.794  16.570  0.00  0.00    +0.000 A 
ATOM     12  C   UNL     1       6.375   4.941  15.845  0.00  0.00    +0.000 A 
ATOM     13  C   UNL     1       5.249   4.421  16.519  0.00  0.00    +0.000 A 
BRANCH  12  14
ATOM     14  C   UNL     1       6.618   4.636  14.413  0.00  0.00    +0.000 A 
ATOM     15  C   UNL     1       7.601   5.308  13.667  0.00  0.00    +0.000 A 
ATOM     16  C   UNL     1       7.795   5.049  12.307  0.00  0.00    +0.000 A 
ATOM     17  C   UNL     1       7.017   4.095  11.659  0.00  0.00    +0.000 A 
ATOM     18  C   UNL     1       6.039   3.409  12.370  0.00  0.00    +0.000 A 
ATOM     19  C   UNL     1       5.837   3.684  13.727  0.00  0.00    +0.000 A 
ENDBRANCH  12  14
ENDBRANCH   7   8
BRANCH   5  20
ATOM     20  O   UNL     1       1.983   1.146  19.035  0.00  0.00    +0.000 OA
ATOM     21  H   UNL     1       2.767   0.757  18.588  0.00  0.00    +0.000 HD
ENDBRANCH   5  20
BRANCH   1  22
ATOM     22  C   UNL     1       2.910   6.871  19.194  0.00  0.00    +0.000 C 
BRANCH  22  23
ATOM     23  O   UNL     1       2.286   7.397  20.362  0.00  0.00    +0.000 OA
ATOM     24  H   UNL     1       1.414   7.741  20.108  0.00  0.00    +0.000 HD
ENDBRANCH  22  23
BRANCH  22  25
ATOM     25  C   UNL     1       2.405   7.689  17.987  0.00  0.00    +0.000 C 
BRANCH  25  27
ATOM     26  C   UNL     1       0.768   9.548  17.950  0.00  0.00    +0.000 C 
ATOM     27  C   UNL     1       2.220   9.183  18.236  0.00  0.00    +0.000 C 
ENDBRANCH  25  27
ENDBRANCH  22  25
ENDBRANCH   1  22
TORSDOF 7
ENDMDL
MODEL 2
REMARK VINA RESULT:      -8.1      0.290      1.021
REMARK  Name = 
REMARK  8 active torsions:
REMARK  status: ('A' for Active; 'I' for Inactive)
REMARK    1  A    between atoms: C_1  and  C_2
REMARK    2  A    between atoms: C_2  and  C_3
REMARK    3  A    between atoms: C_3  and  C_4
REMARK    4  A    between atoms: C_4  and  O_5
REMARK    5  A    between atoms: C_4  and  C_6
REMARK    6  A    between atoms: C_10  and  O_11
REMARK    7  A    between atoms: N_13  and  C_14
REMARK    8  A    between atoms: C_18  and  C_19
REMARK                            x       y       z     vdW  Elec       q    Type
REMARK                         _______ _______ _______ _____ _____    ______ ____
ROOT
ATOM      1  C   UNL     1       2.691   5.316  19.188  0.00  0.00    +0.000 A 
ATOM      2  C   UNL     1       1.597   4.807  19.813  0.00  0.00    +0.000 A 
ATOM      3  C   UNL     1       1.285   3.373  19.801  0.00  0.00    +0.000 A 
ATOM      4  O   UNL     1       0.306   2.902  20.375  0.00  0.00    +0.000 OA
ATOM      5  C   UNL     1       2.200   2.490  19.062  0.00  0.00    +0.000 A 
ATOM      6  C   UNL     1       3.238   3.067  18.445  0.00  0.00    +0.000 A 
ATOM      7  N   UNL     1       3.565   4.437  18.454  0.00  0.00    +0.000 N 
ENDROOT
BRANCH   7   8
ATOM      8  C   UNL     1       4.813   4.838  17.841  0.00  0.00    +0.000 A 
ATOM      9  C   UNL     1       5.727   5.668  18.523  0.00  0.00    +0.000 A 
ATOM     10  C   UNL     1       6.898   6.127  17.915  0.00  0.00    +0.000 A 
ATOM     11  C   UNL     1       7.162   5.811  16.586  0.00  0.00    +0.000 A 
ATOM     12  C   UNL     1       6.312   4.959  15.868  0.00  0.00    +0.000 A 
ATOM     13  C   UNL     1       5.196   4.431  16.554  0.00  0.00    +0.000 A 
BRANCH  12  14
ATOM     14  C   UNL     1       6.537   4.664  14.430  0.00  0.00    +0.000 A 
ATOM     15  C   UNL     1       5.774   3.706  13.741  0.00  0.00    +0.000 A 
ATOM     16  C   UNL     1       6.021   3.399  12.399  0.00  0.00    +0.000 A 
ATOM     17  C   UNL     1       7.033   4.055  11.706  0.00  0.00    +0.000 A 
ATOM     18  C   UNL     1       7.802   5.011  12.358  0.00  0.00    +0.000 A 
ATOM     19  C   UNL     1       7.563   5.304  13.706  0.00  0.00    +0.000 A 
ENDBRANCH  12  14
ENDBRANCH   7   8
BRANCH   5  20
ATOM     20  O   UNL     1       1.952   1.133  19.045  0.00  0.00    +0.000 OA
ATOM     21  H   UNL     1       1.148   1.040  18.488  0.00  0.00    +0.000 HD
ENDBRANCH   5  20
BRANCH   1  22
ATOM     22  C   UNL     1       2.911   6.848  19.320  0.00  0.00    +0.000 C 
BRANCH  22  23
ATOM     23  O   UNL     1       2.254   7.361  20.476  0.00  0.00    +0.000 OA
ATOM     24  H   UNL     1       2.934   7.663  21.099  0.00  0.00    +0.000 HD
ENDBRANCH  22  23
BRANCH  22  25
ATOM     25  C   UNL     1       2.453   7.690  18.111  0.00  0.00    +0.000 C 
BRANCH  25  27
ATOM     26  C   UNL     1       2.108  10.139  17.963  0.00  0.00    +0.000 C 
ATOM     27  C   UNL     1       1.487   8.828  18.430  0.00  0.00    +0.000 C 
ENDBRANCH  25  27
ENDBRANCH  22  25
ENDBRANCH   1  22
TORSDOF 7
ENDMDL
MODEL 3
REMARK VINA RESULT:      -8.0      3.063      7.565
REMARK  Name = 
REMARK  8 active torsions:
REMARK  status: ('A' for Active; 'I' for Inactive)
REMARK    1  A    between atoms: C_1  and  C_2
REMARK    2  A    between atoms: C_2  and  C_3
REMARK    3  A    between atoms: C_3  and  C_4
REMARK    4  A    between atoms: C_4  and  O_5
REMARK    5  A    between atoms: C_4  and  C_6
REMARK    6  A    between atoms: C_10  and  O_11
REMARK    7  A    between atoms: N_13  and  C_14
REMARK    8  A    between atoms: C_18  and  C_19
REMARK                            x       y       z     vdW  Elec       q    Type
REMARK                         _______ _______ _______ _____ _____    ______ ____
ROOT
ATOM      1  C   UNL     1       4.531   5.290  18.835  0.00  0.00    +0.000 A 
ATOM      2  C   UNL     1       5.035   4.056  19.102  0.00  0.00    +0.000 A 
ATOM      3  C   UNL     1       4.345   3.102  19.978  0.00  0.00    +0.000 A 
ATOM      4  O   UNL     1       4.787   1.980  20.214  0.00  0.00    +0.000 OA
ATOM      5  C   UNL     1       3.077   3.537  20.582  0.00  0.00    +0.000 A 
ATOM      6  C   UNL     1       2.660   4.776  20.298  0.00  0.00    +0.000 A 
ATOM      7  N   UNL     1       3.297   5.704  19.451  0.00  0.00    +0.000 N 
ENDROOT
BRANCH   7   8
ATOM      8  C   UNL     1       2.605   6.942  19.163  0.00  0.00    +0.000 A 
ATOM      9  C   UNL     1       2.783   7.607  17.933  0.00  0.00    +0.000 A 
ATOM     10  C   UNL     1       2.184   8.843  17.672  0.00  0.00    +0.000 A 
ATOM     11  C   UNL     1       1.432   9.473  18.658  0.00  0.00    +0.000 A 
ATOM     12  C   UNL     1       1.187   8.845  19.886  0.00  0.00    +0.000 A 
ATOM     13  C   UNL     1       1.721   7.550  20.068  0.00  0.00    +0.000 A 
BRANCH  12  14
ATOM     14  C   UNL     1       0.445   9.526  20.977  0.00  0.00    +0.000 A 
ATOM     15  C   UNL     1      -0.199  10.759  20.779  0.00  0.00    +0.000 A 
ATOM     16  C   UNL     1      -0.857  11.418  21.822  0.00  0.00    +0.000 A 
ATOM     17  C   UNL     1      -0.901  10.851  23.091  0.00  0.00    +0.000 A 
ATOM     18  C   UNL     1      -0.279   9.630  23.318  0.00  0.00    +0.000 A 
ATOM     19  C   UNL     1       0.394   8.981  22.276  0.00  0.00    +0.000 A 
ENDBRANCH  12  14
ENDBRANCH   7   8
BRANCH   5  20
ATOM     20  O   UNL     1       2.388   2.660  21.394  0.00  0.00    +0.000 OA
ATOM     21  H   UNL     1       2.966   1.867  21.440  0.00  0.00    +0.000 HD
ENDBRANCH   5  20
BRANCH   1  22
ATOM     22  C   UNL     1       5.354   6.175  17.859  0.00  0.00    +0.000 C 
BRANCH  22  23
ATOM     23  O   UNL     1       5.228   5.711  16.517  0.00  0.00    +0.000 OA
ATOM     24  H   UNL     1       5.488   4.776  16.497  0.00  0.00    +0.000 HD
ENDBRANCH  22  23
BRANCH  22  25
ATOM     25  C   UNL     1       6.860   6.285  18.175  0.00  0.00    +0.000 C 
BRANCH  25  27
ATOM     26  C   UNL     1       7.850   8.528  17.815  0.00  0.00    +0.000 C 
ATOM     27  C   UNL     1       7.675   7.141  17.208  0.00  0.00    +0.000 C 
ENDBRANCH  25  27
ENDBRANCH  22  25
ENDBRANCH   1  22
TORSDOF 7
ENDMDL
MODEL 4
REMARK VINA RESULT:      -7.9      3.078      7.531
REMARK  Name = 
REMARK  8 active torsions:
REMARK  status: ('A' for Active; 'I' for Inactive)
REMARK    1  A    between atoms: C_1  and  C_2
REMARK    2  A    between atoms: C_2  and  C_3
REMARK    3  A    between atoms: C_3  and  C_4
REMARK    4  A    between atoms: C_4  and  O_5
REMARK    5  A    between atoms: C_4  and  C_6
REMARK    6  A    between atoms: C_10  and  O_11
REMARK    7  A    between atoms: N_13  and  C_14
REMARK    8  A    between atoms: C_18  and  C_19
REMARK                            x       y       z     vdW  Elec       q    Type
REMARK                         _______ _______ _______ _____ _____    ______ ____
ROOT
ATOM      1  C   UNL     1       4.483   5.007  18.837  0.00  0.00    +0.000 A 
ATOM      2  C   UNL     1       4.961   3.772  19.143  0.00  0.00    +0.000 A 
ATOM      3  C   UNL     1       4.318   2.909  20.141  0.00  0.00    +0.000 A 
ATOM      4  O   UNL     1       4.737   1.786  20.414  0.00  0.00    +0.000 OA
ATOM      5  C   UNL     1       3.129   3.439  20.825  0.00  0.00    +0.000 A 
ATOM      6  C   UNL     1       2.735   4.674  20.494  0.00  0.00    +0.000 A 
ATOM      7  N   UNL     1       3.327   5.515  19.531  0.00  0.00    +0.000 N 
ENDROOT
BRANCH   7   8
ATOM      8  C   UNL     1       2.660   6.761  19.221  0.00  0.00    +0.000 A 
ATOM      9  C   UNL     1       2.846   7.398  17.976  0.00  0.00    +0.000 A 
ATOM     10  C   UNL     1       2.271   8.640  17.692  0.00  0.00    +0.000 A 
ATOM     11  C   UNL     1       1.537   9.306  18.669  0.00  0.00    +0.000 A 
ATOM     12  C   UNL     1       1.286   8.708  19.911  0.00  0.00    +0.000 A 
ATOM     13  C   UNL     1       1.794   7.406  20.117  0.00  0.00    +0.000 A 
BRANCH  12  14
ATOM     14  C   UNL     1       0.563   9.427  20.991  0.00  0.00    +0.000 A 
ATOM     15  C   UNL     1       0.563   8.967  22.318  0.00  0.00    +0.000 A 
ATOM     16  C   UNL     1      -0.157   9.622  23.321  0.00  0.00    +0.000 A 
ATOM     17  C   UNL     1      -0.887  10.769  23.024  0.00  0.00    +0.000 A 
ATOM     18  C   UNL     1      -0.903  11.252  21.721  0.00  0.00    +0.000 A 
ATOM     19  C   UNL     1      -0.195  10.583  20.716  0.00  0.00    +0.000 A 
ENDBRANCH  12  14
ENDBRANCH   7   8
BRANCH   5  20
ATOM     20  O   UNL     1       2.485   2.648  21.753  0.00  0.00    +0.000 OA
ATOM     21  H   UNL     1       1.784   3.230  22.123  0.00  0.00    +0.000 HD
ENDBRANCH   5  20
BRANCH   1  22
ATOM     22  C   UNL     1       5.246   5.789  17.733  0.00  0.00    +0.000 C 
BRANCH  22  23
ATOM     23  O   UNL     1       5.370   5.010  16.547  0.00  0.00    +0.000 OA
ATOM     24  H   UNL     1       6.307   4.781  16.433  0.00  0.00    +0.000 HD
ENDBRANCH  22  23
BRANCH  22  25
ATOM     25  C   UNL     1       6.659   6.274  18.121  0.00  0.00    +0.000 C 
BRANCH  25  27
ATOM     26  C   UNL     1       8.171   8.236  18.101  0.00  0.00    +0.000 C 
ATOM     27  C   UNL     1       7.235   7.386  17.250  0.00  0.00    +0.000 C 
ENDBRANCH  25  27
ENDBRANCH  22  25
ENDBRANCH   1  22
TORSDOF 7
ENDMDL
MODEL 5
REMARK VINA RESULT:      -7.7      4.715      6.760
REMARK  Name = 
REMARK  8 active torsions:
REMARK  status: ('A' for Active; 'I' for Inactive)
REMARK    1  A    between atoms: C_1  and  C_2
REMARK    2  A    between atoms: C_2  and  C_3
REMARK    3  A    between atoms: C_3  and  C_4
REMARK    4  A    between atoms: C_4  and  O_5
REMARK    5  A    between atoms: C_4  and  C_6
REMARK    6  A    between atoms: C_10  and  O_11
REMARK    7  A    between atoms: N_13  and  C_14
REMARK    8  A    between atoms: C_18  and  C_19
REMARK                            x       y       z     vdW  Elec       q    Type
REMARK                         _______ _______ _______ _____ _____    ______ ____
ROOT
ATOM      1  C   UNL     1      -0.129  10.287  19.905  0.00  0.00    +0.000 A 
ATOM      2  C   UNL     1      -0.780  11.080  20.795  0.00  0.00    +0.000 A 
ATOM      3  C   UNL     1      -0.629  10.916  22.246  0.00  0.00    +0.000 A 
ATOM      4  O   UNL     1      -1.204  11.638  23.058  0.00  0.00    +0.000 OA
ATOM      5  C   UNL     1       0.250   9.836  22.714  0.00  0.00    +0.000 A 
ATOM      6  C   UNL     1       0.833   9.076  21.780  0.00  0.00    +0.000 A 
ATOM      7  N   UNL     1       0.714   9.222  20.384  0.00  0.00    +0.000 N 
ENDROOT
BRANCH   7   8
ATOM      8  C   UNL     1       1.543   8.383  19.544  0.00  0.00    +0.000 A 
ATOM      9  C   UNL     1       2.320   8.934  18.505  0.00  0.00    +0.000 A 
ATOM     10  C   UNL     1       3.063   8.130  17.636  0.00  0.00    +0.000 A 
ATOM     11  C   UNL     1       3.004   6.744  17.750  0.00  0.00    +0.000 A 
ATOM     12  C   UNL     1       2.279   6.139  18.786  0.00  0.00    +0.000 A 
ATOM     13  C   UNL     1       1.632   6.992  19.706  0.00  0.00    +0.000 A 
BRANCH  12  14
ATOM     14  C   UNL     1       2.147   4.664  18.887  0.00  0.00    +0.000 A 
ATOM     15  C   UNL     1       2.644   3.804  17.893  0.00  0.00    +0.000 A 
ATOM     16  C   UNL     1       2.477   2.418  17.971  0.00  0.00    +0.000 A 
ATOM     17  C   UNL     1       1.817   1.853  19.057  0.00  0.00    +0.000 A 
ATOM     18  C   UNL     1       1.317   2.676  20.059  0.00  0.00    +0.000 A 
ATOM     19  C   UNL     1       1.472   4.064  19.969  0.00  0.00    +0.000 A 
ENDBRANCH  12  14
ENDBRANCH   7   8
BRANCH   5  20
ATOM     20  O   UNL     1       0.435   9.664  24.071  0.00  0.00    +0.000 OA
ATOM     21  H   UNL     1       1.057  10.380  24.324  0.00  0.00    +0.000 HD
ENDBRANCH   5  20
BRANCH   1  22
ATOM     22  C   UNL     1      -0.357  10.604  18.401  0.00  0.00    +0.000 C 
BRANCH  22  23
ATOM     23  O   UNL     1      -0.270  12.005  18.155  0.00  0.00    +0.000 OA
ATOM     24  H   UNL     1      -0.046  12.133  17.219  0.00  0.00    +0.000 HD
ENDBRANCH  22  23
BRANCH  22  25
ATOM     25  C   UNL     1      -1.697  10.110  17.816  0.00  0.00    +0.000 C 
BRANCH  25  27
ATOM     26  C   UNL     1      -2.733  10.806  15.676  0.00  0.00    +0.000 C 
ATOM     27  C   UNL     1      -2.554  11.179  17.143  0.00  0.00    +0.000 C 
ENDBRANCH  25  27
ENDBRANCH  22  25
ENDBRANCH   1  22
TORSDOF 7
ENDMDL
MODEL 6
REMARK VINA RESULT:      -7.7      4.836      6.931
REMARK  Name = 
REMARK  8 active torsions:
REMARK  status: ('A' for Active; 'I' for Inactive)
REMARK    1  A    between atoms: C_1  and  C_2
REMARK    2  A    between atoms: C_2  and  C_3
REMARK    3  A    between atoms: C_3  and  C_4
REMARK    4  A    between atoms: C_4  and  O_5
REMARK    5  A    between atoms: C_4  and  C_6
REMARK    6  A    between atoms: C_10  and  O_11
REMARK    7  A    between atoms: N_13  and  C_14
REMARK    8  A    between atoms: C_18  and  C_19
REMARK                            x       y       z     vdW  Elec       q    Type
REMARK                         _______ _______ _______ _____ _____    ______ ____
ROOT
ATOM      1  C   UNL     1      -0.145  10.439  20.049  0.00  0.00    +0.000 A 
ATOM      2  C   UNL     1      -0.855  11.204  20.920  0.00  0.00    +0.000 A 
ATOM      3  C   UNL     1      -0.849  10.953  22.366  0.00  0.00    +0.000 A 
ATOM      4  O   UNL     1      -1.477  11.648  23.161  0.00  0.00    +0.000 OA
ATOM      5  C   UNL     1      -0.050   9.818  22.850  0.00  0.00    +0.000 A 
ATOM      6  C   UNL     1       0.597   9.092  21.932  0.00  0.00    +0.000 A 
ATOM      7  N   UNL     1       0.617   9.320  20.541  0.00  0.00    +0.000 N 
ENDROOT
BRANCH   7   8
ATOM      8  C   UNL     1       1.497   8.501  19.735  0.00  0.00    +0.000 A 
ATOM      9  C   UNL     1       1.925   8.928  18.461  0.00  0.00    +0.000 A 
ATOM     10  C   UNL     1       2.710   8.115  17.639  0.00  0.00    +0.000 A 
ATOM     11  C   UNL     1       3.043   6.828  18.048  0.00  0.00    +0.000 A 
ATOM     12  C   UNL     1       2.679   6.361  19.318  0.00  0.00    +0.000 A 
ATOM     13  C   UNL     1       1.980   7.254  20.159  0.00  0.00    +0.000 A 
BRANCH  12  14
ATOM     14  C   UNL     1       2.965   4.969  19.749  0.00  0.00    +0.000 A 
ATOM     15  C   UNL     1       2.218   4.335  20.756  0.00  0.00    +0.000 A 
ATOM     16  C   UNL     1       2.521   3.041  21.189  0.00  0.00    +0.000 A 
ATOM     17  C   UNL     1       3.575   2.339  20.613  0.00  0.00    +0.000 A 
ATOM     18  C   UNL     1       4.330   2.936  19.611  0.00  0.00    +0.000 A 
ATOM     19  C   UNL     1       4.034   4.239  19.192  0.00  0.00    +0.000 A 
ENDBRANCH  12  14
ENDBRANCH   7   8
BRANCH   5  20
ATOM     20  O   UNL     1      -0.002   9.564  24.205  0.00  0.00    +0.000 OA
ATOM     21  H   UNL     1       0.873   9.140  24.342  0.00  0.00    +0.000 HD
ENDBRANCH   5  20
BRANCH   1  22
ATOM     22  C   UNL     1      -0.218  10.848  18.552  0.00  0.00    +0.000 C 
BRANCH  22  23
ATOM     23  O   UNL     1       0.392  12.118  18.338  0.00  0.00    +0.000 OA
ATOM     24  H   UNL     1      -0.280  12.803  18.488  0.00  0.00    +0.000 HD
ENDBRANCH  22  23
BRANCH  22  25
ATOM     25  C   UNL     1      -1.638  10.906  17.950  0.00  0.00    +0.000 C 
BRANCH  25  27
ATOM     26  C   UNL     1      -3.029  10.373  15.971  0.00  0.00    +0.000 C 
ATOM     27  C   UNL     1      -1.956   9.835  16.910  0.00  0.00    +0.000 C 
ENDBRANCH  25  27
ENDBRANCH  22  25
ENDBRANCH   1  22
TORSDOF 7
ENDMDL
MODEL 7
REMARK VINA RESULT:      -7.6      3.023      6.879
REMARK  Name = 
REMARK  8 active torsions:
REMARK  status: ('A' for Active; 'I' for Inactive)
REMARK    1  A    between atoms: C_1  and  C_2
REMARK    2  A    between atoms: C_2  and  C_3
REMARK    3  A    between atoms: C_3  and  C_4
REMARK    4  A    between atoms: C_4  and  O_5
REMARK    5  A    between atoms: C_4  and  C_6
REMARK    6  A    between atoms: C_10  and  O_11
REMARK    7  A    between atoms: N_13  and  C_14
REMARK    8  A    between atoms: C_18  and  C_19
REMARK                            x       y       z     vdW  Elec       q    Type
REMARK                         _______ _______ _______ _____ _____    ______ ____
ROOT
ATOM      1  C   UNL     1       6.697   4.798  15.841  0.00  0.00    +0.000 A 
ATOM      2  C   UNL     1       7.410   4.778  14.684  0.00  0.00    +0.000 A 
ATOM      3  C   UNL     1       6.812   4.386  13.403  0.00  0.00    +0.000 A 
ATOM      4  O   UNL     1       7.446   4.378  12.350  0.00  0.00    +0.000 OA
ATOM      5  C   UNL     1       5.396   3.990  13.413  0.00  0.00    +0.000 A 
ATOM      6  C   UNL     1       4.768   4.005  14.594  0.00  0.00    +0.000 A 
ATOM      7  N   UNL     1       5.316   4.389  15.834  0.00  0.00    +0.000 N 
ENDROOT
BRANCH   7   8
ATOM      8  C   UNL     1       4.425   4.470  16.971  0.00  0.00    +0.000 A 
ATOM      9  C   UNL     1       3.972   3.307  17.626  0.00  0.00    +0.000 A 
ATOM     10  C   UNL     1       3.050   3.365  18.675  0.00  0.00    +0.000 A 
ATOM     11  C   UNL     1       2.513   4.589  19.061  0.00  0.00    +0.000 A 
ATOM     12  C   UNL     1       2.952   5.784  18.473  0.00  0.00    +0.000 A 
ATOM     13  C   UNL     1       3.963   5.688  17.493  0.00  0.00    +0.000 A 
BRANCH  12  14
ATOM     14  C   UNL     1       2.345   7.093  18.822  0.00  0.00    +0.000 A 
ATOM     15  C   UNL     1       1.866   7.369  20.114  0.00  0.00    +0.000 A 
ATOM     16  C   UNL     1       1.253   8.587  20.424  0.00  0.00    +0.000 A 
ATOM     17  C   UNL     1       1.118   9.570  19.450  0.00  0.00    +0.000 A 
ATOM     18  C   UNL     1       1.586   9.330  18.163  0.00  0.00    +0.000 A 
ATOM     19  C   UNL     1       2.183   8.103  17.852  0.00  0.00    +0.000 A 
ENDBRANCH  12  14
ENDBRANCH   7   8
BRANCH   5  20
ATOM     20  O   UNL     1       4.792   3.636  12.225  0.00  0.00    +0.000 OA
ATOM     21  H   UNL     1       4.088   3.004  12.488  0.00  0.00    +0.000 HD
ENDBRANCH   5  20
BRANCH   1  22
ATOM     22  C   UNL     1       7.456   5.272  17.112  0.00  0.00    +0.000 C 
BRANCH  22  23
ATOM     23  O   UNL     1       7.253   4.369  18.195  0.00  0.00    +0.000 OA
ATOM     24  H   UNL     1       6.296   4.267  18.327  0.00  0.00    +0.000 HD
ENDBRANCH  22  23
BRANCH  22  25
ATOM     25  C   UNL     1       7.093   6.687  17.610  0.00  0.00    +0.000 C 
BRANCH  25  27
ATOM     26  C   UNL     1       8.180   8.879  17.995  0.00  0.00    +0.000 C 
ATOM     27  C   UNL     1       8.185   7.408  18.395  0.00  0.00    +0.000 C 
ENDBRANCH  25  27
ENDBRANCH  22  25
ENDBRANCH   1  22
TORSDOF 7
ENDMDL
MODEL 8
REMARK VINA RESULT:      -7.6      2.624      7.341
REMARK  Name = 
REMARK  8 active torsions:
REMARK  status: ('A' for Active; 'I' for Inactive)
REMARK    1  A    between atoms: C_1  and  C_2
REMARK    2  A    between atoms: C_2  and  C_3
REMARK    3  A    between atoms: C_3  and  C_4
REMARK    4  A    between atoms: C_4  and  O_5
REMARK    5  A    between atoms: C_4  and  C_6
REMARK    6  A    between atoms: C_10  and  O_11
REMARK    7  A    between atoms: N_13  and  C_14
REMARK    8  A    between atoms: C_18  and  C_19
REMARK                            x       y       z     vdW  Elec       q    Type
REMARK                         _______ _______ _______ _____ _____    ______ ____
ROOT
ATOM      1  C   UNL     1       4.700   4.237  17.502  0.00  0.00    +0.000 A 
ATOM      2  C   UNL     1       5.722   3.978  16.644  0.00  0.00    +0.000 A 
ATOM      3  C   UNL     1       6.738   4.982  16.311  0.00  0.00    +0.000 A 
ATOM      4  O   UNL     1       7.673   4.751  15.547  0.00  0.00    +0.000 OA
ATOM      5  C   UNL     1       6.605   6.308  16.932  0.00  0.00    +0.000 A 
ATOM      6  C   UNL     1       5.557   6.499  17.741  0.00  0.00    +0.000 A 
ATOM      7  N   UNL     1       4.576   5.548  18.085  0.00  0.00    +0.000 N 
ENDROOT
BRANCH   7   8
ATOM      8  C   UNL     1       3.603   5.915  19.092  0.00  0.00    +0.000 A 
ATOM      9  C   UNL     1       3.218   5.007  20.099  0.00  0.00    +0.000 A 
ATOM     10  C   UNL     1       2.222   5.319  21.029  0.00  0.00    +0.000 A 
ATOM     11  C   UNL     1       1.545   6.531  20.943  0.00  0.00    +0.000 A 
ATOM     12  C   UNL     1       1.909   7.490  19.988  0.00  0.00    +0.000 A 
ATOM     13  C   UNL     1       2.992   7.178  19.138  0.00  0.00    +0.000 A 
BRANCH  12  14
ATOM     14  C   UNL     1       1.157   8.762  19.834  0.00  0.00    +0.000 A 
ATOM     15  C   UNL     1       0.367   9.286  20.870  0.00  0.00    +0.000 A 
ATOM     16  C   UNL     1      -0.375  10.460  20.703  0.00  0.00    +0.000 A 
ATOM     17  C   UNL     1      -0.334  11.149  19.496  0.00  0.00    +0.000 A 
ATOM     18  C   UNL     1       0.442  10.658  18.453  0.00  0.00    +0.000 A 
ATOM     19  C   UNL     1       1.170   9.474  18.618  0.00  0.00    +0.000 A 
ENDBRANCH  12  14
ENDBRANCH   7   8
BRANCH   5  20
ATOM     20  O   UNL     1       7.554   7.272  16.660  0.00  0.00    +0.000 OA
ATOM     21  H   UNL     1       7.901   7.526  17.543  0.00  0.00    +0.000 HD
ENDBRANCH   5  20
BRANCH   1  22
ATOM     22  C   UNL     1       3.723   3.064  17.787  0.00  0.00    +0.000 C 
BRANCH  22  23
ATOM     23  O   UNL     1       4.329   1.809  17.490  0.00  0.00    +0.000 OA
ATOM     24  H   UNL     1       5.290   1.944  17.440  0.00  0.00    +0.000 HD
ENDBRANCH  22  23
BRANCH  22  25
ATOM     25  C   UNL     1       2.379   3.122  17.031  0.00  0.00    +0.000 C 
BRANCH  25  27
ATOM     26  C   UNL     1       0.841   2.439  18.849  0.00  0.00    +0.000 C 
ATOM     27  C   UNL     1       1.174   3.553  17.863  0.00  0.00    +0.000 C 
ENDBRANCH  25  27
ENDBRANCH  22  25
ENDBRANCH   1  22
TORSDOF 7
ENDMDL
MODEL 9
REMARK VINA RESULT:      -7.4      3.030      6.853
REMARK  Name = 
REMARK  8 active torsions:
REMARK  status: ('A' for Active; 'I' for Inactive)
REMARK    1  A    between atoms: C_1  and  C_2
REMARK    2  A    between atoms: C_2  and  C_3
REMARK    3  A    between atoms: C_3  and  C_4
REMARK    4  A    between atoms: C_4  and  O_5
REMARK    5  A    between atoms: C_4  and  C_6
REMARK    6  A    between atoms: C_10  and  O_11
REMARK    7  A    between atoms: N_13  and  C_14
REMARK    8  A    between atoms: C_18  and  C_19
REMARK                            x       y       z     vdW  Elec       q    Type
REMARK                         _______ _______ _______ _____ _____    ______ ____
ROOT
ATOM      1  C   UNL     1       6.710   4.890  15.913  0.00  0.00    +0.000 A 
ATOM      2  C   UNL     1       7.427   4.843  14.760  0.00  0.00    +0.000 A 
ATOM      3  C   UNL     1       6.826   4.447  13.481  0.00  0.00    +0.000 A 
ATOM      4  O   UNL     1       7.464   4.414  12.431  0.00  0.00    +0.000 OA
ATOM      5  C   UNL     1       5.403   4.078  13.489  0.00  0.00    +0.000 A 
ATOM      6  C   UNL     1       4.771   4.119  14.667  0.00  0.00    +0.000 A 
ATOM      7  N   UNL     1       5.321   4.508  15.905  0.00  0.00    +0.000 N 
ENDROOT
BRANCH   7   8
ATOM      8  C   UNL     1       4.427   4.619  17.037  0.00  0.00    +0.000 A 
ATOM      9  C   UNL     1       4.012   3.478  17.753  0.00  0.00    +0.000 A 
ATOM     10  C   UNL     1       3.088   3.561  18.798  0.00  0.00    +0.000 A 
ATOM     11  C   UNL     1       2.511   4.785  19.120  0.00  0.00    +0.000 A 
ATOM     12  C   UNL     1       2.911   5.961  18.470  0.00  0.00    +0.000 A 
ATOM     13  C   UNL     1       3.926   5.847  17.495  0.00  0.00    +0.000 A 
BRANCH  12  14
ATOM     14  C   UNL     1       2.261   7.266  18.750  0.00  0.00    +0.000 A 
ATOM     15  C   UNL     1       2.097   8.243  17.754  0.00  0.00    +0.000 A 
ATOM     16  C   UNL     1       1.526   9.488  18.034  0.00  0.00    +0.000 A 
ATOM     17  C   UNL     1       1.090   9.784  19.321  0.00  0.00    +0.000 A 
ATOM     18  C   UNL     1       1.234   8.837  20.329  0.00  0.00    +0.000 A 
ATOM     19  C   UNL     1       1.822   7.598  20.048  0.00  0.00    +0.000 A 
ENDBRANCH  12  14
ENDBRANCH   7   8
BRANCH   5  20
ATOM     20  O   UNL     1       4.798   3.722  12.302  0.00  0.00    +0.000 OA
ATOM     21  H   UNL     1       4.756   4.558  11.789  0.00  0.00    +0.000 HD
ENDBRANCH   5  20
BRANCH   1  22
ATOM     22  C   UNL     1       7.472   5.364  17.181  0.00  0.00    +0.000 C 
BRANCH  22  23
ATOM     23  O   UNL     1       7.473   4.354  18.185  0.00  0.00    +0.000 OA
ATOM     24  H   UNL     1       6.924   3.617  17.871  0.00  0.00    +0.000 HD
ENDBRANCH  22  23
BRANCH  22  25
ATOM     25  C   UNL     1       6.941   6.662  17.826  0.00  0.00    +0.000 C 
BRANCH  25  27
ATOM     26  C   UNL     1       8.509   8.471  18.464  0.00  0.00    +0.000 C 
ATOM     27  C   UNL     1       7.605   7.952  17.352  0.00  0.00    +0.000 C 
ENDBRANCH  25  27
ENDBRANCH  22  25
ENDBRANCH   1  22
TORSDOF 7
ENDMDL
