MODEL 1
REMARK VINA RESULT:      -8.4      0.000      0.000
REMARK  Name = 
REMARK  4 active torsions:
REMARK  status: ('A' for Active; 'I' for Inactive)
REMARK    1  A    between atoms: C_2  and  C_3
REMARK    2  A    between atoms: C_9  and  C_10
REMARK    3  A    between atoms: C_21  and  O_22
REMARK    4  A    between atoms: O_22  and  C_23
REMARK                            x       y       z     vdW  Elec       q    Type
REMARK                         _______ _______ _______ _____ _____    ______ ____
ROOT
ATOM      1  C   UNL     1       5.138   4.302  17.515  0.00  0.00    +0.000 A 
ATOM      2  C   UNL     1       6.211   5.102  18.030  0.00  0.00    +0.000 A 
ATOM      3  C   UNL     1       7.209   5.696  17.228  0.00  0.00    +0.000 A 
ATOM      4  C   UNL     1       7.125   5.344  15.874  0.00  0.00    +0.000 A 
ATOM      5  N   UNL     1       7.917   5.690  14.850  0.00  0.00    +0.000 NA
ATOM      6  O   UNL     1       7.418   5.047  13.734  0.00  0.00    +0.000 OA
ATOM      7  C   UNL     1       6.308   4.310  14.052  0.00  0.00    +0.000 A 
ATOM      8  C   UNL     1       6.074   4.479  15.393  0.00  0.00    +0.000 A 
ATOM      9  C   UNL     1       5.033   3.939  16.152  0.00  0.00    +0.000 A 
ENDROOT
BRANCH   1  11
ATOM     10  O   UNL     1       3.885   2.548  18.416  0.00  0.00    +0.000 OA
ATOM     11  C   UNL     1       4.103   3.755  18.444  0.00  0.00    +0.000 C 
ATOM     12  N   UNL     1       3.419   4.625  19.282  0.00  0.00    +0.000 N 
ATOM     13  C   UNL     1       2.421   4.126  20.212  0.00  0.00    +0.000 C 
ATOM     14  C   UNL     1       1.417   5.261  20.339  0.00  0.00    +0.000 C 
ATOM     15  C   UNL     1       2.276   6.515  20.193  0.00  0.00    +0.000 C 
ATOM     16  C   UNL     1       3.339   6.077  19.181  0.00  0.00    +0.000 C 
BRANCH  15  17
ATOM     17  O   UNL     1       1.546   7.596  19.641  0.00  0.00    +0.000 OA
BRANCH  17  18
ATOM     18  C   UNL     1       1.268   8.616  20.484  0.00  0.00    +0.000 A 
ATOM     19  C   UNL     1       1.346   8.706  21.908  0.00  0.00    +0.000 A 
ATOM     20  N   UNL     1       0.995   9.885  22.430  0.00  0.00    +0.000 NA
ATOM     21  S   UNL     1       0.582  10.821  21.098  0.00  0.00    +0.000 S 
ATOM     22  N   UNL     1       0.858   9.722  19.867  0.00  0.00    +0.000 NA
ENDBRANCH  17  18
ENDBRANCH  15  17
ENDBRANCH   1  11
BRANCH   7  23
ATOM     23  C   UNL     1       5.708   3.587  12.939  0.00  0.00    +0.000 A 
ATOM     24  C   UNL     1       4.456   3.950  12.418  0.00  0.00    +0.000 A 
ATOM     25  C   UNL     1       3.920   3.283  11.314  0.00  0.00    +0.000 A 
ATOM     26  C   UNL     1       4.616   2.228  10.730  0.00  0.00    +0.000 A 
ATOM     27  C   UNL     1       5.842   1.831  11.255  0.00  0.00    +0.000 A 
ATOM     28  C   UNL     1       6.386   2.503  12.351  0.00  0.00    +0.000 A 
ENDBRANCH   7  23
TORSDOF 4
ENDMDL
MODEL 2
REMARK VINA RESULT:      -8.0      2.942      5.575
REMARK  Name = 
REMARK  4 active torsions:
REMARK  status: ('A' for Active; 'I' for Inactive)
REMARK    1  A    between atoms: C_2  and  C_3
REMARK    2  A    between atoms: C_9  and  C_10
REMARK    3  A    between atoms: C_21  and  O_22
REMARK    4  A    between atoms: O_22  and  C_23
REMARK                            x       y       z     vdW  Elec       q    Type
REMARK                         _______ _______ _______ _____ _____    ______ ____
ROOT
ATOM      1  C   UNL     1       2.102   7.762  19.016  0.00  0.00    +0.000 A 
ATOM      2  C   UNL     1       1.440   7.226  20.170  0.00  0.00    +0.000 A 
ATOM      3  C   UNL     1       1.769   5.992  20.769  0.00  0.00    +0.000 A 
ATOM      4  C   UNL     1       2.743   5.270  20.066  0.00  0.00    +0.000 A 
ATOM      5  N   UNL     1       3.262   4.061  20.324  0.00  0.00    +0.000 NA
ATOM      6  O   UNL     1       4.158   3.795  19.307  0.00  0.00    +0.000 OA
ATOM      7  C   UNL     1       4.212   4.836  18.420  0.00  0.00    +0.000 A 
ATOM      8  C   UNL     1       3.345   5.801  18.866  0.00  0.00    +0.000 A 
ATOM      9  C   UNL     1       3.089   7.050  18.295  0.00  0.00    +0.000 A 
ENDROOT
BRANCH   1  11
ATOM     10  O   UNL     1       2.226   9.480  17.437  0.00  0.00    +0.000 OA
ATOM     11  C   UNL     1       1.709   9.102  18.484  0.00  0.00    +0.000 C 
ATOM     12  N   UNL     1       0.798   9.871  19.195  0.00  0.00    +0.000 N 
ATOM     13  C   UNL     1       0.378  11.170  18.698  0.00  0.00    +0.000 C 
ATOM     14  C   UNL     1       0.087  11.981  19.950  0.00  0.00    +0.000 C 
ATOM     15  C   UNL     1      -0.442  10.941  20.935  0.00  0.00    +0.000 C 
ATOM     16  C   UNL     1       0.379   9.697  20.580  0.00  0.00    +0.000 C 
BRANCH  15  17
ATOM     17  O   UNL     1      -0.166  11.295  22.279  0.00  0.00    +0.000 OA
BRANCH  17  18
ATOM     18  C   UNL     1      -1.038  12.152  22.856  0.00  0.00    +0.000 A 
ATOM     19  C   UNL     1      -2.426  12.014  23.167  0.00  0.00    +0.000 A 
ATOM     20  N   UNL     1      -2.992  13.075  23.751  0.00  0.00    +0.000 NA
ATOM     21  S   UNL     1      -1.746  14.194  23.876  0.00  0.00    +0.000 S 
ATOM     22  N   UNL     1      -0.494  13.319  23.193  0.00  0.00    +0.000 NA
ENDBRANCH  17  18
ENDBRANCH  15  17
ENDBRANCH   1  11
BRANCH   7  23
ATOM     23  C   UNL     1       5.128   4.649  17.303  0.00  0.00    +0.000 A 
ATOM     24  C   UNL     1       4.661   4.359  16.011  0.00  0.00    +0.000 A 
ATOM     25  C   UNL     1       5.550   4.239  14.940  0.00  0.00    +0.000 A 
ATOM     26  C   UNL     1       6.918   4.382  15.149  0.00  0.00    +0.000 A 
ATOM     27  C   UNL     1       7.402   4.634  16.429  0.00  0.00    +0.000 A 
ATOM     28  C   UNL     1       6.517   4.767  17.500  0.00  0.00    +0.000 A 
ENDBRANCH   7  23
TORSDOF 4
ENDMDL
MODEL 3
REMARK VINA RESULT:      -7.9      3.790      9.190
REMARK  Name = 
REMARK  4 active torsions:
REMARK  status: ('A' for Active; 'I' for Inactive)
REMARK    1  A    between atoms: C_2  and  C_3
REMARK    2  A    between atoms: C_9  and  C_10
REMARK    3  A    between atoms: C_21  and  O_22
REMARK    4  A    between atoms: O_22  and  C_23
REMARK                            x       y       z     vdW  Elec       q    Type
REMARK                         _______ _______ _______ _____ _____    ______ ____
ROOT
ATOM      1  C   UNL     1       2.070   7.087  19.505  0.00  0.00    +0.000 A 
ATOM      2  C   UNL     1       2.667   7.350  18.228  0.00  0.00    +0.000 A 
ATOM      3  C   UNL     1       2.668   8.614  17.601  0.00  0.00    +0.000 A 
ATOM      4  C   UNL     1       1.933   9.585  18.295  0.00  0.00    +0.000 A 
ATOM      5  N   UNL     1       1.695  10.865  17.978  0.00  0.00    +0.000 NA
ATOM      6  O   UNL     1       0.888  11.373  18.976  0.00  0.00    +0.000 OA
ATOM      7  C   UNL     1       0.629  10.420  19.925  0.00  0.00    +0.000 A 
ATOM      8  C   UNL     1       1.282   9.275  19.546  0.00  0.00    +0.000 A 
ATOM      9  C   UNL     1       1.326   8.053  20.221  0.00  0.00    +0.000 A 
ENDROOT
BRANCH   1  11
ATOM     10  O   UNL     1       1.525   5.498  21.129  0.00  0.00    +0.000 OA
ATOM     11  C   UNL     1       2.162   5.721  20.105  0.00  0.00    +0.000 C 
ATOM     12  N   UNL     1       2.970   4.769  19.498  0.00  0.00    +0.000 N 
ATOM     13  C   UNL     1       3.067   3.426  20.042  0.00  0.00    +0.000 C 
ATOM     14  C   UNL     1       4.477   2.975  19.694  0.00  0.00    +0.000 C 
ATOM     15  C   UNL     1       4.750   3.658  18.356  0.00  0.00    +0.000 C 
ATOM     16  C   UNL     1       4.013   4.993  18.505  0.00  0.00    +0.000 C 
BRANCH  15  17
ATOM     17  O   UNL     1       6.129   3.923  18.167  0.00  0.00    +0.000 OA
BRANCH  17  18
ATOM     18  C   UNL     1       6.479   4.399  16.951  0.00  0.00    +0.000 A 
ATOM     19  C   UNL     1       7.267   5.531  16.576  0.00  0.00    +0.000 A 
ATOM     20  N   UNL     1       7.422   5.713  15.261  0.00  0.00    +0.000 NA
ATOM     21  S   UNL     1       6.564   4.450  14.564  0.00  0.00    +0.000 S 
ATOM     22  N   UNL     1       6.007   3.676  15.938  0.00  0.00    +0.000 NA
ENDBRANCH  17  18
ENDBRANCH  15  17
ENDBRANCH   1  11
BRANCH   7  23
ATOM     23  C   UNL     1      -0.222  10.858  21.023  0.00  0.00    +0.000 A 
ATOM     24  C   UNL     1      -1.055  11.982  20.904  0.00  0.00    +0.000 A 
ATOM     25  C   UNL     1      -1.907  12.354  21.946  0.00  0.00    +0.000 A 
ATOM     26  C   UNL     1      -1.921  11.624  23.131  0.00  0.00    +0.000 A 
ATOM     27  C   UNL     1      -1.077  10.528  23.281  0.00  0.00    +0.000 A 
ATOM     28  C   UNL     1      -0.233  10.146  22.237  0.00  0.00    +0.000 A 
ENDBRANCH   7  23
TORSDOF 4
ENDMDL
MODEL 4
REMARK VINA RESULT:      -7.8      3.675      8.939
REMARK  Name = 
REMARK  4 active torsions:
REMARK  status: ('A' for Active; 'I' for Inactive)
REMARK    1  A    between atoms: C_2  and  C_3
REMARK    2  A    between atoms: C_9  and  C_10
REMARK    3  A    between atoms: C_21  and  O_22
REMARK    4  A    between atoms: O_22  and  C_23
REMARK                            x       y       z     vdW  Elec       q    Type
REMARK                         _______ _______ _______ _____ _____    ______ ____
ROOT
ATOM      1  C   UNL     1       2.032   6.954  19.409  0.00  0.00    +0.000 A 
ATOM      2  C   UNL     1       2.640   7.229  18.140  0.00  0.00    +0.000 A 
ATOM      3  C   UNL     1       2.695   8.509  17.550  0.00  0.00    +0.000 A 
ATOM      4  C   UNL     1       2.000   9.490  18.270  0.00  0.00    +0.000 A 
ATOM      5  N   UNL     1       1.816  10.787  17.989  0.00  0.00    +0.000 NA
ATOM      6  O   UNL     1       1.029  11.299  19.002  0.00  0.00    +0.000 OA
ATOM      7  C   UNL     1       0.730  10.332  19.924  0.00  0.00    +0.000 A 
ATOM      8  C   UNL     1       1.335   9.172  19.512  0.00  0.00    +0.000 A 
ATOM      9  C   UNL     1       1.328   7.931  20.153  0.00  0.00    +0.000 A 
ENDROOT
BRANCH   1  11
ATOM     10  O   UNL     1       1.252   5.282  20.842  0.00  0.00    +0.000 OA
ATOM     11  C   UNL     1       2.066   5.569  19.970  0.00  0.00    +0.000 C 
ATOM     12  N   UNL     1       3.019   4.675  19.503  0.00  0.00    +0.000 N 
ATOM     13  C   UNL     1       3.068   3.314  20.012  0.00  0.00    +0.000 C 
ATOM     14  C   UNL     1       4.538   2.932  19.932  0.00  0.00    +0.000 C 
ATOM     15  C   UNL     1       5.035   3.679  18.697  0.00  0.00    +0.000 C 
ATOM     16  C   UNL     1       4.224   4.978  18.742  0.00  0.00    +0.000 C 
BRANCH  15  17
ATOM     17  O   UNL     1       6.411   4.003  18.791  0.00  0.00    +0.000 OA
BRANCH  17  18
ATOM     18  C   UNL     1       6.825   5.053  18.047  0.00  0.00    +0.000 A 
ATOM     19  C   UNL     1       6.919   5.223  16.631  0.00  0.00    +0.000 A 
ATOM     20  N   UNL     1       7.373   6.412  16.224  0.00  0.00    +0.000 NA
ATOM     21  S   UNL     1       7.661   7.255  17.647  0.00  0.00    +0.000 S 
ATOM     22  N   UNL     1       7.200   6.105  18.771  0.00  0.00    +0.000 NA
ENDBRANCH  17  18
ENDBRANCH  15  17
ENDBRANCH   1  11
BRANCH   7  23
ATOM     23  C   UNL     1      -0.104  10.773  21.034  0.00  0.00    +0.000 A 
ATOM     24  C   UNL     1      -0.881  11.939  20.949  0.00  0.00    +0.000 A 
ATOM     25  C   UNL     1      -1.718  12.317  22.002  0.00  0.00    +0.000 A 
ATOM     26  C   UNL     1      -1.772  11.550  23.162  0.00  0.00    +0.000 A 
ATOM     27  C   UNL     1      -0.982  10.410  23.277  0.00  0.00    +0.000 A 
ATOM     28  C   UNL     1      -0.153  10.023  22.223  0.00  0.00    +0.000 A 
ENDBRANCH   7  23
TORSDOF 4
ENDMDL
MODEL 5
REMARK VINA RESULT:      -7.6      5.206      8.293
REMARK  Name = 
REMARK  4 active torsions:
REMARK  status: ('A' for Active; 'I' for Inactive)
REMARK    1  A    between atoms: C_2  and  C_3
REMARK    2  A    between atoms: C_9  and  C_10
REMARK    3  A    between atoms: C_21  and  O_22
REMARK    4  A    between atoms: O_22  and  C_23
REMARK                            x       y       z     vdW  Elec       q    Type
REMARK                         _______ _______ _______ _____ _____    ______ ____
ROOT
ATOM      1  C   UNL     1       0.636  10.090  20.838  0.00  0.00    +0.000 A 
ATOM      2  C   UNL     1       0.857  11.042  19.789  0.00  0.00    +0.000 A 
ATOM      3  C   UNL     1       1.411  10.721  18.533  0.00  0.00    +0.000 A 
ATOM      4  C   UNL     1       1.835   9.389  18.430  0.00  0.00    +0.000 A 
ATOM      5  N   UNL     1       2.430   8.757  17.409  0.00  0.00    +0.000 NA
ATOM      6  O   UNL     1       2.670   7.465  17.834  0.00  0.00    +0.000 OA
ATOM      7  C   UNL     1       2.216   7.280  19.113  0.00  0.00    +0.000 A 
ATOM      8  C   UNL     1       1.665   8.466  19.528  0.00  0.00    +0.000 A 
ATOM      9  C   UNL     1       1.054   8.741  20.754  0.00  0.00    +0.000 A 
ENDROOT
BRANCH   1  11
ATOM     10  O   UNL     1       0.394  10.008  23.161  0.00  0.00    +0.000 OA
ATOM     11  C   UNL     1       0.000  10.523  22.120  0.00  0.00    +0.000 C 
ATOM     12  N   UNL     1      -1.016  11.468  22.083  0.00  0.00    +0.000 N 
ATOM     13  C   UNL     1      -1.643  11.927  23.311  0.00  0.00    +0.000 C 
ATOM     14  C   UNL     1      -3.071  12.261  22.907  0.00  0.00    +0.000 C 
ATOM     15  C   UNL     1      -2.927  12.765  21.472  0.00  0.00    +0.000 C 
ATOM     16  C   UNL     1      -1.790  11.897  20.925  0.00  0.00    +0.000 C 
BRANCH  15  17
ATOM     17  O   UNL     1      -4.092  12.517  20.705  0.00  0.00    +0.000 OA
BRANCH  17  18
ATOM     18  C   UNL     1      -5.255  12.958  21.235  0.00  0.00    +0.000 A 
ATOM     19  C   UNL     1      -5.678  14.269  21.617  0.00  0.00    +0.000 A 
ATOM     20  N   UNL     1      -6.916  14.351  22.112  0.00  0.00    +0.000 NA
ATOM     21  S   UNL     1      -7.485  12.772  22.074  0.00  0.00    +0.000 S 
ATOM     22  N   UNL     1      -6.155  11.995  21.422  0.00  0.00    +0.000 NA
ENDBRANCH  17  18
ENDBRANCH  15  17
ENDBRANCH   1  11
BRANCH   7  23
ATOM     23  C   UNL     1       2.428   5.945  19.656  0.00  0.00    +0.000 A 
ATOM     24  C   UNL     1       1.494   5.347  20.517  0.00  0.00    +0.000 A 
ATOM     25  C   UNL     1       1.686   4.044  20.984  0.00  0.00    +0.000 A 
ATOM     26  C   UNL     1       2.823   3.331  20.617  0.00  0.00    +0.000 A 
ATOM     27  C   UNL     1       3.777   3.921  19.794  0.00  0.00    +0.000 A 
ATOM     28  C   UNL     1       3.584   5.218  19.316  0.00  0.00    +0.000 A 
ENDBRANCH   7  23
TORSDOF 4
ENDMDL
MODEL 6
REMARK VINA RESULT:      -7.5      5.991     10.021
REMARK  Name = 
REMARK  4 active torsions:
REMARK  status: ('A' for Active; 'I' for Inactive)
REMARK    1  A    between atoms: C_2  and  C_3
REMARK    2  A    between atoms: C_9  and  C_10
REMARK    3  A    between atoms: C_21  and  O_22
REMARK    4  A    between atoms: O_22  and  C_23
REMARK                            x       y       z     vdW  Elec       q    Type
REMARK                         _______ _______ _______ _____ _____    ______ ____
ROOT
ATOM      1  C   UNL     1      -1.926  11.345  19.080  0.00  0.00    +0.000 A 
ATOM      2  C   UNL     1      -2.160  12.137  20.253  0.00  0.00    +0.000 A 
ATOM      3  C   UNL     1      -1.350  12.099  21.407  0.00  0.00    +0.000 A 
ATOM      4  C   UNL     1      -0.340  11.129  21.353  0.00  0.00    +0.000 A 
ATOM      5  N   UNL     1       0.577  10.797  22.272  0.00  0.00    +0.000 NA
ATOM      6  O   UNL     1       1.309   9.756  21.737  0.00  0.00    +0.000 OA
ATOM      7  C   UNL     1       0.864   9.442  20.481  0.00  0.00    +0.000 A 
ATOM      8  C   UNL     1      -0.170  10.294  20.187  0.00  0.00    +0.000 A 
ATOM      9  C   UNL     1      -0.912  10.362  19.005  0.00  0.00    +0.000 A 
ENDROOT
BRANCH   1  11
ATOM     10  O   UNL     1      -2.293  11.589  16.786  0.00  0.00    +0.000 OA
ATOM     11  C   UNL     1      -2.818  11.491  17.890  0.00  0.00    +0.000 C 
ATOM     12  N   UNL     1      -4.193  11.529  18.077  0.00  0.00    +0.000 N 
ATOM     13  C   UNL     1      -5.091  11.650  16.941  0.00  0.00    +0.000 C 
ATOM     14  C   UNL     1      -6.291  12.410  17.483  0.00  0.00    +0.000 C 
ATOM     15  C   UNL     1      -6.385  11.941  18.934  0.00  0.00    +0.000 C 
ATOM     16  C   UNL     1      -4.914  11.758  19.322  0.00  0.00    +0.000 C 
BRANCH  15  17
ATOM     17  O   UNL     1      -6.954  12.928  19.775  0.00  0.00    +0.000 OA
BRANCH  17  18
ATOM     18  C   UNL     1      -7.171  12.561  21.057  0.00  0.00    +0.000 A 
ATOM     19  C   UNL     1      -7.912  11.471  21.611  0.00  0.00    +0.000 A 
ATOM     20  N   UNL     1      -7.917  11.398  22.945  0.00  0.00    +0.000 NA
ATOM     21  S   UNL     1      -6.989  12.709  23.435  0.00  0.00    +0.000 S 
ATOM     22  N   UNL     1      -6.582  13.357  21.947  0.00  0.00    +0.000 NA
ENDBRANCH  17  18
ENDBRANCH  15  17
ENDBRANCH   1  11
BRANCH   7  23
ATOM     23  C   UNL     1       1.572   8.348  19.830  0.00  0.00    +0.000 A 
ATOM     24  C   UNL     1       1.767   7.115  20.472  0.00  0.00    +0.000 A 
ATOM     25  C   UNL     1       2.399   6.058  19.813  0.00  0.00    +0.000 A 
ATOM     26  C   UNL     1       2.866   6.225  18.512  0.00  0.00    +0.000 A 
ATOM     27  C   UNL     1       2.713   7.452  17.872  0.00  0.00    +0.000 A 
ATOM     28  C   UNL     1       2.072   8.506  18.524  0.00  0.00    +0.000 A 
ENDBRANCH   7  23
TORSDOF 4
ENDMDL
MODEL 7
REMARK VINA RESULT:      -7.4      1.279      1.892
REMARK  Name = 
REMARK  4 active torsions:
REMARK  status: ('A' for Active; 'I' for Inactive)
REMARK    1  A    between atoms: C_2  and  C_3
REMARK    2  A    between atoms: C_9  and  C_10
REMARK    3  A    between atoms: C_21  and  O_22
REMARK    4  A    between atoms: O_22  and  C_23
REMARK                            x       y       z     vdW  Elec       q    Type
REMARK                         _______ _______ _______ _____ _____    ______ ____
ROOT
ATOM      1  C   UNL     1       4.864   3.848  17.553  0.00  0.00    +0.000 A 
ATOM      2  C   UNL     1       5.816   4.696  18.210  0.00  0.00    +0.000 A 
ATOM      3  C   UNL     1       6.801   5.449  17.538  0.00  0.00    +0.000 A 
ATOM      4  C   UNL     1       6.843   5.213  16.157  0.00  0.00    +0.000 A 
ATOM      5  N   UNL     1       7.663   5.721  15.227  0.00  0.00    +0.000 NA
ATOM      6  O   UNL     1       7.306   5.137  14.028  0.00  0.00    +0.000 OA
ATOM      7  C   UNL     1       6.257   4.274  14.199  0.00  0.00    +0.000 A 
ATOM      8  C   UNL     1       5.918   4.299  15.528  0.00  0.00    +0.000 A 
ATOM      9  C   UNL     1       4.888   3.599  16.160  0.00  0.00    +0.000 A 
ENDROOT
BRANCH   1  11
ATOM     10  O   UNL     1       3.534   1.984  18.015  0.00  0.00    +0.000 OA
ATOM     11  C   UNL     1       3.829   3.125  18.353  0.00  0.00    +0.000 C 
ATOM     12  N   UNL     1       3.232   3.772  19.426  0.00  0.00    +0.000 N 
ATOM     13  C   UNL     1       2.236   3.093  20.238  0.00  0.00    +0.000 C 
ATOM     14  C   UNL     1       1.312   4.203  20.713  0.00  0.00    +0.000 C 
ATOM     15  C   UNL     1       2.243   5.404  20.864  0.00  0.00    +0.000 C 
ATOM     16  C   UNL     1       3.241   5.200  19.719  0.00  0.00    +0.000 C 
BRANCH  15  17
ATOM     17  O   UNL     1       1.566   6.631  20.658  0.00  0.00    +0.000 OA
BRANCH  17  18
ATOM     18  C   UNL     1       1.952   7.347  19.579  0.00  0.00    +0.000 A 
ATOM     19  C   UNL     1       2.753   6.989  18.451  0.00  0.00    +0.000 A 
ATOM     20  N   UNL     1       2.938   7.957  17.548  0.00  0.00    +0.000 NA
ATOM     21  S   UNL     1       2.095   9.270  18.167  0.00  0.00    +0.000 S 
ATOM     22  N   UNL     1       1.494   8.597  19.577  0.00  0.00    +0.000 NA
ENDBRANCH  17  18
ENDBRANCH  15  17
ENDBRANCH   1  11
BRANCH   7  23
ATOM     23  C   UNL     1       5.808   3.600  12.988  0.00  0.00    +0.000 A 
ATOM     24  C   UNL     1       6.611   2.653  12.335  0.00  0.00    +0.000 A 
ATOM     25  C   UNL     1       6.142   1.975  11.207  0.00  0.00    +0.000 A 
ATOM     26  C   UNL     1       4.874   2.251  10.703  0.00  0.00    +0.000 A 
ATOM     27  C   UNL     1       4.078   3.213  11.317  0.00  0.00    +0.000 A 
ATOM     28  C   UNL     1       4.538   3.884  12.451  0.00  0.00    +0.000 A 
ENDBRANCH   7  23
TORSDOF 4
ENDMDL
MODEL 8
REMARK VINA RESULT:      -7.3      3.908      7.003
REMARK  Name = 
REMARK  4 active torsions:
REMARK  status: ('A' for Active; 'I' for Inactive)
REMARK    1  A    between atoms: C_2  and  C_3
REMARK    2  A    between atoms: C_9  and  C_10
REMARK    3  A    between atoms: C_21  and  O_22
REMARK    4  A    between atoms: O_22  and  C_23
REMARK                            x       y       z     vdW  Elec       q    Type
REMARK                         _______ _______ _______ _____ _____    ______ ____
ROOT
ATOM      1  C   UNL     1       1.418   9.512  19.340  0.00  0.00    +0.000 A 
ATOM      2  C   UNL     1       0.724   9.174  20.549  0.00  0.00    +0.000 A 
ATOM      3  C   UNL     1       0.847   7.935  21.211  0.00  0.00    +0.000 A 
ATOM      4  C   UNL     1       1.636   7.005  20.521  0.00  0.00    +0.000 A 
ATOM      5  N   UNL     1       1.935   5.737  20.835  0.00  0.00    +0.000 NA
ATOM      6  O   UNL     1       2.716   5.252  19.805  0.00  0.00    +0.000 OA
ATOM      7  C   UNL     1       2.919   6.214  18.852  0.00  0.00    +0.000 A 
ATOM      8  C   UNL     1       2.268   7.347  19.268  0.00  0.00    +0.000 A 
ATOM      9  C   UNL     1       2.221   8.589  18.630  0.00  0.00    +0.000 A 
ENDROOT
BRANCH   1  11
ATOM     10  O   UNL     1       2.174  11.314  18.060  0.00  0.00    +0.000 OA
ATOM     11  C   UNL     1       1.254  10.871  18.739  0.00  0.00    +0.000 C 
ATOM     12  N   UNL     1       0.087  11.582  18.984  0.00  0.00    +0.000 N 
ATOM     13  C   UNL     1      -0.114  12.897  18.400  0.00  0.00    +0.000 C 
ATOM     14  C   UNL     1      -0.978  13.634  19.412  0.00  0.00    +0.000 C 
ATOM     15  C   UNL     1      -1.853  12.531  20.004  0.00  0.00    +0.000 C 
ATOM     16  C   UNL     1      -0.909  11.325  20.017  0.00  0.00    +0.000 C 
BRANCH  15  17
ATOM     17  O   UNL     1      -2.236  12.818  21.338  0.00  0.00    +0.000 OA
BRANCH  17  18
ATOM     18  C   UNL     1      -3.558  12.730  21.607  0.00  0.00    +0.000 A 
ATOM     19  C   UNL     1      -4.269  12.750  22.846  0.00  0.00    +0.000 A 
ATOM     20  N   UNL     1      -5.597  12.643  22.748  0.00  0.00    +0.000 NA
ATOM     21  S   UNL     1      -5.883  12.519  21.099  0.00  0.00    +0.000 S 
ATOM     22  N   UNL     1      -4.316  12.609  20.519  0.00  0.00    +0.000 NA
ENDBRANCH  17  18
ENDBRANCH  15  17
ENDBRANCH   1  11
BRANCH   7  23
ATOM     23  C   UNL     1       3.731   5.797  17.716  0.00  0.00    +0.000 A 
ATOM     24  C   UNL     1       4.442   6.727  16.942  0.00  0.00    +0.000 A 
ATOM     25  C   UNL     1       5.260   6.305  15.892  0.00  0.00    +0.000 A 
ATOM     26  C   UNL     1       5.360   4.951  15.585  0.00  0.00    +0.000 A 
ATOM     27  C   UNL     1       4.634   4.018  16.318  0.00  0.00    +0.000 A 
ATOM     28  C   UNL     1       3.824   4.435  17.376  0.00  0.00    +0.000 A 
ENDBRANCH   7  23
TORSDOF 4
ENDMDL
MODEL 9
REMARK VINA RESULT:      -7.3      3.382      8.872
REMARK  Name = 
REMARK  4 active torsions:
REMARK  status: ('A' for Active; 'I' for Inactive)
REMARK    1  A    between atoms: C_2  and  C_3
REMARK    2  A    between atoms: C_9  and  C_10
REMARK    3  A    between atoms: C_21  and  O_22
REMARK    4  A    between atoms: O_22  and  C_23
REMARK                            x       y       z     vdW  Elec       q    Type
REMARK                         _______ _______ _______ _____ _____    ______ ____
ROOT
ATOM      1  C   UNL     1       2.191   6.960  19.386  0.00  0.00    +0.000 A 
ATOM      2  C   UNL     1       2.783   7.232  18.109  0.00  0.00    +0.000 A 
ATOM      3  C   UNL     1       2.792   8.502  17.495  0.00  0.00    +0.000 A 
ATOM      4  C   UNL     1       2.067   9.472  18.201  0.00  0.00    +0.000 A 
ATOM      5  N   UNL     1       1.838  10.757  17.898  0.00  0.00    +0.000 NA
ATOM      6  O   UNL     1       1.039  11.261  18.905  0.00  0.00    +0.000 OA
ATOM      7  C   UNL     1       0.777  10.301  19.846  0.00  0.00    +0.000 A 
ATOM      8  C   UNL     1       1.419   9.155  19.452  0.00  0.00    +0.000 A 
ATOM      9  C   UNL     1       1.457   7.926  20.115  0.00  0.00    +0.000 A 
ENDROOT
BRANCH   1  11
ATOM     10  O   UNL     1       2.034   5.457  21.168  0.00  0.00    +0.000 OA
ATOM     11  C   UNL     1       2.274   5.588  19.972  0.00  0.00    +0.000 C 
ATOM     12  N   UNL     1       2.634   4.525  19.155  0.00  0.00    +0.000 N 
ATOM     13  C   UNL     1       2.706   3.175  19.686  0.00  0.00    +0.000 C 
ATOM     14  C   UNL     1       3.794   2.500  18.865  0.00  0.00    +0.000 C 
ATOM     15  C   UNL     1       3.659   3.152  17.490  0.00  0.00    +0.000 C 
ATOM     16  C   UNL     1       3.257   4.588  17.839  0.00  0.00    +0.000 C 
BRANCH  15  17
ATOM     17  O   UNL     1       4.893   3.185  16.796  0.00  0.00    +0.000 OA
BRANCH  17  18
ATOM     18  C   UNL     1       5.474   4.400  16.677  0.00  0.00    +0.000 A 
ATOM     19  C   UNL     1       5.207   5.487  15.789  0.00  0.00    +0.000 A 
ATOM     20  N   UNL     1       5.982   6.564  15.950  0.00  0.00    +0.000 NA
ATOM     21  S   UNL     1       7.009   6.151  17.211  0.00  0.00    +0.000 S 
ATOM     22  N   UNL     1       6.458   4.608  17.549  0.00  0.00    +0.000 NA
ENDBRANCH  17  18
ENDBRANCH  15  17
ENDBRANCH   1  11
BRANCH   7  23
ATOM     23  C   UNL     1      -0.066  10.734  20.952  0.00  0.00    +0.000 A 
ATOM     24  C   UNL     1      -0.894  11.862  20.845  0.00  0.00    +0.000 A 
ATOM     25  C   UNL     1      -1.738  12.231  21.895  0.00  0.00    +0.000 A 
ATOM     26  C   UNL     1      -1.750  11.492  23.074  0.00  0.00    +0.000 A 
ATOM     27  C   UNL     1      -0.910  10.391  23.212  0.00  0.00    +0.000 A 
ATOM     28  C   UNL     1      -0.073  10.013  22.160  0.00  0.00    +0.000 A 
ENDBRANCH   7  23
TORSDOF 4
ENDMDL
