MODEL 1
REMARK VINA RESULT:      -8.0      0.000      0.000
REMARK  Name = 
REMARK  8 active torsions:
REMARK  status: ('A' for Active; 'I' for Inactive)
REMARK    1  A    between atoms: C_1  and  O_2
REMARK    2  A    between atoms: O_2  and  C_3
REMARK    3  A    between atoms: C_8  and  N_9
REMARK    4  A    between atoms: C_12  and  C_13
REMARK    5  A    between atoms: C_16  and  N_17
REMARK    6  A    between atoms: C_18  and  C_20
REMARK    7  A    between atoms: C_21  and  C_22
REMARK    8  A    between atoms: C_21  and  C_23
REMARK                            x       y       z     vdW  Elec       q    Type
REMARK                         _______ _______ _______ _____ _____    ______ ____
ROOT
ATOM      1  N   UNL     1       1.811   7.121  20.886  0.00  0.00    +0.000 N 
ATOM      2  C   UNL     1       1.286   8.358  20.747  0.00  0.00    +0.000 A 
ATOM      3  N   UNL     1       0.900   8.897  19.617  0.00  0.00    +0.000 NA
ATOM      4  C   UNL     1       0.375  10.173  19.816  0.00  0.00    +0.000 A 
ATOM      5  C   UNL     1       0.355  10.589  21.138  0.00  0.00    +0.000 A 
ATOM      6  S   UNL     1       1.044   9.356  22.114  0.00  0.00    +0.000 S 
ATOM      7  H   UNL     1       1.890   6.740  21.821  0.00  0.00    +0.000 HD
ENDROOT
BRANCH   1  13
ATOM      8  C   UNL     1       5.134   4.640  15.936  0.00  0.00    +0.000 A 
ATOM      9  C   UNL     1       5.449   5.991  16.076  0.00  0.00    +0.000 A 
ATOM     10  C   UNL     1       4.861   6.750  17.094  0.00  0.00    +0.000 A 
ATOM     11  C   UNL     1       3.943   6.173  17.983  0.00  0.00    +0.000 A 
ATOM     12  C   UNL     1       3.309   6.924  18.991  0.00  0.00    +0.000 A 
ATOM     13  C   UNL     1       2.380   6.341  19.863  0.00  0.00    +0.000 A 
ATOM     14  C   UNL     1       2.121   4.971  19.724  0.00  0.00    +0.000 A 
ATOM     15  C   UNL     1       2.744   4.207  18.738  0.00  0.00    +0.000 A 
ATOM     16  C   UNL     1       3.647   4.799  17.855  0.00  0.00    +0.000 A 
ATOM     17  C   UNL     1       4.251   4.048  16.838  0.00  0.00    +0.000 A 
BRANCH   8  19
ATOM     18  C   UNL     1       6.539   4.343  14.047  0.00  0.00    +0.000 C 
ATOM     19  O   UNL     1       5.613   3.794  14.975  0.00  0.00    +0.000 OA
ENDBRANCH   8  19
ENDBRANCH   1  13
BRANCH   4  20
ATOM     20  C   UNL     1      -0.146  10.890  18.655  0.00  0.00    +0.000 C 
ATOM     21  N   UNL     1      -0.549  10.048  17.653  0.00  0.00    +0.000 N 
ATOM     22  O   UNL     1      -0.231  12.106  18.584  0.00  0.00    +0.000 OA
ATOM     23  H   UNL     1      -0.511   9.046  17.820  0.00  0.00    +0.000 HD
ATOM     24  H   UNL     1      -1.019  10.404  16.836  0.00  0.00    +0.000 HD
ENDBRANCH   4  20
BRANCH   5  25
ATOM     25  N   UNL     1      -0.077  11.791  21.706  0.00  0.00    +0.000 N 
ATOM     26  C   UNL     1      -0.974  11.847  22.751  0.00  0.00    +0.000 C 
ATOM     27  O   UNL     1      -1.623  10.902  23.191  0.00  0.00    +0.000 OA
ATOM     28  H   UNL     1       0.201  12.644  21.226  0.00  0.00    +0.000 HD
BRANCH  26  29
ATOM     29  C   UNL     1      -1.239  13.215  23.303  0.00  0.00    +0.000 C 
ATOM     30  C   UNL     1      -2.244  13.995  22.843  0.00  0.00    +0.000 C 
ATOM     31  C   UNL     1      -3.358  13.547  21.925  0.00  0.00    +0.000 C 
ATOM     32  C   UNL     1      -2.327  15.462  23.180  0.00  0.00    +0.000 C 
ENDBRANCH  26  29
ENDBRANCH   5  25
TORSDOF 5
ENDMDL
MODEL 2
REMARK VINA RESULT:      -7.7      1.333      1.429
REMARK  Name = 
REMARK  8 active torsions:
REMARK  status: ('A' for Active; 'I' for Inactive)
REMARK    1  A    between atoms: C_1  and  O_2
REMARK    2  A    between atoms: O_2  and  C_3
REMARK    3  A    between atoms: C_8  and  N_9
REMARK    4  A    between atoms: C_12  and  C_13
REMARK    5  A    between atoms: C_16  and  N_17
REMARK    6  A    between atoms: C_18  and  C_20
REMARK    7  A    between atoms: C_21  and  C_22
REMARK    8  A    between atoms: C_21  and  C_23
REMARK                            x       y       z     vdW  Elec       q    Type
REMARK                         _______ _______ _______ _____ _____    ______ ____
ROOT
ATOM      1  N   UNL     1       1.625   7.342  20.938  0.00  0.00    +0.000 N 
ATOM      2  C   UNL     1       1.081   8.564  20.753  0.00  0.00    +0.000 A 
ATOM      3  N   UNL     1       0.699   9.059  19.601  0.00  0.00    +0.000 NA
ATOM      4  C   UNL     1       0.151  10.332  19.752  0.00  0.00    +0.000 A 
ATOM      5  C   UNL     1       0.109  10.791  21.059  0.00  0.00    +0.000 A 
ATOM      6  S   UNL     1       0.806   9.602  22.083  0.00  0.00    +0.000 S 
ATOM      7  H   UNL     1       1.699   6.993  21.886  0.00  0.00    +0.000 HD
ENDROOT
BRANCH   1  13
ATOM      8  C   UNL     1       4.966   4.782  16.042  0.00  0.00    +0.000 A 
ATOM      9  C   UNL     1       5.180   6.159  16.080  0.00  0.00    +0.000 A 
ATOM     10  C   UNL     1       4.569   6.941  17.067  0.00  0.00    +0.000 A 
ATOM     11  C   UNL     1       3.728   6.358  18.026  0.00  0.00    +0.000 A 
ATOM     12  C   UNL     1       3.071   7.128  19.005  0.00  0.00    +0.000 A 
ATOM     13  C   UNL     1       2.219   6.538  19.948  0.00  0.00    +0.000 A 
ATOM     14  C   UNL     1       2.062   5.146  19.910  0.00  0.00    +0.000 A 
ATOM     15  C   UNL     1       2.709   4.365  18.954  0.00  0.00    +0.000 A 
ATOM     16  C   UNL     1       3.534   4.961  18.000  0.00  0.00    +0.000 A 
ATOM     17  C   UNL     1       4.161   4.189  17.013  0.00  0.00    +0.000 A 
BRANCH   8  19
ATOM     18  C   UNL     1       6.628   4.341  14.406  0.00  0.00    +0.000 C 
ATOM     19  O   UNL     1       5.478   3.910  15.121  0.00  0.00    +0.000 OA
ENDBRANCH   8  19
ENDBRANCH   1  13
BRANCH   4  20
ATOM     20  C   UNL     1      -0.367  11.001  18.562  0.00  0.00    +0.000 C 
ATOM     21  N   UNL     1      -0.741  10.119  17.582  0.00  0.00    +0.000 N 
ATOM     22  O   UNL     1      -0.476  12.213  18.451  0.00  0.00    +0.000 OA
ATOM     23  H   UNL     1      -0.686   9.125  17.782  0.00  0.00    +0.000 HD
ATOM     24  H   UNL     1      -1.207  10.440  16.748  0.00  0.00    +0.000 HD
ENDBRANCH   4  20
BRANCH   5  25
ATOM     25  N   UNL     1      -0.349  12.004  21.581  0.00  0.00    +0.000 N 
ATOM     26  C   UNL     1       0.422  13.146  21.610  0.00  0.00    +0.000 C 
ATOM     27  O   UNL     1       1.622  13.209  21.355  0.00  0.00    +0.000 OA
ATOM     28  H   UNL     1      -1.243  11.980  22.066  0.00  0.00    +0.000 HD
BRANCH  26  29
ATOM     29  C   UNL     1      -0.269  14.380  22.106  0.00  0.00    +0.000 C 
ATOM     30  C   UNL     1      -0.633  15.385  21.276  0.00  0.00    +0.000 C 
ATOM     31  C   UNL     1      -0.628  15.325  19.765  0.00  0.00    +0.000 C 
ATOM     32  C   UNL     1      -1.052  16.734  21.800  0.00  0.00    +0.000 C 
ENDBRANCH  26  29
ENDBRANCH   5  25
TORSDOF 5
ENDMDL
MODEL 3
REMARK VINA RESULT:      -7.6      1.403      1.422
REMARK  Name = 
REMARK  8 active torsions:
REMARK  status: ('A' for Active; 'I' for Inactive)
REMARK    1  A    between atoms: C_1  and  O_2
REMARK    2  A    between atoms: O_2  and  C_3
REMARK    3  A    between atoms: C_8  and  N_9
REMARK    4  A    between atoms: C_12  and  C_13
REMARK    5  A    between atoms: C_16  and  N_17
REMARK    6  A    between atoms: C_18  and  C_20
REMARK    7  A    between atoms: C_21  and  C_22
REMARK    8  A    between atoms: C_21  and  C_23
REMARK                            x       y       z     vdW  Elec       q    Type
REMARK                         _______ _______ _______ _____ _____    ______ ____
ROOT
ATOM      1  N   UNL     1       2.122   6.773  20.460  0.00  0.00    +0.000 N 
ATOM      2  C   UNL     1       1.535   7.989  20.421  0.00  0.00    +0.000 A 
ATOM      3  N   UNL     1       1.162   8.618  19.334  0.00  0.00    +0.000 NA
ATOM      4  C   UNL     1       0.561   9.840  19.634  0.00  0.00    +0.000 A 
ATOM      5  C   UNL     1       0.470  10.120  20.987  0.00  0.00    +0.000 A 
ATOM      6  S   UNL     1       1.189   8.833  21.867  0.00  0.00    +0.000 S 
ATOM      7  H   UNL     1       2.187   6.306  21.356  0.00  0.00    +0.000 HD
ENDROOT
BRANCH   1  13
ATOM      8  C   UNL     1       6.152   4.531  15.941  0.00  0.00    +0.000 A 
ATOM      9  C   UNL     1       6.790   5.527  16.678  0.00  0.00    +0.000 A 
ATOM     10  C   UNL     1       6.121   6.163  17.730  0.00  0.00    +0.000 A 
ATOM     11  C   UNL     1       4.801   5.818  18.056  0.00  0.00    +0.000 A 
ATOM     12  C   UNL     1       4.094   6.470  19.085  0.00  0.00    +0.000 A 
ATOM     13  C   UNL     1       2.770   6.129  19.391  0.00  0.00    +0.000 A 
ATOM     14  C   UNL     1       2.175   5.091  18.661  0.00  0.00    +0.000 A 
ATOM     15  C   UNL     1       2.860   4.428  17.644  0.00  0.00    +0.000 A 
ATOM     16  C   UNL     1       4.168   4.790  17.325  0.00  0.00    +0.000 A 
ATOM     17  C   UNL     1       4.853   4.154  16.282  0.00  0.00    +0.000 A 
BRANCH   8  19
ATOM     18  C   UNL     1       5.956   3.923  13.655  0.00  0.00    +0.000 C 
ATOM     19  O   UNL     1       6.678   3.851  14.878  0.00  0.00    +0.000 OA
ENDBRANCH   8  19
ENDBRANCH   1  13
BRANCH   4  20
ATOM     20  C   UNL     1       0.045  10.641  18.527  0.00  0.00    +0.000 C 
ATOM     21  N   UNL     1       0.910  11.633  18.145  0.00  0.00    +0.000 N 
ATOM     22  O   UNL     1      -1.031  10.444  17.984  0.00  0.00    +0.000 OA
ATOM     23  H   UNL     1       1.817  11.683  18.601  0.00  0.00    +0.000 HD
ATOM     24  H   UNL     1       0.724  12.195  17.331  0.00  0.00    +0.000 HD
ENDBRANCH   4  20
BRANCH   5  25
ATOM     25  N   UNL     1      -0.047  11.237  21.651  0.00  0.00    +0.000 N 
ATOM     26  C   UNL     1       0.507  12.495  21.544  0.00  0.00    +0.000 C 
ATOM     27  O   UNL     1       1.584  12.763  21.018  0.00  0.00    +0.000 OA
ATOM     28  H   UNL     1      -0.782  11.060  22.330  0.00  0.00    +0.000 HD
BRANCH  26  29
ATOM     29  C   UNL     1      -0.243  13.592  22.237  0.00  0.00    +0.000 C 
ATOM     30  C   UNL     1      -1.294  14.221  21.662  0.00  0.00    +0.000 C 
ATOM     31  C   UNL     1      -2.003  13.779  20.401  0.00  0.00    +0.000 C 
ATOM     32  C   UNL     1      -1.854  15.503  22.221  0.00  0.00    +0.000 C 
ENDBRANCH  26  29
ENDBRANCH   5  25
TORSDOF 5
ENDMDL
MODEL 4
REMARK VINA RESULT:      -7.6      2.260      3.349
REMARK  Name = 
REMARK  8 active torsions:
REMARK  status: ('A' for Active; 'I' for Inactive)
REMARK    1  A    between atoms: C_1  and  O_2
REMARK    2  A    between atoms: O_2  and  C_3
REMARK    3  A    between atoms: C_8  and  N_9
REMARK    4  A    between atoms: C_12  and  C_13
REMARK    5  A    between atoms: C_16  and  N_17
REMARK    6  A    between atoms: C_18  and  C_20
REMARK    7  A    between atoms: C_21  and  C_22
REMARK    8  A    between atoms: C_21  and  C_23
REMARK                            x       y       z     vdW  Elec       q    Type
REMARK                         _______ _______ _______ _____ _____    ______ ____
ROOT
ATOM      1  N   UNL     1       0.508   9.874  20.708  0.00  0.00    +0.000 N 
ATOM      2  C   UNL     1      -0.452  10.702  20.242  0.00  0.00    +0.000 A 
ATOM      3  N   UNL     1      -1.083  10.568  19.102  0.00  0.00    +0.000 NA
ATOM      4  C   UNL     1      -2.036  11.571  18.927  0.00  0.00    +0.000 A 
ATOM      5  C   UNL     1      -2.128  12.468  19.978  0.00  0.00    +0.000 A 
ATOM      6  S   UNL     1      -0.966  12.044  21.169  0.00  0.00    +0.000 S 
ATOM      7  H   UNL     1       0.783   9.964  21.679  0.00  0.00    +0.000 HD
ENDROOT
BRANCH   1  13
ATOM      8  C   UNL     1       3.753   4.873  18.228  0.00  0.00    +0.000 A 
ATOM      9  C   UNL     1       3.322   4.555  19.515  0.00  0.00    +0.000 A 
ATOM     10  C   UNL     1       2.582   5.480  20.260  0.00  0.00    +0.000 A 
ATOM     11  C   UNL     1       2.268   6.740  19.732  0.00  0.00    +0.000 A 
ATOM     12  C   UNL     1       1.557   7.702  20.476  0.00  0.00    +0.000 A 
ATOM     13  C   UNL     1       1.263   8.965  19.946  0.00  0.00    +0.000 A 
ATOM     14  C   UNL     1       1.671   9.236  18.633  0.00  0.00    +0.000 A 
ATOM     15  C   UNL     1       2.368   8.295  17.876  0.00  0.00    +0.000 A 
ATOM     16  C   UNL     1       2.682   7.050  18.419  0.00  0.00    +0.000 A 
ATOM     17  C   UNL     1       3.413   6.110  17.680  0.00  0.00    +0.000 A 
BRANCH   8  19
ATOM     18  C   UNL     1       5.188   4.725  16.344  0.00  0.00    +0.000 C 
ATOM     19  O   UNL     1       4.501   4.077  17.406  0.00  0.00    +0.000 OA
ENDBRANCH   8  19
ENDBRANCH   1  13
BRANCH   4  20
ATOM     20  C   UNL     1      -2.860  11.531  17.722  0.00  0.00    +0.000 C 
ATOM     21  N   UNL     1      -2.113  11.492  16.573  0.00  0.00    +0.000 N 
ATOM     22  O   UNL     1      -4.081  11.518  17.728  0.00  0.00    +0.000 OA
ATOM     23  H   UNL     1      -1.103  11.433  16.657  0.00  0.00    +0.000 HD
ATOM     24  H   UNL     1      -2.552  11.363  15.676  0.00  0.00    +0.000 HD
ENDBRANCH   4  20
BRANCH   5  25
ATOM     25  N   UNL     1      -2.944  13.591  20.145  0.00  0.00    +0.000 N 
ATOM     26  C   UNL     1      -4.207  13.525  20.693  0.00  0.00    +0.000 C 
ATOM     27  O   UNL     1      -4.831  12.495  20.937  0.00  0.00    +0.000 OA
ATOM     28  H   UNL     1      -2.618  14.455  19.721  0.00  0.00    +0.000 HD
BRANCH  26  29
ATOM     29  C   UNL     1      -4.894  14.841  20.895  0.00  0.00    +0.000 C 
ATOM     30  C   UNL     1      -4.968  15.437  22.108  0.00  0.00    +0.000 C 
ATOM     31  C   UNL     1      -4.199  15.021  23.342  0.00  0.00    +0.000 C 
ATOM     32  C   UNL     1      -5.898  16.593  22.368  0.00  0.00    +0.000 C 
ENDBRANCH  26  29
ENDBRANCH   5  25
TORSDOF 5
ENDMDL
MODEL 5
REMARK VINA RESULT:      -7.6      2.727      3.865
REMARK  Name = 
REMARK  8 active torsions:
REMARK  status: ('A' for Active; 'I' for Inactive)
REMARK    1  A    between atoms: C_1  and  O_2
REMARK    2  A    between atoms: O_2  and  C_3
REMARK    3  A    between atoms: C_8  and  N_9
REMARK    4  A    between atoms: C_12  and  C_13
REMARK    5  A    between atoms: C_16  and  N_17
REMARK    6  A    between atoms: C_18  and  C_20
REMARK    7  A    between atoms: C_21  and  C_22
REMARK    8  A    between atoms: C_21  and  C_23
REMARK                            x       y       z     vdW  Elec       q    Type
REMARK                         _______ _______ _______ _____ _____    ______ ____
ROOT
ATOM      1  N   UNL     1       0.180  10.056  20.555  0.00  0.00    +0.000 N 
ATOM      2  C   UNL     1      -0.839  10.802  20.073  0.00  0.00    +0.000 A 
ATOM      3  N   UNL     1      -1.385  10.668  18.890  0.00  0.00    +0.000 NA
ATOM      4  C   UNL     1      -2.432  11.570  18.708  0.00  0.00    +0.000 A 
ATOM      5  C   UNL     1      -2.682  12.390  19.797  0.00  0.00    +0.000 A 
ATOM      6  S   UNL     1      -1.549  12.024  21.034  0.00  0.00    +0.000 S 
ATOM      7  H   UNL     1       0.388  10.118  21.544  0.00  0.00    +0.000 HD
ENDROOT
BRANCH   1  13
ATOM      8  C   UNL     1       4.112   5.596  18.039  0.00  0.00    +0.000 A 
ATOM      9  C   UNL     1       3.665   5.168  19.288  0.00  0.00    +0.000 A 
ATOM     10  C   UNL     1       2.786   5.963  20.032  0.00  0.00    +0.000 A 
ATOM     11  C   UNL     1       2.346   7.201  19.542  0.00  0.00    +0.000 A 
ATOM     12  C   UNL     1       1.492   8.037  20.287  0.00  0.00    +0.000 A 
ATOM     13  C   UNL     1       1.073   9.280  19.795  0.00  0.00    +0.000 A 
ATOM     14  C   UNL     1       1.504   9.658  18.517  0.00  0.00    +0.000 A 
ATOM     15  C   UNL     1       2.343   8.843  17.758  0.00  0.00    +0.000 A 
ATOM     16  C   UNL     1       2.779   7.619  18.265  0.00  0.00    +0.000 A 
ATOM     17  C   UNL     1       3.651   6.808  17.526  0.00  0.00    +0.000 A 
BRANCH   8  19
ATOM     18  C   UNL     1       4.630   3.610  16.847  0.00  0.00    +0.000 C 
ATOM     19  O   UNL     1       4.987   4.933  17.224  0.00  0.00    +0.000 OA
ENDBRANCH   8  19
ENDBRANCH   1  13
BRANCH   4  20
ATOM     20  C   UNL     1      -3.177  11.513  17.454  0.00  0.00    +0.000 C 
ATOM     21  N   UNL     1      -2.359  11.465  16.356  0.00  0.00    +0.000 N 
ATOM     22  O   UNL     1      -4.397  11.493  17.383  0.00  0.00    +0.000 OA
ATOM     23  H   UNL     1      -1.355  11.412  16.505  0.00  0.00    +0.000 HD
ATOM     24  H   UNL     1      -2.739  11.323  15.434  0.00  0.00    +0.000 HD
ENDBRANCH   4  20
BRANCH   5  25
ATOM     25  N   UNL     1      -3.625  13.407  19.970  0.00  0.00    +0.000 N 
ATOM     26  C   UNL     1      -4.803  13.227  20.665  0.00  0.00    +0.000 C 
ATOM     27  O   UNL     1      -5.246  12.152  21.059  0.00  0.00    +0.000 OA
ATOM     28  H   UNL     1      -3.470  14.264  19.446  0.00  0.00    +0.000 HD
BRANCH  26  29
ATOM     29  C   UNL     1      -5.642  14.455  20.844  0.00  0.00    +0.000 C 
ATOM     30  C   UNL     1      -6.480  14.901  19.880  0.00  0.00    +0.000 C 
ATOM     31  C   UNL     1      -6.876  14.139  18.635  0.00  0.00    +0.000 C 
ATOM     32  C   UNL     1      -7.093  16.276  19.935  0.00  0.00    +0.000 C 
ENDBRANCH  26  29
ENDBRANCH   5  25
TORSDOF 5
ENDMDL
MODEL 6
REMARK VINA RESULT:      -7.6      2.390      3.333
REMARK  Name = 
REMARK  8 active torsions:
REMARK  status: ('A' for Active; 'I' for Inactive)
REMARK    1  A    between atoms: C_1  and  O_2
REMARK    2  A    between atoms: O_2  and  C_3
REMARK    3  A    between atoms: C_8  and  N_9
REMARK    4  A    between atoms: C_12  and  C_13
REMARK    5  A    between atoms: C_16  and  N_17
REMARK    6  A    between atoms: C_18  and  C_20
REMARK    7  A    between atoms: C_21  and  C_22
REMARK    8  A    between atoms: C_21  and  C_23
REMARK                            x       y       z     vdW  Elec       q    Type
REMARK                         _______ _______ _______ _____ _____    ______ ____
ROOT
ATOM      1  N   UNL     1       0.834   9.512  20.911  0.00  0.00    +0.000 N 
ATOM      2  C   UNL     1      -0.059  10.390  20.404  0.00  0.00    +0.000 A 
ATOM      3  N   UNL     1      -0.780  10.203  19.326  0.00  0.00    +0.000 NA
ATOM      4  C   UNL     1      -1.626  11.285  19.086  0.00  0.00    +0.000 A 
ATOM      5  C   UNL     1      -1.543  12.301  20.025  0.00  0.00    +0.000 A 
ATOM      6  S   UNL     1      -0.354  11.880  21.189  0.00  0.00    +0.000 S 
ATOM      7  H   UNL     1       1.185   9.679  21.846  0.00  0.00    +0.000 HD
ENDROOT
BRANCH   1  13
ATOM      8  C   UNL     1       3.166   3.874  18.801  0.00  0.00    +0.000 A 
ATOM      9  C   UNL     1       2.655   3.712  20.088  0.00  0.00    +0.000 A 
ATOM     10  C   UNL     1       2.079   4.796  20.759  0.00  0.00    +0.000 A 
ATOM     11  C   UNL     1       2.013   6.061  20.157  0.00  0.00    +0.000 A 
ATOM     12  C   UNL     1       1.473   7.177  20.826  0.00  0.00    +0.000 A 
ATOM     13  C   UNL     1       1.428   8.440  20.222  0.00  0.00    +0.000 A 
ATOM     14  C   UNL     1       1.909   8.557  18.911  0.00  0.00    +0.000 A 
ATOM     15  C   UNL     1       2.440   7.465  18.228  0.00  0.00    +0.000 A 
ATOM     16  C   UNL     1       2.508   6.216  18.844  0.00  0.00    +0.000 A 
ATOM     17  C   UNL     1       3.072   5.119  18.180  0.00  0.00    +0.000 A 
BRANCH   8  19
ATOM     18  C   UNL     1       3.541   1.561  18.426  0.00  0.00    +0.000 C 
ATOM     19  O   UNL     1       3.776   2.910  18.047  0.00  0.00    +0.000 OA
ENDBRANCH   8  19
ENDBRANCH   1  13
BRANCH   4  20
ATOM     20  C   UNL     1      -2.532  11.207  17.944  0.00  0.00    +0.000 C 
ATOM     21  N   UNL     1      -2.071  11.901  16.856  0.00  0.00    +0.000 N 
ATOM     22  O   UNL     1      -3.581  10.580  17.944  0.00  0.00    +0.000 OA
ATOM     23  H   UNL     1      -1.154  12.335  16.915  0.00  0.00    +0.000 HD
ATOM     24  H   UNL     1      -2.547  11.849  15.970  0.00  0.00    +0.000 HD
ENDBRANCH   4  20
BRANCH   5  25
ATOM     25  N   UNL     1      -2.216  13.524  20.101  0.00  0.00    +0.000 N 
ATOM     26  C   UNL     1      -3.394  13.689  20.798  0.00  0.00    +0.000 C 
ATOM     27  O   UNL     1      -4.077  12.788  21.278  0.00  0.00    +0.000 OA
ATOM     28  H   UNL     1      -1.867  14.271  19.506  0.00  0.00    +0.000 HD
BRANCH  26  29
ATOM     29  C   UNL     1      -3.915  15.092  20.862  0.00  0.00    +0.000 C 
ATOM     30  C   UNL     1      -3.784  15.860  21.968  0.00  0.00    +0.000 C 
ATOM     31  C   UNL     1      -2.919  15.539  23.166  0.00  0.00    +0.000 C 
ATOM     32  C   UNL     1      -4.555  17.144  22.139  0.00  0.00    +0.000 C 
ENDBRANCH  26  29
ENDBRANCH   5  25
TORSDOF 5
ENDMDL
MODEL 7
REMARK VINA RESULT:      -7.6      1.883      2.890
REMARK  Name = 
REMARK  8 active torsions:
REMARK  status: ('A' for Active; 'I' for Inactive)
REMARK    1  A    between atoms: C_1  and  O_2
REMARK    2  A    between atoms: O_2  and  C_3
REMARK    3  A    between atoms: C_8  and  N_9
REMARK    4  A    between atoms: C_12  and  C_13
REMARK    5  A    between atoms: C_16  and  N_17
REMARK    6  A    between atoms: C_18  and  C_20
REMARK    7  A    between atoms: C_21  and  C_22
REMARK    8  A    between atoms: C_21  and  C_23
REMARK                            x       y       z     vdW  Elec       q    Type
REMARK                         _______ _______ _______ _____ _____    ______ ____
ROOT
ATOM      1  N   UNL     1       0.671   9.240  21.229  0.00  0.00    +0.000 N 
ATOM      2  C   UNL     1      -0.179  10.236  20.898  0.00  0.00    +0.000 A 
ATOM      3  N   UNL     1      -0.755  10.386  19.731  0.00  0.00    +0.000 NA
ATOM      4  C   UNL     1      -1.598  11.497  19.720  0.00  0.00    +0.000 A 
ATOM      5  C   UNL     1      -1.663  12.184  20.921  0.00  0.00    +0.000 A 
ATOM      6  S   UNL     1      -0.614  11.424  22.048  0.00  0.00    +0.000 S 
ATOM      7  H   UNL     1       0.899   9.116  22.208  0.00  0.00    +0.000 HD
ENDROOT
BRANCH   1  13
ATOM      8  C   UNL     1       3.726   4.530  18.040  0.00  0.00    +0.000 A 
ATOM      9  C   UNL     1       3.347   4.067  19.300  0.00  0.00    +0.000 A 
ATOM     10  C   UNL     1       2.654   4.906  20.180  0.00  0.00    +0.000 A 
ATOM     11  C   UNL     1       2.337   6.223  19.817  0.00  0.00    +0.000 A 
ATOM     12  C   UNL     1       1.675   7.099  20.699  0.00  0.00    +0.000 A 
ATOM     13  C   UNL     1       1.378   8.419  20.333  0.00  0.00    +0.000 A 
ATOM     14  C   UNL     1       1.733   8.836  19.043  0.00  0.00    +0.000 A 
ATOM     15  C   UNL     1       2.381   7.983  18.152  0.00  0.00    +0.000 A 
ATOM     16  C   UNL     1       2.699   6.680  18.532  0.00  0.00    +0.000 A 
ATOM     17  C   UNL     1       3.382   5.825  17.657  0.00  0.00    +0.000 A 
BRANCH   8  19
ATOM     18  C   UNL     1       5.633   4.414  16.633  0.00  0.00    +0.000 C 
ATOM     19  O   UNL     1       4.426   3.827  17.099  0.00  0.00    +0.000 OA
ENDBRANCH   8  19
ENDBRANCH   1  13
BRANCH   4  20
ATOM     20  C   UNL     1      -2.354  11.772  18.501  0.00  0.00    +0.000 C 
ATOM     21  N   UNL     1      -1.572  12.288  17.500  0.00  0.00    +0.000 N 
ATOM     22  O   UNL     1      -3.549  11.552  18.372  0.00  0.00    +0.000 OA
ATOM     23  H   UNL     1      -0.573  12.372  17.664  0.00  0.00    +0.000 HD
ATOM     24  H   UNL     1      -1.944  12.431  16.576  0.00  0.00    +0.000 HD
ENDBRANCH   4  20
BRANCH   5  25
ATOM     25  N   UNL     1      -2.377  13.333  21.272  0.00  0.00    +0.000 N 
ATOM     26  C   UNL     1      -3.612  13.291  21.884  0.00  0.00    +0.000 C 
ATOM     27  O   UNL     1      -4.303  12.287  22.037  0.00  0.00    +0.000 OA
ATOM     28  H   UNL     1      -2.004  14.218  20.938  0.00  0.00    +0.000 HD
BRANCH  26  29
ATOM     29  C   UNL     1      -4.180  14.618  22.286  0.00  0.00    +0.000 C 
ATOM     30  C   UNL     1      -4.146  15.058  23.565  0.00  0.00    +0.000 C 
ATOM     31  C   UNL     1      -3.354  14.433  24.691  0.00  0.00    +0.000 C 
ATOM     32  C   UNL     1      -4.967  16.237  24.019  0.00  0.00    +0.000 C 
ENDBRANCH  26  29
ENDBRANCH   5  25
TORSDOF 5
ENDMDL
MODEL 8
REMARK VINA RESULT:      -7.5      2.524      3.661
REMARK  Name = 
REMARK  8 active torsions:
REMARK  status: ('A' for Active; 'I' for Inactive)
REMARK    1  A    between atoms: C_1  and  O_2
REMARK    2  A    between atoms: O_2  and  C_3
REMARK    3  A    between atoms: C_8  and  N_9
REMARK    4  A    between atoms: C_12  and  C_13
REMARK    5  A    between atoms: C_16  and  N_17
REMARK    6  A    between atoms: C_18  and  C_20
REMARK    7  A    between atoms: C_21  and  C_22
REMARK    8  A    between atoms: C_21  and  C_23
REMARK                            x       y       z     vdW  Elec       q    Type
REMARK                         _______ _______ _______ _____ _____    ______ ____
ROOT
ATOM      1  N   UNL     1       0.536   9.828  20.834  0.00  0.00    +0.000 N 
ATOM      2  C   UNL     1      -0.408  10.645  20.317  0.00  0.00    +0.000 A 
ATOM      3  N   UNL     1      -1.083  10.425  19.216  0.00  0.00    +0.000 NA
ATOM      4  C   UNL     1      -2.002  11.444  18.971  0.00  0.00    +0.000 A 
ATOM      5  C   UNL     1      -2.021  12.445  19.929  0.00  0.00    +0.000 A 
ATOM      6  S   UNL     1      -0.835  12.093  21.119  0.00  0.00    +0.000 S 
ATOM      7  H   UNL     1       0.848  10.002  21.781  0.00  0.00    +0.000 HD
ENDROOT
BRANCH   1  13
ATOM      8  C   UNL     1       3.376   4.432  18.713  0.00  0.00    +0.000 A 
ATOM      9  C   UNL     1       2.874   4.218  19.995  0.00  0.00    +0.000 A 
ATOM     10  C   UNL     1       2.199   5.243  20.668  0.00  0.00    +0.000 A 
ATOM     11  C   UNL     1       2.024   6.500  20.071  0.00  0.00    +0.000 A 
ATOM     12  C   UNL     1       1.382   7.559  20.742  0.00  0.00    +0.000 A 
ATOM     13  C   UNL     1       1.227   8.816  20.143  0.00  0.00    +0.000 A 
ATOM     14  C   UNL     1       1.704   8.983  18.836  0.00  0.00    +0.000 A 
ATOM     15  C   UNL     1       2.334   7.946  18.151  0.00  0.00    +0.000 A 
ATOM     16  C   UNL     1       2.510   6.705  18.763  0.00  0.00    +0.000 A 
ATOM     17  C   UNL     1       3.174   5.666  18.096  0.00  0.00    +0.000 A 
BRANCH   8  19
ATOM     18  C   UNL     1       3.563   2.204  17.914  0.00  0.00    +0.000 C 
ATOM     19  O   UNL     1       4.074   3.530  17.958  0.00  0.00    +0.000 OA
ENDBRANCH   8  19
ENDBRANCH   1  13
BRANCH   4  20
ATOM     20  C   UNL     1      -2.869  11.320  17.802  0.00  0.00    +0.000 C 
ATOM     21  N   UNL     1      -2.213  11.584  16.628  0.00  0.00    +0.000 N 
ATOM     22  O   UNL     1      -4.047  11.000  17.855  0.00  0.00    +0.000 OA
ATOM     23  H   UNL     1      -1.216  11.772  16.666  0.00  0.00    +0.000 HD
ATOM     24  H   UNL     1      -2.665  11.438  15.740  0.00  0.00    +0.000 HD
ENDBRANCH   4  20
BRANCH   5  25
ATOM     25  N   UNL     1      -2.787  13.613  20.007  0.00  0.00    +0.000 N 
ATOM     26  C   UNL     1      -3.864  13.747  20.856  0.00  0.00    +0.000 C 
ATOM     27  O   UNL     1      -4.385  12.843  21.504  0.00  0.00    +0.000 OA
ATOM     28  H   UNL     1      -2.597  14.327  19.308  0.00  0.00    +0.000 HD
BRANCH  26  29
ATOM     29  C   UNL     1      -4.499  15.104  20.885  0.00  0.00    +0.000 C 
ATOM     30  C   UNL     1      -5.548  15.426  20.094  0.00  0.00    +0.000 C 
ATOM     31  C   UNL     1      -6.369  14.451  19.279  0.00  0.00    +0.000 C 
ATOM     32  C   UNL     1      -5.992  16.854  19.907  0.00  0.00    +0.000 C 
ENDBRANCH  26  29
ENDBRANCH   5  25
TORSDOF 5
ENDMDL
MODEL 9
REMARK VINA RESULT:      -7.5      2.446      3.645
REMARK  Name = 
REMARK  8 active torsions:
REMARK  status: ('A' for Active; 'I' for Inactive)
REMARK    1  A    between atoms: C_1  and  O_2
REMARK    2  A    between atoms: O_2  and  C_3
REMARK    3  A    between atoms: C_8  and  N_9
REMARK    4  A    between atoms: C_12  and  C_13
REMARK    5  A    between atoms: C_16  and  N_17
REMARK    6  A    between atoms: C_18  and  C_20
REMARK    7  A    between atoms: C_21  and  C_22
REMARK    8  A    between atoms: C_21  and  C_23
REMARK                            x       y       z     vdW  Elec       q    Type
REMARK                         _______ _______ _______ _____ _____    ______ ____
ROOT
ATOM      1  N   UNL     1       1.741   9.775  18.520  0.00  0.00    +0.000 N 
ATOM      2  C   UNL     1       0.876  10.360  19.377  0.00  0.00    +0.000 A 
ATOM      3  N   UNL     1       0.613   9.946  20.592  0.00  0.00    +0.000 NA
ATOM      4  C   UNL     1      -0.302  10.784  21.228  0.00  0.00    +0.000 A 
ATOM      5  C   UNL     1      -0.721  11.863  20.467  0.00  0.00    +0.000 A 
ATOM      6  S   UNL     1       0.034  11.778  18.927  0.00  0.00    +0.000 S 
ATOM      7  H   UNL     1       2.007  10.289  17.689  0.00  0.00    +0.000 HD
ENDROOT
BRANCH   1  13
ATOM      8  C   UNL     1       3.130   3.626  19.916  0.00  0.00    +0.000 A 
ATOM      9  C   UNL     1       2.244   4.129  20.868  0.00  0.00    +0.000 A 
ATOM     10  C   UNL     1       1.783   5.447  20.774  0.00  0.00    +0.000 A 
ATOM     11  C   UNL     1       2.206   6.284  19.732  0.00  0.00    +0.000 A 
ATOM     12  C   UNL     1       1.785   7.625  19.637  0.00  0.00    +0.000 A 
ATOM     13  C   UNL     1       2.228   8.458  18.601  0.00  0.00    +0.000 A 
ATOM     14  C   UNL     1       3.082   7.907  17.636  0.00  0.00    +0.000 A 
ATOM     15  C   UNL     1       3.503   6.580  17.706  0.00  0.00    +0.000 A 
ATOM     16  C   UNL     1       3.081   5.764  18.755  0.00  0.00    +0.000 A 
ATOM     17  C   UNL     1       3.528   4.439  18.855  0.00  0.00    +0.000 A 
BRANCH   8  19
ATOM     18  C   UNL     1       3.567   1.642  18.690  0.00  0.00    +0.000 C 
ATOM     19  O   UNL     1       3.677   2.373  19.904  0.00  0.00    +0.000 OA
ENDBRANCH   8  19
ENDBRANCH   1  13
BRANCH   4  20
ATOM     20  C   UNL     1      -0.662  10.483  22.610  0.00  0.00    +0.000 C 
ATOM     21  N   UNL     1      -0.553   9.149  22.906  0.00  0.00    +0.000 N 
ATOM     22  O   UNL     1      -1.007  11.324  23.426  0.00  0.00    +0.000 OA
ATOM     23  H   UNL     1      -0.190   8.526  22.192  0.00  0.00    +0.000 HD
ATOM     24  H   UNL     1      -0.675   8.818  23.849  0.00  0.00    +0.000 HD
ENDBRANCH   4  20
BRANCH   5  25
ATOM     25  N   UNL     1      -1.628  12.886  20.762  0.00  0.00    +0.000 N 
ATOM     26  C   UNL     1      -2.947  12.856  20.361  0.00  0.00    +0.000 C 
ATOM     27  O   UNL     1      -3.441  12.051  19.576  0.00  0.00    +0.000 OA
ATOM     28  H   UNL     1      -1.240  13.728  21.179  0.00  0.00    +0.000 HD
BRANCH  26  29
ATOM     29  C   UNL     1      -3.798  13.984  20.860  0.00  0.00    +0.000 C 
ATOM     30  C   UNL     1      -4.466  13.917  22.035  0.00  0.00    +0.000 C 
ATOM     31  C   UNL     1      -4.276  12.858  23.098  0.00  0.00    +0.000 C 
ATOM     32  C   UNL     1      -5.541  14.909  22.394  0.00  0.00    +0.000 C 
ENDBRANCH  26  29
ENDBRANCH   5  25
TORSDOF 5
ENDMDL
