MODEL 1
REMARK VINA RESULT:      -8.3      0.000      0.000
REMARK  Name = 
REMARK  6 active torsions:
REMARK  status: ('A' for Active; 'I' for Inactive)
REMARK    1  A    between atoms: N_3  and  O_4
REMARK    2  A    between atoms: N_5  and  C_6
REMARK    3  A    between atoms: C_6  and  C_7
REMARK    4  A    between atoms: C_6  and  C_14
REMARK    5  A    between atoms: C_7  and  C_8
REMARK    6  A    between atoms: N_16  and  C_17
REMARK                            x       y       z     vdW  Elec       q    Type
REMARK                         _______ _______ _______ _____ _____    ______ ____
ROOT
ATOM      1  C   UNL     1       5.511   5.736  16.693  0.00  0.00    +0.000 C 
ENDROOT
BRANCH   1   5
ATOM      2  O   UNL     1       6.182   4.499  19.223  0.00  0.00    +0.000 OA
ATOM      3  C   UNL     1       6.820   5.456  18.805  0.00  0.00    +0.000 C 
ATOM      4  N   UNL     1       7.877   6.006  19.496  0.00  0.00    +0.000 N 
ATOM      5  N   UNL     1       6.575   6.101  17.632  0.00  0.00    +0.000 N 
ATOM      6  H   UNL     1       8.670   6.316  18.947  0.00  0.00    +0.000 HD
ATOM      7  H   UNL     1       7.011   7.002  17.469  0.00  0.00    +0.000 HD
BRANCH   4   8
ATOM      8  O   UNL     1       8.231   5.300  20.678  0.00  0.00    +0.000 OA
ATOM      9  H   UNL     1       8.991   5.824  21.015  0.00  0.00    +0.000 HD
ENDBRANCH   4   8
ENDBRANCH   1   5
BRANCH   1  10
ATOM     10  C   UNL     1       4.168   5.858  17.454  0.00  0.00    +0.000 C 
ATOM     11  O   UNL     1       3.710   6.952  17.792  0.00  0.00    +0.000 OA
ATOM     12  N   UNL     1       3.532   4.666  17.738  0.00  0.00    +0.000 N 
ATOM     13  H   UNL     1       3.846   3.815  17.290  0.00  0.00    +0.000 HD
BRANCH  12  14
ATOM     14  C   UNL     1       2.365   4.607  18.596  0.00  0.00    +0.000 C 
ATOM     15  C   UNL     1       1.580   3.307  18.476  0.00  0.00    +0.000 C 
ATOM     16  C   UNL     1       0.720   3.303  19.735  0.00  0.00    +0.000 C 
ATOM     17  C   UNL     1       1.534   4.040  20.798  0.00  0.00    +0.000 C 
ATOM     18  C   UNL     1       2.739   4.635  20.076  0.00  0.00    +0.000 C 
ENDBRANCH  12  14
ENDBRANCH   1  10
BRANCH   1  19
ATOM     19  C   UNL     1       5.692   4.349  16.044  0.00  0.00    +0.000 C 
BRANCH  19  20
ATOM     20  C   UNL     1       6.166   4.338  14.606  0.00  0.00    +0.000 A 
ATOM     21  C   UNL     1       7.274   5.098  14.207  0.00  0.00    +0.000 A 
ATOM     22  C   UNL     1       7.740   5.044  12.892  0.00  0.00    +0.000 A 
ATOM     23  C   UNL     1       7.108   4.223  11.962  0.00  0.00    +0.000 A 
ATOM     24  C   UNL     1       5.999   3.469  12.343  0.00  0.00    +0.000 A 
ATOM     25  C   UNL     1       5.526   3.530  13.657  0.00  0.00    +0.000 A 
ENDBRANCH  19  20
ENDBRANCH   1  19
TORSDOF 6
ENDMDL
MODEL 2
REMARK VINA RESULT:      -8.3      1.156      6.184
REMARK  Name = 
REMARK  6 active torsions:
REMARK  status: ('A' for Active; 'I' for Inactive)
REMARK    1  A    between atoms: N_3  and  O_4
REMARK    2  A    between atoms: N_5  and  C_6
REMARK    3  A    between atoms: C_6  and  C_7
REMARK    4  A    between atoms: C_6  and  C_14
REMARK    5  A    between atoms: C_7  and  C_8
REMARK    6  A    between atoms: N_16  and  C_17
REMARK                            x       y       z     vdW  Elec       q    Type
REMARK                         _______ _______ _______ _____ _____    ______ ____
ROOT
ATOM      1  C   UNL     1       5.112   5.519  17.450  0.00  0.00    +0.000 C 
ENDROOT
BRANCH   1   5
ATOM      2  O   UNL     1       6.057   4.454  19.970  0.00  0.00    +0.000 OA
ATOM      3  C   UNL     1       6.703   5.299  19.365  0.00  0.00    +0.000 C 
ATOM      4  N   UNL     1       7.899   5.799  19.833  0.00  0.00    +0.000 N 
ATOM      5  N   UNL     1       6.336   5.856  18.179  0.00  0.00    +0.000 N 
ATOM      6  H   UNL     1       8.621   5.975  19.145  0.00  0.00    +0.000 HD
ATOM      7  H   UNL     1       6.819   6.690  17.860  0.00  0.00    +0.000 HD
BRANCH   4   8
ATOM      8  O   UNL     1       8.369   5.171  21.018  0.00  0.00    +0.000 OA
ATOM      9  H   UNL     1       8.610   5.938  21.580  0.00  0.00    +0.000 HD
ENDBRANCH   4   8
ENDBRANCH   1   5
BRANCH   1  10
ATOM     10  C   UNL     1       5.393   5.760  15.946  0.00  0.00    +0.000 C 
ATOM     11  O   UNL     1       5.150   6.840  15.405  0.00  0.00    +0.000 OA
ATOM     12  N   UNL     1       5.916   4.684  15.257  0.00  0.00    +0.000 N 
ATOM     13  H   UNL     1       6.265   3.885  15.770  0.00  0.00    +0.000 HD
BRANCH  12  14
ATOM     14  C   UNL     1       6.063   4.697  13.815  0.00  0.00    +0.000 C 
ATOM     15  C   UNL     1       7.473   5.028  13.344  0.00  0.00    +0.000 C 
ATOM     16  C   UNL     1       7.476   4.555  11.894  0.00  0.00    +0.000 C 
ATOM     17  C   UNL     1       6.512   3.369  11.841  0.00  0.00    +0.000 C 
ATOM     18  C   UNL     1       5.819   3.322  13.200  0.00  0.00    +0.000 C 
ENDBRANCH  12  14
ENDBRANCH   1  10
BRANCH   1  19
ATOM     19  C   UNL     1       3.859   6.273  17.939  0.00  0.00    +0.000 C 
BRANCH  19  20
ATOM     20  C   UNL     1       2.800   5.439  18.630  0.00  0.00    +0.000 A 
ATOM     21  C   UNL     1       2.181   4.370  17.968  0.00  0.00    +0.000 A 
ATOM     22  C   UNL     1       1.244   3.571  18.626  0.00  0.00    +0.000 A 
ATOM     23  C   UNL     1       0.921   3.826  19.955  0.00  0.00    +0.000 A 
ATOM     24  C   UNL     1       1.521   4.893  20.622  0.00  0.00    +0.000 A 
ATOM     25  C   UNL     1       2.452   5.700  19.961  0.00  0.00    +0.000 A 
ENDBRANCH  19  20
ENDBRANCH   1  19
TORSDOF 6
ENDMDL
MODEL 3
REMARK VINA RESULT:      -8.3      0.109      1.058
REMARK  Name = 
REMARK  6 active torsions:
REMARK  status: ('A' for Active; 'I' for Inactive)
REMARK    1  A    between atoms: N_3  and  O_4
REMARK    2  A    between atoms: N_5  and  C_6
REMARK    3  A    between atoms: C_6  and  C_7
REMARK    4  A    between atoms: C_6  and  C_14
REMARK    5  A    between atoms: C_7  and  C_8
REMARK    6  A    between atoms: N_16  and  C_17
REMARK                            x       y       z     vdW  Elec       q    Type
REMARK                         _______ _______ _______ _____ _____    ______ ____
ROOT
ATOM      1  C   UNL     1       5.579   5.759  16.646  0.00  0.00    +0.000 C 
ENDROOT
BRANCH   1   5
ATOM      2  O   UNL     1       6.270   4.510  19.165  0.00  0.00    +0.000 OA
ATOM      3  C   UNL     1       6.896   5.478  18.752  0.00  0.00    +0.000 C 
ATOM      4  N   UNL     1       7.948   6.033  19.445  0.00  0.00    +0.000 N 
ATOM      5  N   UNL     1       6.641   6.128  17.584  0.00  0.00    +0.000 N 
ATOM      6  H   UNL     1       8.737   6.356  18.897  0.00  0.00    +0.000 HD
ATOM      7  H   UNL     1       7.067   7.035  17.427  0.00  0.00    +0.000 HD
BRANCH   4   8
ATOM      8  O   UNL     1       8.313   5.323  20.620  0.00  0.00    +0.000 OA
ATOM      9  H   UNL     1       9.247   5.081  20.438  0.00  0.00    +0.000 HD
ENDBRANCH   4   8
ENDBRANCH   1   5
BRANCH   1  10
ATOM     10  C   UNL     1       4.233   5.912  17.394  0.00  0.00    +0.000 C 
ATOM     11  O   UNL     1       3.769   7.018  17.678  0.00  0.00    +0.000 OA
ATOM     12  N   UNL     1       3.600   4.732  17.733  0.00  0.00    +0.000 N 
ATOM     13  H   UNL     1       3.919   3.862  17.327  0.00  0.00    +0.000 HD
BRANCH  12  14
ATOM     14  C   UNL     1       2.431   4.709  18.588  0.00  0.00    +0.000 C 
ATOM     15  C   UNL     1       1.608   3.432  18.470  0.00  0.00    +0.000 C 
ATOM     16  C   UNL     1       0.745   3.456  19.727  0.00  0.00    +0.000 C 
ATOM     17  C   UNL     1       1.578   4.174  20.790  0.00  0.00    +0.000 C 
ATOM     18  C   UNL     1       2.802   4.731  20.069  0.00  0.00    +0.000 C 
ENDBRANCH  12  14
ENDBRANCH   1  10
BRANCH   1  19
ATOM     19  C   UNL     1       5.747   4.358  16.023  0.00  0.00    +0.000 C 
BRANCH  19  20
ATOM     20  C   UNL     1       6.264   4.313  14.601  0.00  0.00    +0.000 A 
ATOM     21  C   UNL     1       5.646   3.506  13.635  0.00  0.00    +0.000 A 
ATOM     22  C   UNL     1       6.092   3.508  12.313  0.00  0.00    +0.000 A 
ATOM     23  C   UNL     1       7.157   4.321  11.938  0.00  0.00    +0.000 A 
ATOM     24  C   UNL     1       7.788   5.120  12.890  0.00  0.00    +0.000 A 
ATOM     25  C   UNL     1       7.348   5.112  14.216  0.00  0.00    +0.000 A 
ENDBRANCH  19  20
ENDBRANCH   1  19
TORSDOF 6
ENDMDL
MODEL 4
REMARK VINA RESULT:      -8.3      1.157      6.157
REMARK  Name = 
REMARK  6 active torsions:
REMARK  status: ('A' for Active; 'I' for Inactive)
REMARK    1  A    between atoms: N_3  and  O_4
REMARK    2  A    between atoms: N_5  and  C_6
REMARK    3  A    between atoms: C_6  and  C_7
REMARK    4  A    between atoms: C_6  and  C_14
REMARK    5  A    between atoms: C_7  and  C_8
REMARK    6  A    between atoms: N_16  and  C_17
REMARK                            x       y       z     vdW  Elec       q    Type
REMARK                         _______ _______ _______ _____ _____    ______ ____
ROOT
ATOM      1  C   UNL     1       5.088   5.506  17.409  0.00  0.00    +0.000 C 
ENDROOT
BRANCH   1   5
ATOM      2  O   UNL     1       6.064   4.423  19.911  0.00  0.00    +0.000 OA
ATOM      3  C   UNL     1       6.673   5.314  19.333  0.00  0.00    +0.000 C 
ATOM      4  N   UNL     1       7.838   5.859  19.825  0.00  0.00    +0.000 N 
ATOM      5  N   UNL     1       6.288   5.884  18.159  0.00  0.00    +0.000 N 
ATOM      6  H   UNL     1       8.556   6.088  19.148  0.00  0.00    +0.000 HD
ATOM      7  H   UNL     1       6.732   6.748  17.866  0.00  0.00    +0.000 HD
BRANCH   4   8
ATOM      8  O   UNL     1       8.329   5.224  20.998  0.00  0.00    +0.000 OA
ATOM      9  H   UNL     1       8.522   4.315  20.679  0.00  0.00    +0.000 HD
ENDBRANCH   4   8
ENDBRANCH   1   5
BRANCH   1  10
ATOM     10  C   UNL     1       5.386   5.755  15.911  0.00  0.00    +0.000 C 
ATOM     11  O   UNL     1       5.162   6.843  15.375  0.00  0.00    +0.000 OA
ATOM     12  N   UNL     1       5.903   4.678  15.218  0.00  0.00    +0.000 N 
ATOM     13  H   UNL     1       6.237   3.871  15.728  0.00  0.00    +0.000 HD
BRANCH  12  14
ATOM     14  C   UNL     1       6.063   4.700  13.778  0.00  0.00    +0.000 C 
ATOM     15  C   UNL     1       7.490   4.981  13.323  0.00  0.00    +0.000 C 
ATOM     16  C   UNL     1       7.488   4.523  11.868  0.00  0.00    +0.000 C 
ATOM     17  C   UNL     1       6.479   3.376  11.794  0.00  0.00    +0.000 C 
ATOM     18  C   UNL     1       5.772   3.342  13.146  0.00  0.00    +0.000 C 
ENDBRANCH  12  14
ENDBRANCH   1  10
BRANCH   1  19
ATOM     19  C   UNL     1       3.803   6.220  17.877  0.00  0.00    +0.000 C 
BRANCH  19  20
ATOM     20  C   UNL     1       2.818   5.382  18.664  0.00  0.00    +0.000 A 
ATOM     21  C   UNL     1       2.512   5.691  19.996  0.00  0.00    +0.000 A 
ATOM     22  C   UNL     1       1.564   4.949  20.701  0.00  0.00    +0.000 A 
ATOM     23  C   UNL     1       0.905   3.891  20.081  0.00  0.00    +0.000 A 
ATOM     24  C   UNL     1       1.207   3.566  18.760  0.00  0.00    +0.000 A 
ATOM     25  C   UNL     1       2.163   4.303  18.056  0.00  0.00    +0.000 A 
ENDBRANCH  19  20
ENDBRANCH   1  19
TORSDOF 6
ENDMDL
MODEL 5
REMARK VINA RESULT:      -8.1      2.543      5.612
REMARK  Name = 
REMARK  6 active torsions:
REMARK  status: ('A' for Active; 'I' for Inactive)
REMARK    1  A    between atoms: N_3  and  O_4
REMARK    2  A    between atoms: N_5  and  C_6
REMARK    3  A    between atoms: C_6  and  C_7
REMARK    4  A    between atoms: C_6  and  C_14
REMARK    5  A    between atoms: C_7  and  C_8
REMARK    6  A    between atoms: N_16  and  C_17
REMARK                            x       y       z     vdW  Elec       q    Type
REMARK                         _______ _______ _______ _____ _____    ______ ____
ROOT
ATOM      1  C   UNL     1       4.385   3.998  17.153  0.00  0.00    +0.000 C 
ENDROOT
BRANCH   1   5
ATOM      2  O   UNL     1       5.496   5.844  15.219  0.00  0.00    +0.000 OA
ATOM      3  C   UNL     1       6.155   4.900  15.636  0.00  0.00    +0.000 C 
ATOM      4  N   UNL     1       7.444   4.650  15.218  0.00  0.00    +0.000 N 
ATOM      5  N   UNL     1       5.715   3.984  16.540  0.00  0.00    +0.000 N 
ATOM      6  H   UNL     1       8.096   4.322  15.920  0.00  0.00    +0.000 HD
ATOM      7  H   UNL     1       6.245   3.128  16.666  0.00  0.00    +0.000 HD
BRANCH   4   8
ATOM      8  O   UNL     1       7.978   5.640  14.350  0.00  0.00    +0.000 OA
ATOM      9  H   UNL     1       7.231   5.806  13.735  0.00  0.00    +0.000 HD
ENDBRANCH   4   8
ENDBRANCH   1   5
BRANCH   1  10
ATOM     10  C   UNL     1       4.308   5.257  18.050  0.00  0.00    +0.000 C 
ATOM     11  O   UNL     1       5.106   5.450  18.969  0.00  0.00    +0.000 OA
ATOM     12  N   UNL     1       3.281   6.135  17.762  0.00  0.00    +0.000 N 
ATOM     13  H   UNL     1       2.766   6.032  16.897  0.00  0.00    +0.000 HD
BRANCH  12  14
ATOM     14  C   UNL     1       2.971   7.259  18.622  0.00  0.00    +0.000 C 
ATOM     15  C   UNL     1       2.029   8.275  17.989  0.00  0.00    +0.000 C 
ATOM     16  C   UNL     1       1.524   9.074  19.186  0.00  0.00    +0.000 C 
ATOM     17  C   UNL     1       1.514   8.099  20.363  0.00  0.00    +0.000 C 
ATOM     18  C   UNL     1       2.210   6.832  19.874  0.00  0.00    +0.000 C 
ENDBRANCH  12  14
ENDBRANCH   1  10
BRANCH   1  19
ATOM     19  C   UNL     1       4.031   2.709  17.921  0.00  0.00    +0.000 C 
BRANCH  19  20
ATOM     20  C   UNL     1       3.025   2.850  19.043  0.00  0.00    +0.000 A 
ATOM     21  C   UNL     1       1.671   3.091  18.770  0.00  0.00    +0.000 A 
ATOM     22  C   UNL     1       0.737   3.168  19.804  0.00  0.00    +0.000 A 
ATOM     23  C   UNL     1       1.144   2.998  21.124  0.00  0.00    +0.000 A 
ATOM     24  C   UNL     1       2.489   2.768  21.411  0.00  0.00    +0.000 A 
ATOM     25  C   UNL     1       3.426   2.701  20.377  0.00  0.00    +0.000 A 
ENDBRANCH  19  20
ENDBRANCH   1  19
TORSDOF 6
ENDMDL
MODEL 6
REMARK VINA RESULT:      -8.1      2.534      5.530
REMARK  Name = 
REMARK  6 active torsions:
REMARK  status: ('A' for Active; 'I' for Inactive)
REMARK    1  A    between atoms: N_3  and  O_4
REMARK    2  A    between atoms: N_5  and  C_6
REMARK    3  A    between atoms: C_6  and  C_7
REMARK    4  A    between atoms: C_6  and  C_14
REMARK    5  A    between atoms: C_7  and  C_8
REMARK    6  A    between atoms: N_16  and  C_17
REMARK                            x       y       z     vdW  Elec       q    Type
REMARK                         _______ _______ _______ _____ _____    ______ ____
ROOT
ATOM      1  C   UNL     1       4.383   3.965  17.186  0.00  0.00    +0.000 C 
ENDROOT
BRANCH   1   5
ATOM      2  O   UNL     1       5.386   5.698  15.095  0.00  0.00    +0.000 OA
ATOM      3  C   UNL     1       6.101   4.838  15.594  0.00  0.00    +0.000 C 
ATOM      4  N   UNL     1       7.405   4.635  15.199  0.00  0.00    +0.000 N 
ATOM      5  N   UNL     1       5.715   3.981  16.577  0.00  0.00    +0.000 N 
ATOM      6  H   UNL     1       8.073   4.412  15.928  0.00  0.00    +0.000 HD
ATOM      7  H   UNL     1       6.297   3.174  16.778  0.00  0.00    +0.000 HD
BRANCH   4   8
ATOM      8  O   UNL     1       7.880   5.575  14.246  0.00  0.00    +0.000 OA
ATOM      9  H   UNL     1       7.394   6.391  14.496  0.00  0.00    +0.000 HD
ENDBRANCH   4   8
ENDBRANCH   1   5
BRANCH   1  10
ATOM     10  C   UNL     1       4.304   5.179  18.144  0.00  0.00    +0.000 C 
ATOM     11  O   UNL     1       5.152   5.374  19.017  0.00  0.00    +0.000 OA
ATOM     12  N   UNL     1       3.218   6.013  17.964  0.00  0.00    +0.000 N 
ATOM     13  H   UNL     1       2.652   5.919  17.130  0.00  0.00    +0.000 HD
BRANCH  12  14
ATOM     14  C   UNL     1       2.911   7.081  18.893  0.00  0.00    +0.000 C 
ATOM     15  C   UNL     1       2.021   8.169  18.306  0.00  0.00    +0.000 C 
ATOM     16  C   UNL     1       1.498   8.895  19.541  0.00  0.00    +0.000 C 
ATOM     17  C   UNL     1       1.419   7.838  20.643  0.00  0.00    +0.000 C 
ATOM     18  C   UNL     1       2.095   6.589  20.085  0.00  0.00    +0.000 C 
ENDBRANCH  12  14
ENDBRANCH   1  10
BRANCH   1  19
ATOM     19  C   UNL     1       4.028   2.640  17.890  0.00  0.00    +0.000 C 
BRANCH  19  20
ATOM     20  C   UNL     1       3.016   2.726  19.013  0.00  0.00    +0.000 A 
ATOM     21  C   UNL     1       3.421   2.658  20.354  0.00  0.00    +0.000 A 
ATOM     22  C   UNL     1       2.491   2.791  21.386  0.00  0.00    +0.000 A 
ATOM     23  C   UNL     1       1.147   3.001  21.092  0.00  0.00    +0.000 A 
ATOM     24  C   UNL     1       0.730   3.060  19.763  0.00  0.00    +0.000 A 
ATOM     25  C   UNL     1       1.658   2.917  18.728  0.00  0.00    +0.000 A 
ENDBRANCH  19  20
ENDBRANCH   1  19
TORSDOF 6
ENDMDL
MODEL 7
REMARK VINA RESULT:      -7.9      1.208      1.640
REMARK  Name = 
REMARK  6 active torsions:
REMARK  status: ('A' for Active; 'I' for Inactive)
REMARK    1  A    between atoms: N_3  and  O_4
REMARK    2  A    between atoms: N_5  and  C_6
REMARK    3  A    between atoms: C_6  and  C_7
REMARK    4  A    between atoms: C_6  and  C_14
REMARK    5  A    between atoms: C_7  and  C_8
REMARK    6  A    between atoms: N_16  and  C_17
REMARK                            x       y       z     vdW  Elec       q    Type
REMARK                         _______ _______ _______ _____ _____    ______ ____
ROOT
ATOM      1  C   UNL     1       5.539   5.488  16.625  0.00  0.00    +0.000 C 
ENDROOT
BRANCH   1   5
ATOM      2  O   UNL     1       7.173   7.845  17.023  0.00  0.00    +0.000 OA
ATOM      3  C   UNL     1       7.275   6.878  17.767  0.00  0.00    +0.000 C 
ATOM      4  N   UNL     1       8.161   6.841  18.822  0.00  0.00    +0.000 N 
ATOM      5  N   UNL     1       6.552   5.731  17.655  0.00  0.00    +0.000 N 
ATOM      6  H   UNL     1       7.840   6.394  19.672  0.00  0.00    +0.000 HD
ATOM      7  H   UNL     1       6.849   4.913  18.178  0.00  0.00    +0.000 HD
BRANCH   4   8
ATOM      8  O   UNL     1       8.864   8.057  19.037  0.00  0.00    +0.000 OA
ATOM      9  H   UNL     1       9.731   7.742  19.372  0.00  0.00    +0.000 HD
ENDBRANCH   4   8
ENDBRANCH   1   5
BRANCH   1  10
ATOM     10  C   UNL     1       4.155   5.621  17.306  0.00  0.00    +0.000 C 
ATOM     11  O   UNL     1       3.638   6.720  17.518  0.00  0.00    +0.000 OA
ATOM     12  N   UNL     1       3.551   4.433  17.668  0.00  0.00    +0.000 N 
ATOM     13  H   UNL     1       3.921   3.559  17.318  0.00  0.00    +0.000 HD
BRANCH  12  14
ATOM     14  C   UNL     1       2.345   4.402  18.471  0.00  0.00    +0.000 C 
ATOM     15  C   UNL     1       1.604   3.072  18.415  0.00  0.00    +0.000 C 
ATOM     16  C   UNL     1       0.681   3.136  19.627  0.00  0.00    +0.000 C 
ATOM     17  C   UNL     1       1.419   3.979  20.668  0.00  0.00    +0.000 C 
ATOM     18  C   UNL     1       2.642   4.556  19.960  0.00  0.00    +0.000 C 
ENDBRANCH  12  14
ENDBRANCH   1  10
BRANCH   1  19
ATOM     19  C   UNL     1       5.702   4.145  15.886  0.00  0.00    +0.000 C 
BRANCH  19  20
ATOM     20  C   UNL     1       6.278   4.214  14.488  0.00  0.00    +0.000 A 
ATOM     21  C   UNL     1       5.747   3.434  13.451  0.00  0.00    +0.000 A 
ATOM     22  C   UNL     1       6.245   3.539  12.151  0.00  0.00    +0.000 A 
ATOM     23  C   UNL     1       7.277   4.431  11.871  0.00  0.00    +0.000 A 
ATOM     24  C   UNL     1       7.821   5.205  12.895  0.00  0.00    +0.000 A 
ATOM     25  C   UNL     1       7.329   5.093  14.198  0.00  0.00    +0.000 A 
ENDBRANCH  19  20
ENDBRANCH   1  19
TORSDOF 6
ENDMDL
MODEL 8
REMARK VINA RESULT:      -7.9      1.279      1.334
REMARK  Name = 
REMARK  6 active torsions:
REMARK  status: ('A' for Active; 'I' for Inactive)
REMARK    1  A    between atoms: N_3  and  O_4
REMARK    2  A    between atoms: N_5  and  C_6
REMARK    3  A    between atoms: C_6  and  C_7
REMARK    4  A    between atoms: C_6  and  C_14
REMARK    5  A    between atoms: C_7  and  C_8
REMARK    6  A    between atoms: N_16  and  C_17
REMARK                            x       y       z     vdW  Elec       q    Type
REMARK                         _______ _______ _______ _____ _____    ______ ____
ROOT
ATOM      1  C   UNL     1       5.478   5.321  16.759  0.00  0.00    +0.000 C 
ENDROOT
BRANCH   1   5
ATOM      2  O   UNL     1       7.044   7.738  17.063  0.00  0.00    +0.000 OA
ATOM      3  C   UNL     1       7.218   6.780  17.806  0.00  0.00    +0.000 C 
ATOM      4  N   UNL     1       8.156   6.781  18.814  0.00  0.00    +0.000 N 
ATOM      5  N   UNL     1       6.532   5.607  17.734  0.00  0.00    +0.000 N 
ATOM      6  H   UNL     1       7.895   6.328  19.681  0.00  0.00    +0.000 HD
ATOM      7  H   UNL     1       6.884   4.804  18.245  0.00  0.00    +0.000 HD
BRANCH   4   8
ATOM      8  O   UNL     1       8.824   8.023  18.988  0.00  0.00    +0.000 OA
ATOM      9  H   UNL     1       8.694   8.455  18.116  0.00  0.00    +0.000 HD
ENDBRANCH   4   8
ENDBRANCH   1   5
BRANCH   1  10
ATOM     10  C   UNL     1       4.133   5.321  17.525  0.00  0.00    +0.000 C 
ATOM     11  O   UNL     1       3.413   6.320  17.573  0.00  0.00    +0.000 OA
ATOM     12  N   UNL     1       3.807   4.138  18.158  0.00  0.00    +0.000 N 
ATOM     13  H   UNL     1       4.330   3.298  17.945  0.00  0.00    +0.000 HD
BRANCH  12  14
ATOM     14  C   UNL     1       2.676   4.039  19.058  0.00  0.00    +0.000 C 
ATOM     15  C   UNL     1       1.468   3.336  18.452  0.00  0.00    +0.000 C 
ATOM     16  C   UNL     1       0.628   2.972  19.673  0.00  0.00    +0.000 C 
ATOM     17  C   UNL     1       1.625   2.736  20.808  0.00  0.00    +0.000 C 
ATOM     18  C   UNL     1       2.987   3.176  20.278  0.00  0.00    +0.000 C 
ENDBRANCH  12  14
ENDBRANCH   1  10
BRANCH   1  19
ATOM     19  C   UNL     1       5.697   4.021  15.958  0.00  0.00    +0.000 C 
BRANCH  19  20
ATOM     20  C   UNL     1       6.211   4.182  14.543  0.00  0.00    +0.000 A 
ATOM     21  C   UNL     1       7.280   5.043  14.259  0.00  0.00    +0.000 A 
ATOM     22  C   UNL     1       7.786   5.148  12.962  0.00  0.00    +0.000 A 
ATOM     23  C   UNL     1       7.233   4.390  11.935  0.00  0.00    +0.000 A 
ATOM     24  C   UNL     1       6.161   3.539  12.201  0.00  0.00    +0.000 A 
ATOM     25  C   UNL     1       5.649   3.439  13.497  0.00  0.00    +0.000 A 
ENDBRANCH  19  20
ENDBRANCH   1  19
TORSDOF 6
ENDMDL
MODEL 9
REMARK VINA RESULT:      -7.7      1.250      6.412
REMARK  Name = 
REMARK  6 active torsions:
REMARK  status: ('A' for Active; 'I' for Inactive)
REMARK    1  A    between atoms: N_3  and  O_4
REMARK    2  A    between atoms: N_5  and  C_6
REMARK    3  A    between atoms: C_6  and  C_7
REMARK    4  A    between atoms: C_6  and  C_14
REMARK    5  A    between atoms: C_7  and  C_8
REMARK    6  A    between atoms: N_16  and  C_17
REMARK                            x       y       z     vdW  Elec       q    Type
REMARK                         _______ _______ _______ _____ _____    ______ ____
ROOT
ATOM      1  C   UNL     1       4.544   4.647  17.495  0.00  0.00    +0.000 C 
ENDROOT
BRANCH   1   5
ATOM      2  O   UNL     1       7.361   4.206  17.997  0.00  0.00    +0.000 OA
ATOM      3  C   UNL     1       6.694   4.914  18.741  0.00  0.00    +0.000 C 
ATOM      4  N   UNL     1       7.225   5.533  19.851  0.00  0.00    +0.000 N 
ATOM      5  N   UNL     1       5.368   5.174  18.585  0.00  0.00    +0.000 N 
ATOM      6  H   UNL     1       6.895   6.470  20.053  0.00  0.00    +0.000 HD
ATOM      7  H   UNL     1       4.858   5.592  19.356  0.00  0.00    +0.000 HD
BRANCH   4   8
ATOM      8  O   UNL     1       8.629   5.370  19.994  0.00  0.00    +0.000 OA
ATOM      9  H   UNL     1       8.795   5.750  20.885  0.00  0.00    +0.000 HD
ENDBRANCH   4   8
ENDBRANCH   1   5
BRANCH   1  10
ATOM     10  C   UNL     1       5.103   5.230  16.174  0.00  0.00    +0.000 C 
ATOM     11  O   UNL     1       5.048   6.436  15.922  0.00  0.00    +0.000 OA
ATOM     12  N   UNL     1       5.648   4.312  15.299  0.00  0.00    +0.000 N 
ATOM     13  H   UNL     1       5.835   3.370  15.618  0.00  0.00    +0.000 HD
BRANCH  12  14
ATOM     14  C   UNL     1       6.046   4.678  13.955  0.00  0.00    +0.000 C 
ATOM     15  C   UNL     1       7.486   5.163  13.851  0.00  0.00    +0.000 C 
ATOM     16  C   UNL     1       7.783   5.055  12.359  0.00  0.00    +0.000 C 
ATOM     17  C   UNL     1       6.942   3.883  11.851  0.00  0.00    +0.000 C 
ATOM     18  C   UNL     1       6.026   3.484  13.004  0.00  0.00    +0.000 C 
ENDBRANCH  12  14
ENDBRANCH   1  10
BRANCH   1  19
ATOM     19  C   UNL     1       3.034   4.915  17.661  0.00  0.00    +0.000 C 
BRANCH  19  20
ATOM     20  C   UNL     1       2.346   4.195  18.801  0.00  0.00    +0.000 A 
ATOM     21  C   UNL     1       1.972   2.849  18.683  0.00  0.00    +0.000 A 
ATOM     22  C   UNL     1       1.386   2.174  19.755  0.00  0.00    +0.000 A 
ATOM     23  C   UNL     1       1.172   2.835  20.961  0.00  0.00    +0.000 A 
ATOM     24  C   UNL     1       1.529   4.176  21.089  0.00  0.00    +0.000 A 
ATOM     25  C   UNL     1       2.107   4.856  20.013  0.00  0.00    +0.000 A 
ENDBRANCH  19  20
ENDBRANCH   1  19
TORSDOF 6
ENDMDL
