MODEL 1
REMARK VINA RESULT:      -6.9      0.000      0.000
REMARK  Name = 
REMARK  0 active torsions:
REMARK  status: ('A' for Active; 'I' for Inactive)
REMARK                            x       y       z     vdW  Elec       q    Type
REMARK                         _______ _______ _______ _____ _____    ______ ____
ROOT
ATOM      1  O   UNL     1       7.895   5.273  18.957  0.00  0.00    +0.000 OA
ATOM      2  C   UNL     1       6.726   5.015  18.670  0.00  0.00    +0.000 C 
ATOM      3  N   UNL     1       5.906   4.479  19.627  0.00  0.00    +0.000 N 
ATOM      4  C   UNL     1       4.608   4.043  19.352  0.00  0.00    +0.000 A 
ATOM      5  C   UNL     1       3.849   3.545  20.417  0.00  0.00    +0.000 A 
ATOM      6  C   UNL     1       2.570   3.044  20.185  0.00  0.00    +0.000 A 
ATOM      7 CL   UNL     1       1.673   2.457  21.538  0.00  0.00    +0.000 Cl
ATOM      8  C   UNL     1       2.065   3.029  18.885  0.00  0.00    +0.000 A 
ATOM      9 CL   UNL     1       0.492   2.405  18.512  0.00  0.00    +0.000 Cl
ATOM     10  C   UNL     1       2.832   3.524  17.819  0.00  0.00    +0.000 A 
ATOM     11  C   UNL     1       4.120   4.049  18.028  0.00  0.00    +0.000 A 
ATOM     12  N   UNL     1       4.889   4.552  16.973  0.00  0.00    +0.000 N 
ATOM     13  C   UNL     1       4.814   3.895  15.666  0.00  0.00    +0.000 C 
ATOM     14  C   UNL     1       5.624   4.560  14.538  0.00  0.00    +0.000 C 
ATOM     15  N   UNL     1       6.872   5.252  14.825  0.00  0.00    +0.000 NA
ATOM     16  C   UNL     1       7.187   5.416  16.244  0.00  0.00    +0.000 C 
ATOM     17  C   UNL     1       6.073   5.377  17.318  0.00  0.00    +0.000 C 
ATOM     18  H   UNL     1       6.325   4.329  20.535  0.00  0.00    +0.000 HD
ATOM     19  H   UNL     1       6.895   6.149  14.343  0.00  0.00    +0.000 HD
ENDROOT
TORSDOF 0
ENDMDL
MODEL 2
REMARK VINA RESULT:      -6.9      3.389      5.324
REMARK  Name = 
REMARK  0 active torsions:
REMARK  status: ('A' for Active; 'I' for Inactive)
REMARK                            x       y       z     vdW  Elec       q    Type
REMARK                         _______ _______ _______ _____ _____    ______ ____
ROOT
ATOM      1  O   UNL     1       6.465   5.413  19.851  0.00  0.00    +0.000 OA
ATOM      2  C   UNL     1       6.177   4.886  18.776  0.00  0.00    +0.000 C 
ATOM      3  N   UNL     1       6.880   5.230  17.653  0.00  0.00    +0.000 N 
ATOM      4  C   UNL     1       6.537   4.775  16.378  0.00  0.00    +0.000 A 
ATOM      5  C   UNL     1       7.350   5.164  15.307  0.00  0.00    +0.000 A 
ATOM      6  C   UNL     1       7.018   4.784  14.008  0.00  0.00    +0.000 A 
ATOM      7 CL   UNL     1       8.064   5.279  12.728  0.00  0.00    +0.000 Cl
ATOM      8  C   UNL     1       5.864   4.032  13.787  0.00  0.00    +0.000 A 
ATOM      9 CL   UNL     1       5.373   3.537  12.201  0.00  0.00    +0.000 Cl
ATOM     10  C   UNL     1       5.049   3.649  14.864  0.00  0.00    +0.000 A 
ATOM     11  C   UNL     1       5.370   4.006  16.187  0.00  0.00    +0.000 A 
ATOM     12  N   UNL     1       4.567   3.623  17.266  0.00  0.00    +0.000 N 
ATOM     13  C   UNL     1       3.113   3.581  17.090  0.00  0.00    +0.000 C 
ATOM     14  C   UNL     1       2.309   3.067  18.297  0.00  0.00    +0.000 C 
ATOM     15  N   UNL     1       2.772   3.307  19.657  0.00  0.00    +0.000 NA
ATOM     16  C   UNL     1       4.107   3.893  19.771  0.00  0.00    +0.000 C 
ATOM     17  C   UNL     1       5.142   3.750  18.629  0.00  0.00    +0.000 C 
ATOM     18  H   UNL     1       7.615   5.913  17.782  0.00  0.00    +0.000 HD
ATOM     19  H   UNL     1       2.703   2.452  20.206  0.00  0.00    +0.000 HD
ENDROOT
TORSDOF 0
ENDMDL
MODEL 3
REMARK VINA RESULT:      -6.8      4.198      4.925
REMARK  Name = 
REMARK  0 active torsions:
REMARK  status: ('A' for Active; 'I' for Inactive)
REMARK                            x       y       z     vdW  Elec       q    Type
REMARK                         _______ _______ _______ _____ _____    ______ ____
ROOT
ATOM      1  O   UNL     1       2.365   2.895  21.863  0.00  0.00    +0.000 OA
ATOM      2  C   UNL     1       2.568   3.845  21.107  0.00  0.00    +0.000 C 
ATOM      3  N   UNL     1       1.975   5.050  21.374  0.00  0.00    +0.000 N 
ATOM      4  C   UNL     1       2.051   6.139  20.504  0.00  0.00    +0.000 A 
ATOM      5  C   UNL     1       1.436   7.332  20.898  0.00  0.00    +0.000 A 
ATOM      6  C   UNL     1       1.434   8.430  20.040  0.00  0.00    +0.000 A 
ATOM      7 CL   UNL     1       0.673   9.881  20.585  0.00  0.00    +0.000 Cl
ATOM      8  C   UNL     1       2.032   8.321  18.786  0.00  0.00    +0.000 A 
ATOM      9 CL   UNL     1       2.055   9.634  17.655  0.00  0.00    +0.000 Cl
ATOM     10  C   UNL     1       2.644   7.120  18.391  0.00  0.00    +0.000 A 
ATOM     11  C   UNL     1       2.673   6.002  19.245  0.00  0.00    +0.000 A 
ATOM     12  N   UNL     1       3.286   4.804  18.864  0.00  0.00    +0.000 N 
ATOM     13  C   UNL     1       3.197   4.374  17.466  0.00  0.00    +0.000 C 
ATOM     14  C   UNL     1       3.969   3.091  17.111  0.00  0.00    +0.000 C 
ATOM     15  N   UNL     1       4.129   2.024  18.089  0.00  0.00    +0.000 NA
ATOM     16  C   UNL     1       3.673   2.339  19.442  0.00  0.00    +0.000 C 
ATOM     17  C   UNL     1       3.562   3.805  19.926  0.00  0.00    +0.000 C 
ATOM     18  H   UNL     1       1.395   5.084  22.202  0.00  0.00    +0.000 HD
ATOM     19  H   UNL     1       5.095   1.700  18.099  0.00  0.00    +0.000 HD
ENDROOT
TORSDOF 0
ENDMDL
MODEL 4
REMARK VINA RESULT:      -6.5      1.651      3.037
REMARK  Name = 
REMARK  0 active torsions:
REMARK  status: ('A' for Active; 'I' for Inactive)
REMARK                            x       y       z     vdW  Elec       q    Type
REMARK                         _______ _______ _______ _____ _____    ______ ____
ROOT
ATOM      1  O   UNL     1       5.477   4.968  14.748  0.00  0.00    +0.000 OA
ATOM      2  C   UNL     1       5.232   4.554  15.881  0.00  0.00    +0.000 C 
ATOM      3  N   UNL     1       4.006   3.999  16.138  0.00  0.00    +0.000 N 
ATOM      4  C   UNL     1       3.602   3.619  17.420  0.00  0.00    +0.000 A 
ATOM      5  C   UNL     1       2.341   3.029  17.557  0.00  0.00    +0.000 A 
ATOM      6  C   UNL     1       1.868   2.686  18.822  0.00  0.00    +0.000 A 
ATOM      7 CL   UNL     1       0.312   1.947  18.931  0.00  0.00    +0.000 Cl
ATOM      8  C   UNL     1       2.654   2.951  19.943  0.00  0.00    +0.000 A 
ATOM      9 CL   UNL     1       2.129   2.571  21.551  0.00  0.00    +0.000 Cl
ATOM     10  C   UNL     1       3.917   3.547  19.801  0.00  0.00    +0.000 A 
ATOM     11  C   UNL     1       4.424   3.890  18.534  0.00  0.00    +0.000 A 
ATOM     12  N   UNL     1       5.684   4.479  18.382  0.00  0.00    +0.000 N 
ATOM     13  C   UNL     1       6.146   5.435  19.391  0.00  0.00    +0.000 C 
ATOM     14  C   UNL     1       7.576   5.972  19.196  0.00  0.00    +0.000 C 
ATOM     15  N   UNL     1       8.130   6.146  17.861  0.00  0.00    +0.000 NA
ATOM     16  C   UNL     1       7.316   5.615  16.769  0.00  0.00    +0.000 C 
ATOM     17  C   UNL     1       6.273   4.500  17.020  0.00  0.00    +0.000 C 
ATOM     18  H   UNL     1       3.365   3.961  15.357  0.00  0.00    +0.000 HD
ATOM     19  H   UNL     1       9.077   5.770  17.823  0.00  0.00    +0.000 HD
ENDROOT
TORSDOF 0
ENDMDL
MODEL 5
REMARK VINA RESULT:      -6.4      1.111      1.119
REMARK  Name = 
REMARK  0 active torsions:
REMARK  status: ('A' for Active; 'I' for Inactive)
REMARK                            x       y       z     vdW  Elec       q    Type
REMARK                         _______ _______ _______ _____ _____    ______ ____
ROOT
ATOM      1  O   UNL     1       7.589   6.960  18.135  0.00  0.00    +0.000 OA
ATOM      2  C   UNL     1       6.570   6.309  17.906  0.00  0.00    +0.000 C 
ATOM      3  N   UNL     1       5.730   5.996  18.941  0.00  0.00    +0.000 N 
ATOM      4  C   UNL     1       4.622   5.159  18.789  0.00  0.00    +0.000 A 
ATOM      5  C   UNL     1       3.814   4.938  19.909  0.00  0.00    +0.000 A 
ATOM      6  C   UNL     1       2.731   4.066  19.824  0.00  0.00    +0.000 A 
ATOM      7 CL   UNL     1       1.760   3.842  21.233  0.00  0.00    +0.000 Cl
ATOM      8  C   UNL     1       2.474   3.407  18.622  0.00  0.00    +0.000 A 
ATOM      9 CL   UNL     1       1.158   2.293  18.442  0.00  0.00    +0.000 Cl
ATOM     10  C   UNL     1       3.290   3.627  17.502  0.00  0.00    +0.000 A 
ATOM     11  C   UNL     1       4.381   4.515  17.557  0.00  0.00    +0.000 A 
ATOM     12  N   UNL     1       5.196   4.747  16.444  0.00  0.00    +0.000 N 
ATOM     13  C   UNL     1       5.490   3.635  15.536  0.00  0.00    +0.000 C 
ATOM     14  C   UNL     1       6.322   3.992  14.291  0.00  0.00    +0.000 C 
ATOM     15  N   UNL     1       7.326   5.046  14.343  0.00  0.00    +0.000 NA
ATOM     16  C   UNL     1       7.348   5.831  15.577  0.00  0.00    +0.000 C 
ATOM     17  C   UNL     1       6.099   5.923  16.486  0.00  0.00    +0.000 C 
ATOM     18  H   UNL     1       6.007   6.332  19.853  0.00  0.00    +0.000 HD
ATOM     19  H   UNL     1       7.239   5.652  13.529  0.00  0.00    +0.000 HD
ENDROOT
TORSDOF 0
ENDMDL
MODEL 6
REMARK VINA RESULT:      -6.4      3.411      5.520
REMARK  Name = 
REMARK  0 active torsions:
REMARK  status: ('A' for Active; 'I' for Inactive)
REMARK                            x       y       z     vdW  Elec       q    Type
REMARK                         _______ _______ _______ _____ _____    ______ ____
ROOT
ATOM      1  O   UNL     1       7.588   6.566  18.535  0.00  0.00    +0.000 OA
ATOM      2  C   UNL     1       7.103   5.801  17.701  0.00  0.00    +0.000 C 
ATOM      3  N   UNL     1       7.530   5.871  16.402  0.00  0.00    +0.000 N 
ATOM      4  C   UNL     1       6.946   5.130  15.373  0.00  0.00    +0.000 A 
ATOM      5  C   UNL     1       7.489   5.256  14.090  0.00  0.00    +0.000 A 
ATOM      6  C   UNL     1       6.906   4.582  13.018  0.00  0.00    +0.000 A 
ATOM      7 CL   UNL     1       7.627   4.763  11.460  0.00  0.00    +0.000 Cl
ATOM      8  C   UNL     1       5.773   3.800  13.235  0.00  0.00    +0.000 A 
ATOM      9 CL   UNL     1       4.979   2.946  11.953  0.00  0.00    +0.000 Cl
ATOM     10  C   UNL     1       5.228   3.680  14.524  0.00  0.00    +0.000 A 
ATOM     11  C   UNL     1       5.806   4.338  15.625  0.00  0.00    +0.000 A 
ATOM     12  N   UNL     1       5.274   4.219  16.913  0.00  0.00    +0.000 N 
ATOM     13  C   UNL     1       3.820   4.137  17.076  0.00  0.00    +0.000 C 
ATOM     14  C   UNL     1       3.321   3.921  18.516  0.00  0.00    +0.000 C 
ATOM     15  N   UNL     1       4.052   4.474  19.648  0.00  0.00    +0.000 NA
ATOM     16  C   UNL     1       5.349   5.069  19.328  0.00  0.00    +0.000 C 
ATOM     17  C   UNL     1       6.120   4.662  18.049  0.00  0.00    +0.000 C 
ATOM     18  H   UNL     1       8.239   6.565  16.206  0.00  0.00    +0.000 HD
ATOM     19  H   UNL     1       4.146   3.771  20.380  0.00  0.00    +0.000 HD
ENDROOT
TORSDOF 0
ENDMDL
MODEL 7
REMARK VINA RESULT:      -6.3      3.475      5.389
REMARK  Name = 
REMARK  0 active torsions:
REMARK  status: ('A' for Active; 'I' for Inactive)
REMARK                            x       y       z     vdW  Elec       q    Type
REMARK                         _______ _______ _______ _____ _____    ______ ____
ROOT
ATOM      1  O   UNL     1       4.888   1.629  21.191  0.00  0.00    +0.000 OA
ATOM      2  C   UNL     1       4.571   2.384  20.272  0.00  0.00    +0.000 C 
ATOM      3  N   UNL     1       5.551   2.931  19.488  0.00  0.00    +0.000 N 
ATOM      4  C   UNL     1       5.288   3.891  18.508  0.00  0.00    +0.000 A 
ATOM      5  C   UNL     1       6.365   4.352  17.743  0.00  0.00    +0.000 A 
ATOM      6  C   UNL     1       6.164   5.352  16.792  0.00  0.00    +0.000 A 
ATOM      7 CL   UNL     1       7.525   5.872  15.867  0.00  0.00    +0.000 Cl
ATOM      8  C   UNL     1       4.891   5.895  16.627  0.00  0.00    +0.000 A 
ATOM      9 CL   UNL     1       4.564   7.153  15.480  0.00  0.00    +0.000 Cl
ATOM     10  C   UNL     1       3.814   5.433  17.401  0.00  0.00    +0.000 A 
ATOM     11  C   UNL     1       3.987   4.414  18.356  0.00  0.00    +0.000 A 
ATOM     12  N   UNL     1       2.919   3.942  19.127  0.00  0.00    +0.000 N 
ATOM     13  C   UNL     1       1.893   4.888  19.572  0.00  0.00    +0.000 C 
ATOM     14  C   UNL     1       0.709   4.275  20.341  0.00  0.00    +0.000 C 
ATOM     15  N   UNL     1       0.896   3.105  21.187  0.00  0.00    +0.000 NA
ATOM     16  C   UNL     1       2.213   2.473  21.103  0.00  0.00    +0.000 C 
ATOM     17  C   UNL     1       3.110   2.664  19.856  0.00  0.00    +0.000 C 
ATOM     18  H   UNL     1       6.500   2.668  19.718  0.00  0.00    +0.000 HD
ATOM     19  H   UNL     1       0.157   2.426  21.014  0.00  0.00    +0.000 HD
ENDROOT
TORSDOF 0
ENDMDL
MODEL 8
REMARK VINA RESULT:      -6.3      3.770      5.965
REMARK  Name = 
REMARK  0 active torsions:
REMARK  status: ('A' for Active; 'I' for Inactive)
REMARK                            x       y       z     vdW  Elec       q    Type
REMARK                         _______ _______ _______ _____ _____    ______ ____
ROOT
ATOM      1  O   UNL     1       0.695   4.263  17.162  0.00  0.00    +0.000 OA
ATOM      2  C   UNL     1       1.715   4.518  17.803  0.00  0.00    +0.000 C 
ATOM      3  N   UNL     1       2.801   5.037  17.151  0.00  0.00    +0.000 N 
ATOM      4  C   UNL     1       4.034   5.239  17.776  0.00  0.00    +0.000 A 
ATOM      5  C   UNL     1       5.062   5.809  17.019  0.00  0.00    +0.000 A 
ATOM      6  C   UNL     1       6.327   5.977  17.580  0.00  0.00    +0.000 A 
ATOM      7 CL   UNL     1       7.555   6.700  16.605  0.00  0.00    +0.000 Cl
ATOM      8  C   UNL     1       6.558   5.557  18.889  0.00  0.00    +0.000 A 
ATOM      9 CL   UNL     1       8.107   5.713  19.651  0.00  0.00    +0.000 Cl
ATOM     10  C   UNL     1       5.524   4.980  19.644  0.00  0.00    +0.000 A 
ATOM     11  C   UNL     1       4.234   4.813  19.106  0.00  0.00    +0.000 A 
ATOM     12  N   UNL     1       3.196   4.246  19.852  0.00  0.00    +0.000 N 
ATOM     13  C   UNL     1       3.504   3.157  20.783  0.00  0.00    +0.000 C 
ATOM     14  C   UNL     1       2.322   2.647  21.628  0.00  0.00    +0.000 C 
ATOM     15  N   UNL     1       0.967   2.657  21.095  0.00  0.00    +0.000 NA
ATOM     16  C   UNL     1       0.802   3.336  19.810  0.00  0.00    +0.000 C 
ATOM     17  C   UNL     1       1.813   4.410  19.341  0.00  0.00    +0.000 C 
ATOM     18  H   UNL     1       2.691   5.185  16.156  0.00  0.00    +0.000 HD
ATOM     19  H   UNL     1       0.321   3.030  21.788  0.00  0.00    +0.000 HD
ENDROOT
TORSDOF 0
ENDMDL
MODEL 9
REMARK VINA RESULT:      -6.3      3.808      5.468
REMARK  Name = 
REMARK  0 active torsions:
REMARK  status: ('A' for Active; 'I' for Inactive)
REMARK                            x       y       z     vdW  Elec       q    Type
REMARK                         _______ _______ _______ _____ _____    ______ ____
ROOT
ATOM      1  O   UNL     1       1.495   6.473  20.935  0.00  0.00    +0.000 OA
ATOM      2  C   UNL     1       2.264   5.822  20.228  0.00  0.00    +0.000 C 
ATOM      3  N   UNL     1       3.328   6.453  19.640  0.00  0.00    +0.000 N 
ATOM      4  C   UNL     1       4.173   5.819  18.728  0.00  0.00    +0.000 A 
ATOM      5  C   UNL     1       5.250   6.553  18.218  0.00  0.00    +0.000 A 
ATOM      6  C   UNL     1       6.088   5.984  17.261  0.00  0.00    +0.000 A 
ATOM      7 CL   UNL     1       7.409   6.931  16.678  0.00  0.00    +0.000 Cl
ATOM      8  C   UNL     1       5.833   4.691  16.808  0.00  0.00    +0.000 A 
ATOM      9 CL   UNL     1       6.818   3.921  15.607  0.00  0.00    +0.000 Cl
ATOM     10  C   UNL     1       4.749   3.959  17.318  0.00  0.00    +0.000 A 
ATOM     11  C   UNL     1       3.896   4.504  18.296  0.00  0.00    +0.000 A 
ATOM     12  N   UNL     1       2.818   3.781  18.816  0.00  0.00    +0.000 N 
ATOM     13  C   UNL     1       2.068   2.889  17.928  0.00  0.00    +0.000 C 
ATOM     14  C   UNL     1       0.952   2.065  18.596  0.00  0.00    +0.000 C 
ATOM     15  N   UNL     1       0.208   2.600  19.727  0.00  0.00    +0.000 NA
ATOM     16  C   UNL     1       0.713   3.860  20.272  0.00  0.00    +0.000 C 
ATOM     17  C   UNL     1       2.184   4.289  20.058  0.00  0.00    +0.000 C 
ATOM     18  H   UNL     1       3.417   7.442  19.833  0.00  0.00    +0.000 HD
ATOM     19  H   UNL     1       0.128   1.895  20.458  0.00  0.00    +0.000 HD
ENDROOT
TORSDOF 0
ENDMDL
