MODEL 1
REMARK VINA RESULT:      -8.5      0.000      0.000
REMARK  Name = 
REMARK  11 active torsions:
REMARK  status: ('A' for Active; 'I' for Inactive)
REMARK    1  A    between atoms: C_1  and  C_2
REMARK    2  A    between atoms: C_2  and  C_3
REMARK    3  A    between atoms: C_2  and  C_4
REMARK    4  A    between atoms: C_8  and  N_9
REMARK    5  A    between atoms: N_9  and  C_10
REMARK    6  A    between atoms: C_13  and  C_14
REMARK    7  A    between atoms: C_14  and  C_15
REMARK    8  A    between atoms: C_14  and  C_16
REMARK    9  A    between atoms: C_14  and  C_17
REMARK   10  A    between atoms: N_24  and  C_25
REMARK   11  A    between atoms: C_30  and  C_31
REMARK                            x       y       z     vdW  Elec       q    Type
REMARK                         _______ _______ _______ _____ _____    ______ ____
ROOT
ATOM      1  C   UNL     1      -2.139  11.191  17.730  0.00  0.00    +0.000 A 
ATOM      2  N   UNL     1      -2.911  11.845  18.607  0.00  0.00    +0.000 NA
ATOM      3  C   UNL     1      -2.421  12.004  19.856  0.00  0.00    +0.000 A 
ATOM      4  C   UNL     1      -1.180  11.544  20.256  0.00  0.00    +0.000 A 
ATOM      5  C   UNL     1      -0.470  10.842  19.284  0.00  0.00    +0.000 A 
ATOM      6  N   UNL     1      -0.939  10.677  18.032  0.00  0.00    +0.000 NA
ATOM      7  C   UNL     1      -0.651  11.880  21.634  0.00  0.00    +0.000 C 
ATOM      8  C   UNL     1      -0.443  13.393  21.855  0.00  0.00    +0.000 C 
ATOM      9  N   UNL     1      -1.699  14.129  22.130  0.00  0.00    +0.000 N 
ATOM     10  C   UNL     1      -2.763  14.120  21.126  0.00  0.00    +0.000 C 
ATOM     11  C   UNL     1      -3.311  12.743  20.804  0.00  0.00    +0.000 C 
ENDROOT
BRANCH   9  12
ATOM     12  C   UNL     1      -1.855  14.742  23.358  0.00  0.00    +0.000 A 
ATOM     13  N   UNL     1      -1.108  15.870  23.530  0.00  0.00    +0.000 NA
ATOM     14  C   UNL     1      -1.126  16.530  24.711  0.00  0.00    +0.000 A 
ATOM     15  C   UNL     1      -1.877  16.135  25.789  0.00  0.00    +0.000 A 
ATOM     16  C   UNL     1      -2.659  15.008  25.627  0.00  0.00    +0.000 A 
ATOM     17  C   UNL     1      -2.675  14.294  24.402  0.00  0.00    +0.000 A 
BRANCH  17  18
ATOM     18  C   UNL     1      -3.611  13.113  24.386  0.00  0.00    +0.000 C 
ATOM     19  F   UNL     1      -4.132  12.687  25.566  0.00  0.00    +0.000 F 
ATOM     20  F   UNL     1      -4.688  13.349  23.574  0.00  0.00    +0.000 F 
ATOM     21  F   UNL     1      -3.020  11.994  23.866  0.00  0.00    +0.000 F 
ENDBRANCH  17  18
ENDBRANCH   9  12
BRANCH   1  23
ATOM     22  C   UNL     1      -2.381   9.611  15.797  0.00  0.00    +0.000 C 
ATOM     23  C   UNL     1      -2.673  11.014  16.328  0.00  0.00    +0.000 C 
ATOM     24  C   UNL     1      -4.170  11.313  16.270  0.00  0.00    +0.000 C 
ENDBRANCH   1  23
BRANCH   5  25
ATOM     25  N   UNL     1       0.763  10.244  19.612  0.00  0.00    +0.000 N 
ATOM     26  H   UNL     1       1.009  10.444  20.573  0.00  0.00    +0.000 HD
BRANCH  25  27
ATOM     27  C   UNL     1       1.313   9.052  19.109  0.00  0.00    +0.000 A 
ATOM     28  C   UNL     1       1.832   8.961  17.817  0.00  0.00    +0.000 A 
ATOM     29  C   UNL     1       2.683   7.910  17.451  0.00  0.00    +0.000 A 
ATOM     30  C   UNL     1       3.019   6.892  18.362  0.00  0.00    +0.000 A 
ATOM     31  C   UNL     1       2.394   6.928  19.619  0.00  0.00    +0.000 A 
ATOM     32  C   UNL     1       1.552   7.988  19.983  0.00  0.00    +0.000 A 
BRANCH  30  33
ATOM     33  C   UNL     1       4.104   5.849  18.033  0.00  0.00    +0.000 C 
ATOM     34  C   UNL     1       4.896   5.540  19.323  0.00  0.00    +0.000 C 
ATOM     35  C   UNL     1       3.519   4.527  17.493  0.00  0.00    +0.000 C 
BRANCH  33  36
ATOM     36  C   UNL     1       5.067   6.336  17.008  0.00  0.00    +0.000 C 
ATOM     37  N   UNL     1       5.817   6.734  16.225  0.00  0.00    +0.000 NA
ENDBRANCH  33  36
ENDBRANCH  30  33
ENDBRANCH  25  27
ENDBRANCH   5  25
TORSDOF 7
ENDMDL
MODEL 2
REMARK VINA RESULT:      -8.4      2.549      4.124
REMARK  Name = 
REMARK  11 active torsions:
REMARK  status: ('A' for Active; 'I' for Inactive)
REMARK    1  A    between atoms: C_1  and  C_2
REMARK    2  A    between atoms: C_2  and  C_3
REMARK    3  A    between atoms: C_2  and  C_4
REMARK    4  A    between atoms: C_8  and  N_9
REMARK    5  A    between atoms: N_9  and  C_10
REMARK    6  A    between atoms: C_13  and  C_14
REMARK    7  A    between atoms: C_14  and  C_15
REMARK    8  A    between atoms: C_14  and  C_16
REMARK    9  A    between atoms: C_14  and  C_17
REMARK   10  A    between atoms: N_24  and  C_25
REMARK   11  A    between atoms: C_30  and  C_31
REMARK                            x       y       z     vdW  Elec       q    Type
REMARK                         _______ _______ _______ _____ _____    ______ ____
ROOT
ATOM      1  C   UNL     1       2.020  14.109  19.313  0.00  0.00    +0.000 A 
ATOM      2  N   UNL     1       0.932  14.781  19.707  0.00  0.00    +0.000 NA
ATOM      3  C   UNL     1      -0.251  14.131  19.637  0.00  0.00    +0.000 A 
ATOM      4  C   UNL     1      -0.381  12.826  19.198  0.00  0.00    +0.000 A 
ATOM      5  C   UNL     1       0.802  12.226  18.772  0.00  0.00    +0.000 A 
ATOM      6  N   UNL     1       1.991  12.856  18.838  0.00  0.00    +0.000 NA
ATOM      7  C   UNL     1      -1.722  12.127  19.276  0.00  0.00    +0.000 C 
ATOM      8  C   UNL     1      -2.240  11.961  20.720  0.00  0.00    +0.000 C 
ATOM      9  N   UNL     1      -2.824  13.200  21.286  0.00  0.00    +0.000 N 
ATOM     10  C   UNL     1      -1.984  14.391  21.407  0.00  0.00    +0.000 C 
ATOM     11  C   UNL     1      -1.441  14.914  20.091  0.00  0.00    +0.000 C 
ENDROOT
BRANCH   9  12
ATOM     12  C   UNL     1      -4.166  13.212  21.613  0.00  0.00    +0.000 A 
ATOM     13  N   UNL     1      -5.002  13.515  20.580  0.00  0.00    +0.000 NA
ATOM     14  C   UNL     1      -6.335  13.616  20.784  0.00  0.00    +0.000 A 
ATOM     15  C   UNL     1      -6.933  13.422  22.004  0.00  0.00    +0.000 A 
ATOM     16  C   UNL     1      -6.105  13.091  23.059  0.00  0.00    +0.000 A 
ATOM     17  C   UNL     1      -4.703  12.965  22.884  0.00  0.00    +0.000 A 
BRANCH  17  18
ATOM     18  C   UNL     1      -3.957  12.562  24.130  0.00  0.00    +0.000 C 
ATOM     19  F   UNL     1      -2.977  11.628  24.021  0.00  0.00    +0.000 F 
ATOM     20  F   UNL     1      -3.367  13.646  24.723  0.00  0.00    +0.000 F 
ATOM     21  F   UNL     1      -4.791  12.051  25.088  0.00  0.00    +0.000 F 
ENDBRANCH  17  18
ENDBRANCH   9  12
BRANCH   1  23
ATOM     22  C   UNL     1       4.082  14.484  20.691  0.00  0.00    +0.000 C 
ATOM     23  C   UNL     1       3.349  14.823  19.394  0.00  0.00    +0.000 C 
ATOM     24  C   UNL     1       4.219  14.500  18.181  0.00  0.00    +0.000 C 
ENDBRANCH   1  23
BRANCH   5  25
ATOM     25  N   UNL     1       0.770  10.933  18.213  0.00  0.00    +0.000 N 
ATOM     26  H   UNL     1       0.633  10.983  17.212  0.00  0.00    +0.000 HD
BRANCH  25  27
ATOM     27  C   UNL     1       1.447   9.780  18.647  0.00  0.00    +0.000 A 
ATOM     28  C   UNL     1       1.208   9.205  19.896  0.00  0.00    +0.000 A 
ATOM     29  C   UNL     1       1.604   7.891  20.175  0.00  0.00    +0.000 A 
ATOM     30  C   UNL     1       2.285   7.114  19.220  0.00  0.00    +0.000 A 
ATOM     31  C   UNL     1       2.627   7.745  18.012  0.00  0.00    +0.000 A 
ATOM     32  C   UNL     1       2.219   9.056  17.734  0.00  0.00    +0.000 A 
BRANCH  30  33
ATOM     33  C   UNL     1       2.545   5.613  19.445  0.00  0.00    +0.000 C 
ATOM     34  C   UNL     1       4.072   5.376  19.471  0.00  0.00    +0.000 C 
ATOM     35  C   UNL     1       1.950   5.096  20.773  0.00  0.00    +0.000 C 
BRANCH  33  36
ATOM     36  C   UNL     1       1.967   4.768  18.365  0.00  0.00    +0.000 C 
ATOM     37  N   UNL     1       1.498   4.125  17.528  0.00  0.00    +0.000 NA
ENDBRANCH  33  36
ENDBRANCH  30  33
ENDBRANCH  25  27
ENDBRANCH   5  25
TORSDOF 7
ENDMDL
MODEL 3
REMARK VINA RESULT:      -8.3      0.666      1.138
REMARK  Name = 
REMARK  11 active torsions:
REMARK  status: ('A' for Active; 'I' for Inactive)
REMARK    1  A    between atoms: C_1  and  C_2
REMARK    2  A    between atoms: C_2  and  C_3
REMARK    3  A    between atoms: C_2  and  C_4
REMARK    4  A    between atoms: C_8  and  N_9
REMARK    5  A    between atoms: N_9  and  C_10
REMARK    6  A    between atoms: C_13  and  C_14
REMARK    7  A    between atoms: C_14  and  C_15
REMARK    8  A    between atoms: C_14  and  C_16
REMARK    9  A    between atoms: C_14  and  C_17
REMARK   10  A    between atoms: N_24  and  C_25
REMARK   11  A    between atoms: C_30  and  C_31
REMARK                            x       y       z     vdW  Elec       q    Type
REMARK                         _______ _______ _______ _____ _____    ______ ____
ROOT
ATOM      1  C   UNL     1      -2.049  11.187  17.872  0.00  0.00    +0.000 A 
ATOM      2  N   UNL     1      -2.787  11.889  18.740  0.00  0.00    +0.000 NA
ATOM      3  C   UNL     1      -2.299  12.024  19.993  0.00  0.00    +0.000 A 
ATOM      4  C   UNL     1      -1.090  11.493  20.403  0.00  0.00    +0.000 A 
ATOM      5  C   UNL     1      -0.415  10.746  19.440  0.00  0.00    +0.000 A 
ATOM      6  N   UNL     1      -0.884  10.604  18.184  0.00  0.00    +0.000 NA
ATOM      7  C   UNL     1      -0.552  11.803  21.785  0.00  0.00    +0.000 C 
ATOM      8  C   UNL     1      -0.256  13.302  22.002  0.00  0.00    +0.000 C 
ATOM      9  N   UNL     1      -1.469  14.112  22.264  0.00  0.00    +0.000 N 
ATOM     10  C   UNL     1      -2.524  14.161  21.253  0.00  0.00    +0.000 C 
ATOM     11  C   UNL     1      -3.150  12.818  20.931  0.00  0.00    +0.000 C 
ENDROOT
BRANCH   9  12
ATOM     12  C   UNL     1      -1.597  14.738  23.489  0.00  0.00    +0.000 A 
ATOM     13  N   UNL     1      -0.761  15.799  23.676  0.00  0.00    +0.000 NA
ATOM     14  C   UNL     1      -0.747  16.460  24.856  0.00  0.00    +0.000 A 
ATOM     15  C   UNL     1      -1.551  16.132  25.919  0.00  0.00    +0.000 A 
ATOM     16  C   UNL     1      -2.421  15.075  25.741  0.00  0.00    +0.000 A 
ATOM     17  C   UNL     1      -2.473  14.362  24.516  0.00  0.00    +0.000 A 
BRANCH  17  18
ATOM     18  C   UNL     1      -3.504  13.264  24.482  0.00  0.00    +0.000 C 
ATOM     19  F   UNL     1      -3.156  12.069  23.938  0.00  0.00    +0.000 F 
ATOM     20  F   UNL     1      -3.958  12.975  25.741  0.00  0.00    +0.000 F 
ATOM     21  F   UNL     1      -4.623  13.629  23.783  0.00  0.00    +0.000 F 
ENDBRANCH  17  18
ENDBRANCH   9  12
BRANCH   1  23
ATOM     22  C   UNL     1      -2.324   9.631  15.924  0.00  0.00    +0.000 C 
ATOM     23  C   UNL     1      -2.582  11.036  16.466  0.00  0.00    +0.000 C 
ATOM     24  C   UNL     1      -4.071  11.373  16.406  0.00  0.00    +0.000 C 
ENDBRANCH   1  23
BRANCH   5  25
ATOM     25  N   UNL     1       0.778  10.078  19.779  0.00  0.00    +0.000 N 
ATOM     26  H   UNL     1       0.960  10.159  20.771  0.00  0.00    +0.000 HD
BRANCH  25  27
ATOM     27  C   UNL     1       1.335   8.934  19.180  0.00  0.00    +0.000 A 
ATOM     28  C   UNL     1       1.773   8.928  17.856  0.00  0.00    +0.000 A 
ATOM     29  C   UNL     1       2.634   7.930  17.383  0.00  0.00    +0.000 A 
ATOM     30  C   UNL     1       3.063   6.880  18.215  0.00  0.00    +0.000 A 
ATOM     31  C   UNL     1       2.519   6.830  19.510  0.00  0.00    +0.000 A 
ATOM     32  C   UNL     1       1.666   7.837  19.981  0.00  0.00    +0.000 A 
BRANCH  30  33
ATOM     33  C   UNL     1       4.160   5.898  17.765  0.00  0.00    +0.000 C 
ATOM     34  C   UNL     1       3.495   4.550  17.404  0.00  0.00    +0.000 C 
ATOM     35  C   UNL     1       4.942   6.400  16.532  0.00  0.00    +0.000 C 
BRANCH  33  36
ATOM     36  C   UNL     1       5.167   5.643  18.831  0.00  0.00    +0.000 C 
ATOM     37  N   UNL     1       5.933   5.429  19.667  0.00  0.00    +0.000 NA
ENDBRANCH  33  36
ENDBRANCH  30  33
ENDBRANCH  25  27
ENDBRANCH   5  25
TORSDOF 7
ENDMDL
MODEL 4
REMARK VINA RESULT:      -8.3      2.637      4.009
REMARK  Name = 
REMARK  11 active torsions:
REMARK  status: ('A' for Active; 'I' for Inactive)
REMARK    1  A    between atoms: C_1  and  C_2
REMARK    2  A    between atoms: C_2  and  C_3
REMARK    3  A    between atoms: C_2  and  C_4
REMARK    4  A    between atoms: C_8  and  N_9
REMARK    5  A    between atoms: N_9  and  C_10
REMARK    6  A    between atoms: C_13  and  C_14
REMARK    7  A    between atoms: C_14  and  C_15
REMARK    8  A    between atoms: C_14  and  C_16
REMARK    9  A    between atoms: C_14  and  C_17
REMARK   10  A    between atoms: N_24  and  C_25
REMARK   11  A    between atoms: C_30  and  C_31
REMARK                            x       y       z     vdW  Elec       q    Type
REMARK                         _______ _______ _______ _____ _____    ______ ____
ROOT
ATOM      1  C   UNL     1       1.966  14.006  18.726  0.00  0.00    +0.000 A 
ATOM      2  N   UNL     1       0.975  14.652  19.350  0.00  0.00    +0.000 NA
ATOM      3  C   UNL     1      -0.139  13.941  19.635  0.00  0.00    +0.000 A 
ATOM      4  C   UNL     1      -0.289  12.601  19.328  0.00  0.00    +0.000 A 
ATOM      5  C   UNL     1       0.781  12.028  18.644  0.00  0.00    +0.000 A 
ATOM      6  N   UNL     1       1.901  12.719  18.356  0.00  0.00    +0.000 NA
ATOM      7  C   UNL     1      -1.513  11.845  19.799  0.00  0.00    +0.000 C 
ATOM      8  C   UNL     1      -1.627  11.767  21.337  0.00  0.00    +0.000 C 
ATOM      9  N   UNL     1      -2.128  13.015  21.957  0.00  0.00    +0.000 N 
ATOM     10  C   UNL     1      -1.369  14.253  21.778  0.00  0.00    +0.000 C 
ATOM     11  C   UNL     1      -1.221  14.697  20.336  0.00  0.00    +0.000 C 
ENDROOT
BRANCH   9  12
ATOM     12  C   UNL     1      -3.337  12.987  22.624  0.00  0.00    +0.000 A 
ATOM     13  N   UNL     1      -3.262  12.569  23.920  0.00  0.00    +0.000 NA
ATOM     14  C   UNL     1      -4.384  12.441  24.665  0.00  0.00    +0.000 A 
ATOM     15  C   UNL     1      -5.643  12.718  24.194  0.00  0.00    +0.000 A 
ATOM     16  C   UNL     1      -5.738  13.164  22.890  0.00  0.00    +0.000 A 
ATOM     17  C   UNL     1      -4.584  13.322  22.080  0.00  0.00    +0.000 A 
BRANCH  17  18
ATOM     18  C   UNL     1      -4.866  13.854  20.699  0.00  0.00    +0.000 C 
ATOM     19  F   UNL     1      -4.386  15.081  20.370  0.00  0.00    +0.000 F 
ATOM     20  F   UNL     1      -4.388  13.004  19.737  0.00  0.00    +0.000 F 
ATOM     21  F   UNL     1      -6.208  13.948  20.446  0.00  0.00    +0.000 F 
ENDBRANCH  17  18
ENDBRANCH   9  12
BRANCH   1  23
ATOM     22  C   UNL     1       2.883  16.184  17.884  0.00  0.00    +0.000 C 
ATOM     23  C   UNL     1       3.219  14.789  18.410  0.00  0.00    +0.000 C 
ATOM     24  C   UNL     1       4.132  14.878  19.632  0.00  0.00    +0.000 C 
ENDBRANCH   1  23
BRANCH   5  25
ATOM     25  N   UNL     1       0.694  10.695  18.196  0.00  0.00    +0.000 N 
ATOM     26  H   UNL     1       0.427  10.666  17.220  0.00  0.00    +0.000 HD
BRANCH  25  27
ATOM     27  C   UNL     1       1.438   9.582  18.625  0.00  0.00    +0.000 A 
ATOM     28  C   UNL     1       1.251   9.004  19.881  0.00  0.00    +0.000 A 
ATOM     29  C   UNL     1       1.720   7.714  20.161  0.00  0.00    +0.000 A 
ATOM     30  C   UNL     1       2.424   6.968  19.198  0.00  0.00    +0.000 A 
ATOM     31  C   UNL     1       2.712   7.607  17.981  0.00  0.00    +0.000 A 
ATOM     32  C   UNL     1       2.231   8.894  17.702  0.00  0.00    +0.000 A 
BRANCH  30  33
ATOM     33  C   UNL     1       2.766   5.484  19.428  0.00  0.00    +0.000 C 
ATOM     34  C   UNL     1       2.237   5.066  20.819  0.00  0.00    +0.000 C 
ATOM     35  C   UNL     1       2.135   4.554  18.368  0.00  0.00    +0.000 C 
BRANCH  33  36
ATOM     36  C   UNL     1       4.231   5.227  19.397  0.00  0.00    +0.000 C 
ATOM     37  N   UNL     1       5.371   5.042  19.354  0.00  0.00    +0.000 NA
ENDBRANCH  33  36
ENDBRANCH  30  33
ENDBRANCH  25  27
ENDBRANCH   5  25
TORSDOF 7
ENDMDL
MODEL 5
REMARK VINA RESULT:      -8.3      2.469      4.007
REMARK  Name = 
REMARK  11 active torsions:
REMARK  status: ('A' for Active; 'I' for Inactive)
REMARK    1  A    between atoms: C_1  and  C_2
REMARK    2  A    between atoms: C_2  and  C_3
REMARK    3  A    between atoms: C_2  and  C_4
REMARK    4  A    between atoms: C_8  and  N_9
REMARK    5  A    between atoms: N_9  and  C_10
REMARK    6  A    between atoms: C_13  and  C_14
REMARK    7  A    between atoms: C_14  and  C_15
REMARK    8  A    between atoms: C_14  and  C_16
REMARK    9  A    between atoms: C_14  and  C_17
REMARK   10  A    between atoms: N_24  and  C_25
REMARK   11  A    between atoms: C_30  and  C_31
REMARK                            x       y       z     vdW  Elec       q    Type
REMARK                         _______ _______ _______ _____ _____    ______ ____
ROOT
ATOM      1  C   UNL     1       2.078  13.990  19.243  0.00  0.00    +0.000 A 
ATOM      2  N   UNL     1       1.018  14.708  19.632  0.00  0.00    +0.000 NA
ATOM      3  C   UNL     1      -0.186  14.095  19.596  0.00  0.00    +0.000 A 
ATOM      4  C   UNL     1      -0.364  12.783  19.197  0.00  0.00    +0.000 A 
ATOM      5  C   UNL     1       0.793  12.132  18.773  0.00  0.00    +0.000 A 
ATOM      6  N   UNL     1       2.002  12.725  18.806  0.00  0.00    +0.000 NA
ATOM      7  C   UNL     1      -1.726  12.131  19.311  0.00  0.00    +0.000 C 
ATOM      8  C   UNL     1      -2.229  12.023  20.766  0.00  0.00    +0.000 C 
ATOM      9  N   UNL     1      -2.766  13.295  21.303  0.00  0.00    +0.000 N 
ATOM     10  C   UNL     1      -1.886  14.462  21.379  0.00  0.00    +0.000 C 
ATOM     11  C   UNL     1      -1.344  14.928  20.042  0.00  0.00    +0.000 C 
ENDROOT
BRANCH   9  12
ATOM     12  C   UNL     1      -4.102  13.360  21.647  0.00  0.00    +0.000 A 
ATOM     13  N   UNL     1      -4.928  13.774  20.645  0.00  0.00    +0.000 NA
ATOM     14  C   UNL     1      -6.252  13.935  20.871  0.00  0.00    +0.000 A 
ATOM     15  C   UNL     1      -6.849  13.697  22.084  0.00  0.00    +0.000 A 
ATOM     16  C   UNL     1      -6.032  13.255  23.106  0.00  0.00    +0.000 A 
ATOM     17  C   UNL     1      -4.641  13.064  22.906  0.00  0.00    +0.000 A 
BRANCH  17  18
ATOM     18  C   UNL     1      -3.908  12.542  24.115  0.00  0.00    +0.000 C 
ATOM     19  F   UNL     1      -2.982  11.565  23.936  0.00  0.00    +0.000 F 
ATOM     20  F   UNL     1      -3.254  13.552  24.768  0.00  0.00    +0.000 F 
ATOM     21  F   UNL     1      -4.761  12.019  25.049  0.00  0.00    +0.000 F 
ENDBRANCH  17  18
ENDBRANCH   9  12
BRANCH   1  23
ATOM     22  C   UNL     1       3.597  15.647  18.130  0.00  0.00    +0.000 C 
ATOM     23  C   UNL     1       3.430  14.662  19.287  0.00  0.00    +0.000 C 
ATOM     24  C   UNL     1       3.650  15.361  20.628  0.00  0.00    +0.000 C 
ENDBRANCH   1  23
BRANCH   5  25
ATOM     25  N   UNL     1       0.711  10.826  18.252  0.00  0.00    +0.000 N 
ATOM     26  H   UNL     1       0.484  10.851  17.266  0.00  0.00    +0.000 HD
BRANCH  25  27
ATOM     27  C   UNL     1       1.426   9.683  18.653  0.00  0.00    +0.000 A 
ATOM     28  C   UNL     1       1.241   9.092  19.903  0.00  0.00    +0.000 A 
ATOM     29  C   UNL     1       1.673   7.784  20.156  0.00  0.00    +0.000 A 
ATOM     30  C   UNL     1       2.337   7.031  19.171  0.00  0.00    +0.000 A 
ATOM     31  C   UNL     1       2.626   7.679  17.959  0.00  0.00    +0.000 A 
ATOM     32  C   UNL     1       2.182   8.984  17.707  0.00  0.00    +0.000 A 
BRANCH  30  33
ATOM     33  C   UNL     1       2.635   5.533  19.373  0.00  0.00    +0.000 C 
ATOM     34  C   UNL     1       2.057   5.096  20.739  0.00  0.00    +0.000 C 
ATOM     35  C   UNL     1       2.011   4.646  18.275  0.00  0.00    +0.000 C 
BRANCH  33  36
ATOM     36  C   UNL     1       4.094   5.240  19.376  0.00  0.00    +0.000 C 
ATOM     37  N   UNL     1       5.227   5.019  19.402  0.00  0.00    +0.000 NA
ENDBRANCH  33  36
ENDBRANCH  30  33
ENDBRANCH  25  27
ENDBRANCH   5  25
TORSDOF 7
ENDMDL
MODEL 6
REMARK VINA RESULT:      -8.3      1.259      1.667
REMARK  Name = 
REMARK  11 active torsions:
REMARK  status: ('A' for Active; 'I' for Inactive)
REMARK    1  A    between atoms: C_1  and  C_2
REMARK    2  A    between atoms: C_2  and  C_3
REMARK    3  A    between atoms: C_2  and  C_4
REMARK    4  A    between atoms: C_8  and  N_9
REMARK    5  A    between atoms: N_9  and  C_10
REMARK    6  A    between atoms: C_13  and  C_14
REMARK    7  A    between atoms: C_14  and  C_15
REMARK    8  A    between atoms: C_14  and  C_16
REMARK    9  A    between atoms: C_14  and  C_17
REMARK   10  A    between atoms: N_24  and  C_25
REMARK   11  A    between atoms: C_30  and  C_31
REMARK                            x       y       z     vdW  Elec       q    Type
REMARK                         _______ _______ _______ _____ _____    ______ ____
ROOT
ATOM      1  C   UNL     1      -2.381  11.283  17.396  0.00  0.00    +0.000 A 
ATOM      2  N   UNL     1      -3.185  11.734  18.366  0.00  0.00    +0.000 NA
ATOM      3  C   UNL     1      -2.614  12.009  19.559  0.00  0.00    +0.000 A 
ATOM      4  C   UNL     1      -1.262  11.860  19.812  0.00  0.00    +0.000 A 
ATOM      5  C   UNL     1      -0.516  11.347  18.753  0.00  0.00    +0.000 A 
ATOM      6  N   UNL     1      -1.067  11.072  17.554  0.00  0.00    +0.000 NA
ATOM      7  C   UNL     1      -0.681  12.316  21.134  0.00  0.00    +0.000 C 
ATOM      8  C   UNL     1      -0.816  13.835  21.368  0.00  0.00    +0.000 C 
ATOM      9  N   UNL     1      -2.173  14.249  21.794  0.00  0.00    +0.000 N 
ATOM     10  C   UNL     1      -3.308  13.983  20.910  0.00  0.00    +0.000 C 
ATOM     11  C   UNL     1      -3.544  12.515  20.615  0.00  0.00    +0.000 C 
ENDROOT
BRANCH   9  12
ATOM     12  C   UNL     1      -2.335  14.810  23.046  0.00  0.00    +0.000 A 
ATOM     13  N   UNL     1      -1.790  16.051  23.189  0.00  0.00    +0.000 NA
ATOM     14  C   UNL     1      -1.830  16.683  24.384  0.00  0.00    +0.000 A 
ATOM     15  C   UNL     1      -2.406  16.146  25.508  0.00  0.00    +0.000 A 
ATOM     16  C   UNL     1      -2.983  14.899  25.378  0.00  0.00    +0.000 A 
ATOM     17  C   UNL     1      -2.973  14.207  24.139  0.00  0.00    +0.000 A 
BRANCH  17  18
ATOM     18  C   UNL     1      -3.679  12.877  24.166  0.00  0.00    +0.000 C 
ATOM     19  F   UNL     1      -4.111  12.400  25.363  0.00  0.00    +0.000 F 
ATOM     20  F   UNL     1      -4.783  12.889  23.356  0.00  0.00    +0.000 F 
ATOM     21  F   UNL     1      -2.897  11.867  23.674  0.00  0.00    +0.000 F 
ENDBRANCH  17  18
ENDBRANCH   9  12
BRANCH   1  23
ATOM     22  C   UNL     1      -2.682   9.558  15.600  0.00  0.00    +0.000 C 
ATOM     23  C   UNL     1      -3.008  10.980  16.055  0.00  0.00    +0.000 C 
ATOM     24  C   UNL     1      -4.519  11.203  16.094  0.00  0.00    +0.000 C 
ENDBRANCH   1  23
BRANCH   5  25
ATOM     25  N   UNL     1       0.852  11.063  18.932  0.00  0.00    +0.000 N 
ATOM     26  H   UNL     1       1.328  11.857  19.341  0.00  0.00    +0.000 HD
BRANCH  25  27
ATOM     27  C   UNL     1       1.454   9.822  19.206  0.00  0.00    +0.000 A 
ATOM     28  C   UNL     1       1.222   9.131  20.395  0.00  0.00    +0.000 A 
ATOM     29  C   UNL     1       1.526   7.769  20.511  0.00  0.00    +0.000 A 
ATOM     30  C   UNL     1       2.105   7.056  19.445  0.00  0.00    +0.000 A 
ATOM     31  C   UNL     1       2.446   7.790  18.297  0.00  0.00    +0.000 A 
ATOM     32  C   UNL     1       2.130   9.151  18.183  0.00  0.00    +0.000 A 
BRANCH  30  33
ATOM     33  C   UNL     1       2.256   5.524  19.494  0.00  0.00    +0.000 C 
ATOM     34  C   UNL     1       3.760   5.180  19.587  0.00  0.00    +0.000 C 
ATOM     35  C   UNL     1       1.536   4.890  20.704  0.00  0.00    +0.000 C 
BRANCH  33  36
ATOM     36  C   UNL     1       1.708   4.860  18.280  0.00  0.00    +0.000 C 
ATOM     37  N   UNL     1       1.285   4.324  17.349  0.00  0.00    +0.000 NA
ENDBRANCH  33  36
ENDBRANCH  30  33
ENDBRANCH  25  27
ENDBRANCH   5  25
TORSDOF 7
ENDMDL
MODEL 7
REMARK VINA RESULT:      -8.2      4.268      5.151
REMARK  Name = 
REMARK  11 active torsions:
REMARK  status: ('A' for Active; 'I' for Inactive)
REMARK    1  A    between atoms: C_1  and  C_2
REMARK    2  A    between atoms: C_2  and  C_3
REMARK    3  A    between atoms: C_2  and  C_4
REMARK    4  A    between atoms: C_8  and  N_9
REMARK    5  A    between atoms: N_9  and  C_10
REMARK    6  A    between atoms: C_13  and  C_14
REMARK    7  A    between atoms: C_14  and  C_15
REMARK    8  A    between atoms: C_14  and  C_16
REMARK    9  A    between atoms: C_14  and  C_17
REMARK   10  A    between atoms: N_24  and  C_25
REMARK   11  A    between atoms: C_30  and  C_31
REMARK                            x       y       z     vdW  Elec       q    Type
REMARK                         _______ _______ _______ _____ _____    ______ ____
ROOT
ATOM      1  C   UNL     1      -2.014  10.755  18.318  0.00  0.00    +0.000 A 
ATOM      2  N   UNL     1      -1.845  12.079  18.406  0.00  0.00    +0.000 NA
ATOM      3  C   UNL     1      -0.865  12.520  19.226  0.00  0.00    +0.000 A 
ATOM      4  C   UNL     1      -0.040  11.680  19.950  0.00  0.00    +0.000 A 
ATOM      5  C   UNL     1      -0.320  10.321  19.823  0.00  0.00    +0.000 A 
ATOM      6  N   UNL     1      -1.289   9.862  19.007  0.00  0.00    +0.000 NA
ATOM      7  C   UNL     1       1.119  12.249  20.742  0.00  0.00    +0.000 C 
ATOM      8  C   UNL     1       2.177  12.944  19.859  0.00  0.00    +0.000 C 
ATOM      9  N   UNL     1       1.780  14.301  19.416  0.00  0.00    +0.000 N 
ATOM     10  C   UNL     1       0.570  14.461  18.610  0.00  0.00    +0.000 C 
ATOM     11  C   UNL     1      -0.705  14.005  19.293  0.00  0.00    +0.000 C 
ENDROOT
BRANCH   9  12
ATOM     12  C   UNL     1       2.526  15.383  19.841  0.00  0.00    +0.000 A 
ATOM     13  N   UNL     1       2.047  16.002  20.958  0.00  0.00    +0.000 NA
ATOM     14  C   UNL     1       2.655  17.109  21.441  0.00  0.00    +0.000 A 
ATOM     15  C   UNL     1       3.767  17.676  20.870  0.00  0.00    +0.000 A 
ATOM     16  C   UNL     1       4.280  17.050  19.751  0.00  0.00    +0.000 A 
ATOM     17  C   UNL     1       3.679  15.881  19.219  0.00  0.00    +0.000 A 
BRANCH  17  18
ATOM     18  C   UNL     1       4.391  15.309  18.020  0.00  0.00    +0.000 C 
ATOM     19  F   UNL     1       4.584  13.966  17.965  0.00  0.00    +0.000 F 
ATOM     20  F   UNL     1       3.740  15.634  16.860  0.00  0.00    +0.000 F 
ATOM     21  F   UNL     1       5.648  15.828  17.871  0.00  0.00    +0.000 F 
ENDBRANCH  17  18
ENDBRANCH   9  12
BRANCH   1  23
ATOM     22  C   UNL     1      -4.297  11.202  17.379  0.00  0.00    +0.000 C 
ATOM     23  C   UNL     1      -3.102  10.250  17.398  0.00  0.00    +0.000 C 
ATOM     24  C   UNL     1      -2.565  10.027  15.986  0.00  0.00    +0.000 C 
ENDBRANCH   1  23
BRANCH   5  25
ATOM     25  N   UNL     1       0.394   9.383  20.593  0.00  0.00    +0.000 N 
ATOM     26  H   UNL     1      -0.140   9.113  21.408  0.00  0.00    +0.000 HD
BRANCH  25  27
ATOM     27  C   UNL     1       1.308   8.409  20.151  0.00  0.00    +0.000 A 
ATOM     28  C   UNL     1       1.525   7.223  20.852  0.00  0.00    +0.000 A 
ATOM     29  C   UNL     1       2.146   6.125  20.243  0.00  0.00    +0.000 A 
ATOM     30  C   UNL     1       2.601   6.189  18.913  0.00  0.00    +0.000 A 
ATOM     31  C   UNL     1       2.486   7.426  18.258  0.00  0.00    +0.000 A 
ATOM     32  C   UNL     1       1.854   8.518  18.869  0.00  0.00    +0.000 A 
BRANCH  30  33
ATOM     33  C   UNL     1       3.099   4.932  18.175  0.00  0.00    +0.000 C 
ATOM     34  C   UNL     1       1.888   4.238  17.511  0.00  0.00    +0.000 C 
ATOM     35  C   UNL     1       4.137   5.254  17.079  0.00  0.00    +0.000 C 
BRANCH  33  36
ATOM     36  C   UNL     1       3.743   3.953  19.093  0.00  0.00    +0.000 C 
ATOM     37  N   UNL     1       4.264   3.202  19.799  0.00  0.00    +0.000 NA
ENDBRANCH  33  36
ENDBRANCH  30  33
ENDBRANCH  25  27
ENDBRANCH   5  25
TORSDOF 7
ENDMDL
MODEL 8
REMARK VINA RESULT:      -8.2      4.062      4.817
REMARK  Name = 
REMARK  11 active torsions:
REMARK  status: ('A' for Active; 'I' for Inactive)
REMARK    1  A    between atoms: C_1  and  C_2
REMARK    2  A    between atoms: C_2  and  C_3
REMARK    3  A    between atoms: C_2  and  C_4
REMARK    4  A    between atoms: C_8  and  N_9
REMARK    5  A    between atoms: N_9  and  C_10
REMARK    6  A    between atoms: C_13  and  C_14
REMARK    7  A    between atoms: C_14  and  C_15
REMARK    8  A    between atoms: C_14  and  C_16
REMARK    9  A    between atoms: C_14  and  C_17
REMARK   10  A    between atoms: N_24  and  C_25
REMARK   11  A    between atoms: C_30  and  C_31
REMARK                            x       y       z     vdW  Elec       q    Type
REMARK                         _______ _______ _______ _____ _____    ______ ____
ROOT
ATOM      1  C   UNL     1      -1.794  10.715  18.089  0.00  0.00    +0.000 A 
ATOM      2  N   UNL     1      -1.795  12.011  18.417  0.00  0.00    +0.000 NA
ATOM      3  C   UNL     1      -0.813  12.437  19.243  0.00  0.00    +0.000 A 
ATOM      4  C   UNL     1       0.178  11.611  19.741  0.00  0.00    +0.000 A 
ATOM      5  C   UNL     1       0.069  10.271  19.375  0.00  0.00    +0.000 A 
ATOM      6  N   UNL     1      -0.899   9.829  18.549  0.00  0.00    +0.000 NA
ATOM      7  C   UNL     1       1.317  12.192  20.552  0.00  0.00    +0.000 C 
ATOM      8  C   UNL     1       2.191  13.182  19.753  0.00  0.00    +0.000 C 
ATOM      9  N   UNL     1       1.580  14.523  19.603  0.00  0.00    +0.000 N 
ATOM     10  C   UNL     1       0.292  14.646  18.920  0.00  0.00    +0.000 C 
ATOM     11  C   UNL     1      -0.845  13.892  19.582  0.00  0.00    +0.000 C 
ENDROOT
BRANCH   9  12
ATOM     12  C   UNL     1       2.211  15.608  20.179  0.00  0.00    +0.000 A 
ATOM     13  N   UNL     1       1.760  15.935  21.423  0.00  0.00    +0.000 NA
ATOM     14  C   UNL     1       2.256  17.014  22.070  0.00  0.00    +0.000 A 
ATOM     15  C   UNL     1       3.224  17.834  21.547  0.00  0.00    +0.000 A 
ATOM     16  C   UNL     1       3.711  17.506  20.297  0.00  0.00    +0.000 A 
ATOM     17  C   UNL     1       3.224  16.377  19.590  0.00  0.00    +0.000 A 
BRANCH  17  18
ATOM     18  C   UNL     1       3.891  16.145  18.259  0.00  0.00    +0.000 C 
ATOM     19  F   UNL     1       3.144  16.275  17.132  0.00  0.00    +0.000 F 
ATOM     20  F   UNL     1       4.959  16.986  18.090  0.00  0.00    +0.000 F 
ATOM     21  F   UNL     1       4.418  14.886  18.159  0.00  0.00    +0.000 F 
ENDBRANCH  17  18
ENDBRANCH   9  12
BRANCH   1  23
ATOM     22  C   UNL     1      -4.269  10.594  17.692  0.00  0.00    +0.000 C 
ATOM     23  C   UNL     1      -2.883  10.230  17.160  0.00  0.00    +0.000 C 
ATOM     24  C   UNL     1      -2.684  10.779  15.749  0.00  0.00    +0.000 C 
ENDBRANCH   1  23
BRANCH   5  25
ATOM     25  N   UNL     1       0.968   9.324  19.905  0.00  0.00    +0.000 N 
ATOM     26  H   UNL     1       0.706   9.078  20.851  0.00  0.00    +0.000 HD
BRANCH  25  27
ATOM     27  C   UNL     1       1.679   8.321  19.223  0.00  0.00    +0.000 A 
ATOM     28  C   UNL     1       2.191   8.517  17.940  0.00  0.00    +0.000 A 
ATOM     29  C   UNL     1       3.181   7.674  17.420  0.00  0.00    +0.000 A 
ATOM     30  C   UNL     1       3.671   6.581  18.157  0.00  0.00    +0.000 A 
ATOM     31  C   UNL     1       3.061   6.322  19.396  0.00  0.00    +0.000 A 
ATOM     32  C   UNL     1       2.079   7.175  19.916  0.00  0.00    +0.000 A 
BRANCH  30  33
ATOM     33  C   UNL     1       4.892   5.773  17.678  0.00  0.00    +0.000 C 
ATOM     34  C   UNL     1       4.391   4.472  17.012  0.00  0.00    +0.000 C 
ATOM     35  C   UNL     1       5.753   6.544  16.654  0.00  0.00    +0.000 C 
BRANCH  33  36
ATOM     36  C   UNL     1       5.799   5.398  18.796  0.00  0.00    +0.000 C 
ATOM     37  N   UNL     1       6.513   5.089  19.650  0.00  0.00    +0.000 NA
ENDBRANCH  33  36
ENDBRANCH  30  33
ENDBRANCH  25  27
ENDBRANCH   5  25
TORSDOF 7
ENDMDL
MODEL 9
REMARK VINA RESULT:      -8.1      4.259      5.158
REMARK  Name = 
REMARK  11 active torsions:
REMARK  status: ('A' for Active; 'I' for Inactive)
REMARK    1  A    between atoms: C_1  and  C_2
REMARK    2  A    between atoms: C_2  and  C_3
REMARK    3  A    between atoms: C_2  and  C_4
REMARK    4  A    between atoms: C_8  and  N_9
REMARK    5  A    between atoms: N_9  and  C_10
REMARK    6  A    between atoms: C_13  and  C_14
REMARK    7  A    between atoms: C_14  and  C_15
REMARK    8  A    between atoms: C_14  and  C_16
REMARK    9  A    between atoms: C_14  and  C_17
REMARK   10  A    between atoms: N_24  and  C_25
REMARK   11  A    between atoms: C_30  and  C_31
REMARK                            x       y       z     vdW  Elec       q    Type
REMARK                         _______ _______ _______ _____ _____    ______ ____
ROOT
ATOM      1  C   UNL     1      -2.045  10.857  18.126  0.00  0.00    +0.000 A 
ATOM      2  N   UNL     1      -1.835  12.175  18.225  0.00  0.00    +0.000 NA
ATOM      3  C   UNL     1      -0.873  12.581  19.083  0.00  0.00    +0.000 A 
ATOM      4  C   UNL     1      -0.104  11.713  19.835  0.00  0.00    +0.000 A 
ATOM      5  C   UNL     1      -0.425  10.364  19.693  0.00  0.00    +0.000 A 
ATOM      6  N   UNL     1      -1.377   9.940  18.839  0.00  0.00    +0.000 NA
ATOM      7  C   UNL     1       1.042  12.241  20.672  0.00  0.00    +0.000 C 
ATOM      8  C   UNL     1       2.156  12.902  19.832  0.00  0.00    +0.000 C 
ATOM      9  N   UNL     1       1.821  14.272  19.379  0.00  0.00    +0.000 N 
ATOM     10  C   UNL     1       0.648  14.474  18.529  0.00  0.00    +0.000 C 
ATOM     11  C   UNL     1      -0.666  14.059  19.161  0.00  0.00    +0.000 C 
ENDROOT
BRANCH   9  12
ATOM     12  C   UNL     1       2.586  15.328  19.836  0.00  0.00    +0.000 A 
ATOM     13  N   UNL     1       2.129  15.909  20.981  0.00  0.00    +0.000 NA
ATOM     14  C   UNL     1       2.756  16.990  21.499  0.00  0.00    +0.000 A 
ATOM     15  C   UNL     1       3.869  17.564  20.936  0.00  0.00    +0.000 A 
ATOM     16  C   UNL     1       4.361  16.975  19.787  0.00  0.00    +0.000 A 
ATOM     17  C   UNL     1       3.738  15.835  19.219  0.00  0.00    +0.000 A 
BRANCH  17  18
ATOM     18  C   UNL     1       4.428  15.300  17.990  0.00  0.00    +0.000 C 
ATOM     19  F   UNL     1       5.696  15.712  17.732  0.00  0.00    +0.000 F 
ATOM     20  F   UNL     1       4.484  13.932  18.013  0.00  0.00    +0.000 F 
ATOM     21  F   UNL     1       3.745  15.602  16.843  0.00  0.00    +0.000 F 
ENDBRANCH  17  18
ENDBRANCH   9  12
BRANCH   1  23
ATOM     22  C   UNL     1      -4.492  10.906  17.575  0.00  0.00    +0.000 C 
ATOM     23  C   UNL     1      -3.113  10.391  17.164  0.00  0.00    +0.000 C 
ATOM     24  C   UNL     1      -2.783  10.813  15.733  0.00  0.00    +0.000 C 
ENDBRANCH   1  23
BRANCH   5  25
ATOM     25  N   UNL     1       0.228   9.401  20.486  0.00  0.00    +0.000 N 
ATOM     26  H   UNL     1      -0.401   9.034  21.189  0.00  0.00    +0.000 HD
BRANCH  25  27
ATOM     27  C   UNL     1       1.256   8.517  20.112  0.00  0.00    +0.000 A 
ATOM     28  C   UNL     1       1.509   7.335  20.809  0.00  0.00    +0.000 A 
ATOM     29  C   UNL     1       2.272   6.308  20.240  0.00  0.00    +0.000 A 
ATOM     30  C   UNL     1       2.836   6.442  18.958  0.00  0.00    +0.000 A 
ATOM     31  C   UNL     1       2.677   7.682  18.317  0.00  0.00    +0.000 A 
ATOM     32  C   UNL     1       1.904   8.702  18.887  0.00  0.00    +0.000 A 
BRANCH  30  33
ATOM     33  C   UNL     1       3.502   5.249  18.247  0.00  0.00    +0.000 C 
ATOM     34  C   UNL     1       4.343   5.786  17.067  0.00  0.00    +0.000 C 
ATOM     35  C   UNL     1       4.431   4.441  19.178  0.00  0.00    +0.000 C 
BRANCH  33  36
ATOM     36  C   UNL     1       2.508   4.285  17.702  0.00  0.00    +0.000 C 
ATOM     37  N   UNL     1       1.726   3.537  17.300  0.00  0.00    +0.000 NA
ENDBRANCH  33  36
ENDBRANCH  30  33
ENDBRANCH  25  27
ENDBRANCH   5  25
TORSDOF 7
ENDMDL
