MODEL 1
REMARK VINA RESULT:      -7.5      0.000      0.000
REMARK  Name = 
REMARK  6 active torsions:
REMARK  status: ('A' for Active; 'I' for Inactive)
REMARK    1  A    between atoms: C_1  and  C_2
REMARK    2  A    between atoms: C_2  and  O_3
REMARK    3  A    between atoms: O_3  and  C_4
REMARK    4  A    between atoms: C_9  and  N_10
REMARK    5  A    between atoms: N_13  and  C_14
REMARK    6  A    between atoms: C_14  and  C_15
REMARK                            x       y       z     vdW  Elec       q    Type
REMARK                         _______ _______ _______ _____ _____    ______ ____
ROOT
ATOM      1  N   UNL     1       6.172   3.996  17.685  0.00  0.00    +0.000 N 
ATOM      2  C   UNL     1       4.793   3.789  17.712  0.00  0.00    +0.000 C 
ATOM      3  O   UNL     1       3.922   4.654  17.674  0.00  0.00    +0.000 OA
ATOM      4  N   UNL     1       4.450   2.454  17.789  0.00  0.00    +0.000 N 
ATOM      5  H   UNL     1       6.744   3.230  17.370  0.00  0.00    +0.000 HD
ATOM      6  H   UNL     1       5.103   1.877  18.299  0.00  0.00    +0.000 HD
ENDROOT
BRANCH   1  12
ATOM      7  C   UNL     1       6.820   6.198  16.717  0.00  0.00    +0.000 A 
ATOM      8  C   UNL     1       7.459   7.440  16.889  0.00  0.00    +0.000 A 
ATOM      9  C   UNL     1       8.152   7.739  18.051  0.00  0.00    +0.000 A 
ATOM     10  C   UNL     1       8.174   6.823  19.086  0.00  0.00    +0.000 A 
ATOM     11  C   UNL     1       7.508   5.611  18.953  0.00  0.00    +0.000 A 
ATOM     12  C   UNL     1       6.806   5.270  17.786  0.00  0.00    +0.000 A 
BRANCH   7  13
ATOM     13  O   UNL     1       6.215   5.875  15.513  0.00  0.00    +0.000 OA
BRANCH  13  15
ATOM     14  C   UNL     1       6.068   4.027  13.995  0.00  0.00    +0.000 C 
ATOM     15  C   UNL     1       7.003   4.992  14.685  0.00  0.00    +0.000 C 
ENDBRANCH  13  15
ENDBRANCH   7  13
ENDBRANCH   1  12
BRANCH   4  16
ATOM     16  C   UNL     1       3.043   2.095  17.926  0.00  0.00    +0.000 C 
BRANCH  16  17
ATOM     17  C   UNL     1       2.500   2.406  19.291  0.00  0.00    +0.000 A 
ATOM     18  C   UNL     1       1.219   2.941  19.460  0.00  0.00    +0.000 A 
ATOM     19  C   UNL     1       0.756   3.247  20.737  0.00  0.00    +0.000 A 
ATOM     20  C   UNL     1       1.599   3.019  21.811  0.00  0.00    +0.000 A 
ATOM     21  N   UNL     1       2.851   2.527  21.689  0.00  0.00    +0.000 NA
ATOM     22  C   UNL     1       3.273   2.240  20.436  0.00  0.00    +0.000 A 
ENDBRANCH  16  17
ENDBRANCH   4  16
TORSDOF 5
ENDMDL
MODEL 2
REMARK VINA RESULT:      -7.5      3.935      8.149
REMARK  Name = 
REMARK  6 active torsions:
REMARK  status: ('A' for Active; 'I' for Inactive)
REMARK    1  A    between atoms: C_1  and  C_2
REMARK    2  A    between atoms: C_2  and  O_3
REMARK    3  A    between atoms: O_3  and  C_4
REMARK    4  A    between atoms: C_9  and  N_10
REMARK    5  A    between atoms: N_13  and  C_14
REMARK    6  A    between atoms: C_14  and  C_15
REMARK                            x       y       z     vdW  Elec       q    Type
REMARK                         _______ _______ _______ _____ _____    ______ ____
ROOT
ATOM      1  N   UNL     1       6.708   7.551  16.891  0.00  0.00    +0.000 N 
ATOM      2  C   UNL     1       7.688   7.892  17.823  0.00  0.00    +0.000 C 
ATOM      3  O   UNL     1       8.216   7.140  18.638  0.00  0.00    +0.000 OA
ATOM      4  N   UNL     1       8.048   9.223  17.763  0.00  0.00    +0.000 N 
ATOM      5  H   UNL     1       6.623   8.140  16.079  0.00  0.00    +0.000 HD
ATOM      6  H   UNL     1       7.307   9.851  17.490  0.00  0.00    +0.000 HD
ENDROOT
BRANCH   1  12
ATOM      7  C   UNL     1       6.396   5.263  15.957  0.00  0.00    +0.000 A 
ATOM      8  C   UNL     1       5.682   4.050  15.973  0.00  0.00    +0.000 A 
ATOM      9  C   UNL     1       4.569   3.880  16.781  0.00  0.00    +0.000 A 
ATOM     10  C   UNL     1       4.181   4.899  17.629  0.00  0.00    +0.000 A 
ATOM     11  C   UNL     1       4.902   6.087  17.661  0.00  0.00    +0.000 A 
ATOM     12  C   UNL     1       6.026   6.299  16.849  0.00  0.00    +0.000 A 
BRANCH   7  13
ATOM     13  O   UNL     1       7.446   5.454  15.072  0.00  0.00    +0.000 OA
BRANCH  13  15
ATOM     14  C   UNL     1       8.134   5.539  12.780  0.00  0.00    +0.000 C 
ATOM     15  C   UNL     1       7.231   4.852  13.777  0.00  0.00    +0.000 C 
ENDBRANCH  13  15
ENDBRANCH   7  13
ENDBRANCH   1  12
BRANCH   4  16
ATOM     16  C   UNL     1       8.991   9.742  18.747  0.00  0.00    +0.000 C 
BRANCH  16  17
ATOM     17  C   UNL     1       9.612  11.042  18.321  0.00  0.00    +0.000 A 
ATOM     18  C   UNL     1      10.993  11.249  18.400  0.00  0.00    +0.000 A 
ATOM     19  C   UNL     1      11.534  12.476  18.027  0.00  0.00    +0.000 A 
ATOM     20  C   UNL     1      10.671  13.468  17.595  0.00  0.00    +0.000 A 
ATOM     21  N   UNL     1       9.330  13.318  17.527  0.00  0.00    +0.000 NA
ATOM     22  C   UNL     1       8.833  12.115  17.898  0.00  0.00    +0.000 A 
ENDBRANCH  16  17
ENDBRANCH   4  16
TORSDOF 5
ENDMDL
MODEL 3
REMARK VINA RESULT:      -7.3      3.956      7.952
REMARK  Name = 
REMARK  6 active torsions:
REMARK  status: ('A' for Active; 'I' for Inactive)
REMARK    1  A    between atoms: C_1  and  C_2
REMARK    2  A    between atoms: C_2  and  O_3
REMARK    3  A    between atoms: O_3  and  C_4
REMARK    4  A    between atoms: C_9  and  N_10
REMARK    5  A    between atoms: N_13  and  C_14
REMARK    6  A    between atoms: C_14  and  C_15
REMARK                            x       y       z     vdW  Elec       q    Type
REMARK                         _______ _______ _______ _____ _____    ______ ____
ROOT
ATOM      1  N   UNL     1       6.800   7.555  16.928  0.00  0.00    +0.000 N 
ATOM      2  C   UNL     1       7.763   7.796  17.908  0.00  0.00    +0.000 C 
ATOM      3  O   UNL     1       8.209   6.984  18.713  0.00  0.00    +0.000 OA
ATOM      4  N   UNL     1       8.211   9.103  17.911  0.00  0.00    +0.000 N 
ATOM      5  H   UNL     1       6.786   8.176  16.137  0.00  0.00    +0.000 HD
ATOM      6  H   UNL     1       7.524   9.788  17.635  0.00  0.00    +0.000 HD
ENDROOT
BRANCH   1  12
ATOM      7  C   UNL     1       6.368   5.333  15.887  0.00  0.00    +0.000 A 
ATOM      8  C   UNL     1       5.577   4.171  15.831  0.00  0.00    +0.000 A 
ATOM      9  C   UNL     1       4.434   4.040  16.603  0.00  0.00    +0.000 A 
ATOM     10  C   UNL     1       4.087   5.047  17.483  0.00  0.00    +0.000 A 
ATOM     11  C   UNL     1       4.882   6.182  17.587  0.00  0.00    +0.000 A 
ATOM     12  C   UNL     1       6.040   6.353  16.814  0.00  0.00    +0.000 A 
BRANCH   7  13
ATOM     13  O   UNL     1       7.453   5.492  15.039  0.00  0.00    +0.000 OA
BRANCH  13  15
ATOM     14  C   UNL     1       8.145   5.560  12.747  0.00  0.00    +0.000 C 
ATOM     15  C   UNL     1       7.295   4.834  13.763  0.00  0.00    +0.000 C 
ENDBRANCH  13  15
ENDBRANCH   7  13
ENDBRANCH   1  12
BRANCH   4  16
ATOM     16  C   UNL     1       9.146   9.523  18.949  0.00  0.00    +0.000 C 
BRANCH  16  17
ATOM     17  C   UNL     1       9.530  10.970  18.827  0.00  0.00    +0.000 A 
ATOM     18  C   UNL     1       8.953  11.797  17.859  0.00  0.00    +0.000 A 
ATOM     19  C   UNL     1       9.354  13.126  17.752  0.00  0.00    +0.000 A 
ATOM     20  C   UNL     1      10.335  13.586  18.615  0.00  0.00    +0.000 A 
ATOM     21  N   UNL     1      10.935  12.814  19.546  0.00  0.00    +0.000 NA
ATOM     22  C   UNL     1      10.525  11.527  19.625  0.00  0.00    +0.000 A 
ENDBRANCH  16  17
ENDBRANCH   4  16
TORSDOF 5
ENDMDL
MODEL 4
REMARK VINA RESULT:      -7.2      0.686      1.090
REMARK  Name = 
REMARK  6 active torsions:
REMARK  status: ('A' for Active; 'I' for Inactive)
REMARK    1  A    between atoms: C_1  and  C_2
REMARK    2  A    between atoms: C_2  and  O_3
REMARK    3  A    between atoms: O_3  and  C_4
REMARK    4  A    between atoms: C_9  and  N_10
REMARK    5  A    between atoms: N_13  and  C_14
REMARK    6  A    between atoms: C_14  and  C_15
REMARK                            x       y       z     vdW  Elec       q    Type
REMARK                         _______ _______ _______ _____ _____    ______ ____
ROOT
ATOM      1  N   UNL     1       6.149   3.955  17.571  0.00  0.00    +0.000 N 
ATOM      2  C   UNL     1       4.769   3.751  17.582  0.00  0.00    +0.000 C 
ATOM      3  O   UNL     1       3.900   4.618  17.554  0.00  0.00    +0.000 OA
ATOM      4  N   UNL     1       4.423   2.415  17.633  0.00  0.00    +0.000 N 
ATOM      5  H   UNL     1       6.722   3.194  17.247  0.00  0.00    +0.000 HD
ATOM      6  H   UNL     1       5.070   1.828  18.137  0.00  0.00    +0.000 HD
ENDROOT
BRANCH   1  12
ATOM      7  C   UNL     1       6.811   6.172  16.648  0.00  0.00    +0.000 A 
ATOM      8  C   UNL     1       7.451   7.409  16.847  0.00  0.00    +0.000 A 
ATOM      9  C   UNL     1       8.132   7.686  18.022  0.00  0.00    +0.000 A 
ATOM     10  C   UNL     1       8.141   6.753  19.041  0.00  0.00    +0.000 A 
ATOM     11  C   UNL     1       7.473   5.545  18.881  0.00  0.00    +0.000 A 
ATOM     12  C   UNL     1       6.784   5.225  17.701  0.00  0.00    +0.000 A 
BRANCH   7  13
ATOM     13  O   UNL     1       6.218   5.870  15.432  0.00  0.00    +0.000 OA
BRANCH  13  15
ATOM     14  C   UNL     1       6.100   3.986  13.958  0.00  0.00    +0.000 C 
ATOM     15  C   UNL     1       7.016   5.004  14.596  0.00  0.00    +0.000 C 
ENDBRANCH  13  15
ENDBRANCH   7  13
ENDBRANCH   1  12
BRANCH   4  16
ATOM     16  C   UNL     1       3.014   2.057  17.751  0.00  0.00    +0.000 C 
BRANCH  16  17
ATOM     17  C   UNL     1       2.432   2.440  19.082  0.00  0.00    +0.000 A 
ATOM     18  C   UNL     1       3.155   2.274  20.267  0.00  0.00    +0.000 A 
ATOM     19  C   UNL     1       2.574   2.610  21.488  0.00  0.00    +0.000 A 
ATOM     20  C   UNL     1       1.277   3.093  21.485  0.00  0.00    +0.000 A 
ATOM     21  N   UNL     1       0.536   3.245  20.366  0.00  0.00    +0.000 NA
ATOM     22  C   UNL     1       1.127   2.909  19.195  0.00  0.00    +0.000 A 
ENDBRANCH  16  17
ENDBRANCH   4  16
TORSDOF 5
ENDMDL
MODEL 5
REMARK VINA RESULT:      -7.1      4.240      8.318
REMARK  Name = 
REMARK  6 active torsions:
REMARK  status: ('A' for Active; 'I' for Inactive)
REMARK    1  A    between atoms: C_1  and  C_2
REMARK    2  A    between atoms: C_2  and  O_3
REMARK    3  A    between atoms: O_3  and  C_4
REMARK    4  A    between atoms: C_9  and  N_10
REMARK    5  A    between atoms: N_13  and  C_14
REMARK    6  A    between atoms: C_14  and  C_15
REMARK                            x       y       z     vdW  Elec       q    Type
REMARK                         _______ _______ _______ _____ _____    ______ ____
ROOT
ATOM      1  N   UNL     1       7.009   7.586  16.819  0.00  0.00    +0.000 N 
ATOM      2  C   UNL     1       7.857   7.872  17.890  0.00  0.00    +0.000 C 
ATOM      3  O   UNL     1       8.228   7.088  18.759  0.00  0.00    +0.000 OA
ATOM      4  N   UNL     1       8.279   9.186  17.906  0.00  0.00    +0.000 N 
ATOM      5  H   UNL     1       7.069   8.187  16.014  0.00  0.00    +0.000 HD
ATOM      6  H   UNL     1       7.613   9.850  17.539  0.00  0.00    +0.000 HD
ENDROOT
BRANCH   1  12
ATOM      7  C   UNL     1       4.955   6.207  17.110  0.00  0.00    +0.000 A 
ATOM      8  C   UNL     1       4.301   4.977  16.912  0.00  0.00    +0.000 A 
ATOM      9  C   UNL     1       4.961   3.891  16.359  0.00  0.00    +0.000 A 
ATOM     10  C   UNL     1       6.272   4.029  15.945  0.00  0.00    +0.000 A 
ATOM     11  C   UNL     1       6.920   5.250  16.090  0.00  0.00    +0.000 A 
ATOM     12  C   UNL     1       6.287   6.367  16.656  0.00  0.00    +0.000 A 
BRANCH   7  13
ATOM     13  O   UNL     1       4.314   7.254  17.754  0.00  0.00    +0.000 OA
BRANCH  13  15
ATOM     14  C   UNL     1       2.154   8.273  17.940  0.00  0.00    +0.000 C 
ATOM     15  C   UNL     1       2.930   6.983  18.066  0.00  0.00    +0.000 C 
ENDBRANCH  13  15
ENDBRANCH   7  13
ENDBRANCH   1  12
BRANCH   4  16
ATOM     16  C   UNL     1       9.089   9.651  19.026  0.00  0.00    +0.000 C 
BRANCH  16  17
ATOM     17  C   UNL     1       9.605  11.047  18.825  0.00  0.00    +0.000 A 
ATOM     18  C   UNL     1      10.366  11.388  17.702  0.00  0.00    +0.000 A 
ATOM     19  C   UNL     1      10.855  12.684  17.561  0.00  0.00    +0.000 A 
ATOM     20  C   UNL     1      10.576  13.601  18.559  0.00  0.00    +0.000 A 
ATOM     21  N   UNL     1       9.866  13.308  19.670  0.00  0.00    +0.000 NA
ATOM     22  C   UNL     1       9.405  12.040  19.780  0.00  0.00    +0.000 A 
ENDBRANCH  16  17
ENDBRANCH   4  16
TORSDOF 5
ENDMDL
MODEL 6
REMARK VINA RESULT:      -7.1      3.912      7.815
REMARK  Name = 
REMARK  6 active torsions:
REMARK  status: ('A' for Active; 'I' for Inactive)
REMARK    1  A    between atoms: C_1  and  C_2
REMARK    2  A    between atoms: C_2  and  O_3
REMARK    3  A    between atoms: O_3  and  C_4
REMARK    4  A    between atoms: C_9  and  N_10
REMARK    5  A    between atoms: N_13  and  C_14
REMARK    6  A    between atoms: C_14  and  C_15
REMARK                            x       y       z     vdW  Elec       q    Type
REMARK                         _______ _______ _______ _____ _____    ______ ____
ROOT
ATOM      1  N   UNL     1       6.763   7.559  16.955  0.00  0.00    +0.000 N 
ATOM      2  C   UNL     1       7.756   7.793  17.906  0.00  0.00    +0.000 C 
ATOM      3  O   UNL     1       8.227   6.975  18.690  0.00  0.00    +0.000 OA
ATOM      4  N   UNL     1       8.202   9.100  17.907  0.00  0.00    +0.000 N 
ATOM      5  H   UNL     1       6.723   8.187  16.170  0.00  0.00    +0.000 HD
ATOM      6  H   UNL     1       7.506   9.787  17.658  0.00  0.00    +0.000 HD
ENDROOT
BRANCH   1  12
ATOM      7  C   UNL     1       6.316   5.334  15.926  0.00  0.00    +0.000 A 
ATOM      8  C   UNL     1       5.524   4.172  15.884  0.00  0.00    +0.000 A 
ATOM      9  C   UNL     1       4.391   4.044  16.671  0.00  0.00    +0.000 A 
ATOM     10  C   UNL     1       4.056   5.053  17.554  0.00  0.00    +0.000 A 
ATOM     11  C   UNL     1       4.853   6.188  17.643  0.00  0.00    +0.000 A 
ATOM     12  C   UNL     1       6.001   6.357  16.854  0.00  0.00    +0.000 A 
BRANCH   7  13
ATOM     13  O   UNL     1       7.390   5.490  15.064  0.00  0.00    +0.000 OA
BRANCH  13  15
ATOM     14  C   UNL     1       8.106   5.495  12.778  0.00  0.00    +0.000 C 
ATOM     15  C   UNL     1       7.220   4.817  13.797  0.00  0.00    +0.000 C 
ENDBRANCH  13  15
ENDBRANCH   7  13
ENDBRANCH   1  12
BRANCH   4  16
ATOM     16  C   UNL     1       9.168   9.513  18.918  0.00  0.00    +0.000 C 
BRANCH  16  17
ATOM     17  C   UNL     1       9.256  11.006  19.057  0.00  0.00    +0.000 A 
ATOM     18  C   UNL     1       9.486  11.609  20.298  0.00  0.00    +0.000 A 
ATOM     19  C   UNL     1       9.531  12.997  20.398  0.00  0.00    +0.000 A 
ATOM     20  C   UNL     1       9.329  13.743  19.249  0.00  0.00    +0.000 A 
ATOM     21  N   UNL     1       9.078  13.201  18.038  0.00  0.00    +0.000 NA
ATOM     22  C   UNL     1       9.040  11.850  17.972  0.00  0.00    +0.000 A 
ENDBRANCH  16  17
ENDBRANCH   4  16
TORSDOF 5
ENDMDL
MODEL 7
REMARK VINA RESULT:      -7.1      2.269      6.837
REMARK  Name = 
REMARK  6 active torsions:
REMARK  status: ('A' for Active; 'I' for Inactive)
REMARK    1  A    between atoms: C_1  and  C_2
REMARK    2  A    between atoms: C_2  and  O_3
REMARK    3  A    between atoms: O_3  and  C_4
REMARK    4  A    between atoms: C_9  and  N_10
REMARK    5  A    between atoms: N_13  and  C_14
REMARK    6  A    between atoms: C_14  and  C_15
REMARK                            x       y       z     vdW  Elec       q    Type
REMARK                         _______ _______ _______ _____ _____    ______ ____
ROOT
ATOM      1  N   UNL     1       3.838   3.238  18.017  0.00  0.00    +0.000 N 
ATOM      2  C   UNL     1       5.014   3.946  17.771  0.00  0.00    +0.000 C 
ATOM      3  O   UNL     1       5.623   4.654  18.567  0.00  0.00    +0.000 OA
ATOM      4  N   UNL     1       5.477   3.787  16.479  0.00  0.00    +0.000 N 
ATOM      5  H   UNL     1       3.646   2.447  17.425  0.00  0.00    +0.000 HD
ATOM      6  H   UNL     1       4.758   3.655  15.784  0.00  0.00    +0.000 HD
ENDROOT
BRANCH   1  12
ATOM      7  C   UNL     1       2.187   4.461  19.426  0.00  0.00    +0.000 A 
ATOM      8  C   UNL     1       1.432   4.515  20.612  0.00  0.00    +0.000 A 
ATOM      9  C   UNL     1       1.577   3.557  21.602  0.00  0.00    +0.000 A 
ATOM     10  C   UNL     1       2.442   2.497  21.403  0.00  0.00    +0.000 A 
ATOM     11  C   UNL     1       3.161   2.402  20.218  0.00  0.00    +0.000 A 
ATOM     12  C   UNL     1       3.048   3.360  19.199  0.00  0.00    +0.000 A 
BRANCH   7  13
ATOM     13  O   UNL     1       2.104   5.479  18.488  0.00  0.00    +0.000 OA
BRANCH  13  15
ATOM     14  C   UNL     1       3.221   7.454  17.721  0.00  0.00    +0.000 C 
ATOM     15  C   UNL     1       2.682   6.726  18.930  0.00  0.00    +0.000 C 
ENDBRANCH  13  15
ENDBRANCH   7  13
ENDBRANCH   1  12
BRANCH   4  16
ATOM     16  C   UNL     1       6.643   4.551  16.051  0.00  0.00    +0.000 C 
BRANCH  16  17
ATOM     17  C   UNL     1       6.820   4.545  14.560  0.00  0.00    +0.000 A 
ATOM     18  C   UNL     1       6.161   3.613  13.752  0.00  0.00    +0.000 A 
ATOM     19  C   UNL     1       6.371   3.615  12.376  0.00  0.00    +0.000 A 
ATOM     20  C   UNL     1       7.248   4.546  11.848  0.00  0.00    +0.000 A 
ATOM     21  N   UNL     1       7.924   5.447  12.595  0.00  0.00    +0.000 NA
ATOM     22  C   UNL     1       7.700   5.420  13.929  0.00  0.00    +0.000 A 
ENDBRANCH  16  17
ENDBRANCH   4  16
TORSDOF 5
ENDMDL
MODEL 8
REMARK VINA RESULT:      -6.9      2.200      6.925
REMARK  Name = 
REMARK  6 active torsions:
REMARK  status: ('A' for Active; 'I' for Inactive)
REMARK    1  A    between atoms: C_1  and  C_2
REMARK    2  A    between atoms: C_2  and  O_3
REMARK    3  A    between atoms: O_3  and  C_4
REMARK    4  A    between atoms: C_9  and  N_10
REMARK    5  A    between atoms: N_13  and  C_14
REMARK    6  A    between atoms: C_14  and  C_15
REMARK                            x       y       z     vdW  Elec       q    Type
REMARK                         _______ _______ _______ _____ _____    ______ ____
ROOT
ATOM      1  N   UNL     1       4.726   3.542  18.157  0.00  0.00    +0.000 N 
ATOM      2  C   UNL     1       5.144   4.527  17.262  0.00  0.00    +0.000 C 
ATOM      3  O   UNL     1       4.467   5.454  16.825  0.00  0.00    +0.000 OA
ATOM      4  N   UNL     1       6.461   4.379  16.875  0.00  0.00    +0.000 N 
ATOM      5  H   UNL     1       5.440   3.076  18.691  0.00  0.00    +0.000 HD
ATOM      6  H   UNL     1       6.786   3.425  16.833  0.00  0.00    +0.000 HD
ENDROOT
BRANCH   1  12
ATOM      7  C   UNL     1       2.686   4.294  19.373  0.00  0.00    +0.000 A 
ATOM      8  C   UNL     1       1.355   4.038  19.750  0.00  0.00    +0.000 A 
ATOM      9  C   UNL     1       0.735   2.839  19.436  0.00  0.00    +0.000 A 
ATOM     10  C   UNL     1       1.416   1.894  18.693  0.00  0.00    +0.000 A 
ATOM     11  C   UNL     1       2.715   2.148  18.271  0.00  0.00    +0.000 A 
ATOM     12  C   UNL     1       3.378   3.346  18.580  0.00  0.00    +0.000 A 
BRANCH   7  13
ATOM     13  O   UNL     1       3.325   5.455  19.778  0.00  0.00    +0.000 OA
BRANCH  13  15
ATOM     14  C   UNL     1       2.483   7.419  18.696  0.00  0.00    +0.000 C 
ATOM     15  C   UNL     1       2.435   6.579  19.951  0.00  0.00    +0.000 C 
ENDBRANCH  13  15
ENDBRANCH   7  13
ENDBRANCH   1  12
BRANCH   4  16
ATOM     16  C   UNL     1       7.003   5.281  15.865  0.00  0.00    +0.000 C 
BRANCH  16  17
ATOM     17  C   UNL     1       6.842   4.747  14.470  0.00  0.00    +0.000 A 
ATOM     18  C   UNL     1       5.877   3.781  14.167  0.00  0.00    +0.000 A 
ATOM     19  C   UNL     1       5.775   3.284  12.870  0.00  0.00    +0.000 A 
ATOM     20  C   UNL     1       6.655   3.762  11.915  0.00  0.00    +0.000 A 
ATOM     21  N   UNL     1       7.616   4.675  12.171  0.00  0.00    +0.000 NA
ATOM     22  C   UNL     1       7.692   5.139  13.440  0.00  0.00    +0.000 A 
ENDBRANCH  16  17
ENDBRANCH   4  16
TORSDOF 5
ENDMDL
MODEL 9
REMARK VINA RESULT:      -6.8      2.651      6.724
REMARK  Name = 
REMARK  6 active torsions:
REMARK  status: ('A' for Active; 'I' for Inactive)
REMARK    1  A    between atoms: C_1  and  C_2
REMARK    2  A    between atoms: C_2  and  O_3
REMARK    3  A    between atoms: O_3  and  C_4
REMARK    4  A    between atoms: C_9  and  N_10
REMARK    5  A    between atoms: N_13  and  C_14
REMARK    6  A    between atoms: C_14  and  C_15
REMARK                            x       y       z     vdW  Elec       q    Type
REMARK                         _______ _______ _______ _____ _____    ______ ____
ROOT
ATOM      1  N   UNL     1       4.738   3.820  18.542  0.00  0.00    +0.000 N 
ATOM      2  C   UNL     1       4.448   3.618  17.193  0.00  0.00    +0.000 C 
ATOM      3  O   UNL     1       3.333   3.550  16.685  0.00  0.00    +0.000 OA
ATOM      4  N   UNL     1       5.581   3.492  16.412  0.00  0.00    +0.000 N 
ATOM      5  H   UNL     1       5.643   4.200  18.765  0.00  0.00    +0.000 HD
ATOM      6  H   UNL     1       6.370   3.065  16.875  0.00  0.00    +0.000 HD
ENDROOT
BRANCH   1  12
ATOM      7  C   UNL     1       3.113   4.978  20.033  0.00  0.00    +0.000 A 
ATOM      8  C   UNL     1       2.167   4.890  21.071  0.00  0.00    +0.000 A 
ATOM      9  C   UNL     1       1.931   3.694  21.730  0.00  0.00    +0.000 A 
ATOM     10  C   UNL     1       2.597   2.552  21.329  0.00  0.00    +0.000 A 
ATOM     11  C   UNL     1       3.500   2.610  20.275  0.00  0.00    +0.000 A 
ATOM     12  C   UNL     1       3.773   3.805  19.592  0.00  0.00    +0.000 A 
BRANCH   7  13
ATOM     13  O   UNL     1       3.411   6.200  19.450  0.00  0.00    +0.000 OA
BRANCH  13  15
ATOM     14  C   UNL     1       2.186   8.035  18.517  0.00  0.00    +0.000 C 
ATOM     15  C   UNL     1       2.513   6.567  18.379  0.00  0.00    +0.000 C 
ENDBRANCH  13  15
ENDBRANCH   7  13
ENDBRANCH   1  12
BRANCH   4  16
ATOM     16  C   UNL     1       5.428   3.177  14.997  0.00  0.00    +0.000 C 
BRANCH  16  17
ATOM     17  C   UNL     1       6.348   3.983  14.124  0.00  0.00    +0.000 A 
ATOM     18  C   UNL     1       6.421   3.762  12.745  0.00  0.00    +0.000 A 
ATOM     19  C   UNL     1       7.307   4.505  11.969  0.00  0.00    +0.000 A 
ATOM     20  C   UNL     1       8.105   5.442  12.602  0.00  0.00    +0.000 A 
ATOM     21  N   UNL     1       8.084   5.668  13.933  0.00  0.00    +0.000 NA
ATOM     22  C   UNL     1       7.214   4.930  14.662  0.00  0.00    +0.000 A 
ENDBRANCH  16  17
ENDBRANCH   4  16
TORSDOF 5
ENDMDL
