MODEL 1
REMARK VINA RESULT:      -7.6      0.000      0.000
REMARK  Name = 
REMARK  9 active torsions:
REMARK  status: ('A' for Active; 'I' for Inactive)
REMARK    1  A    between atoms: C_1  and  S_2
REMARK    2  A    between atoms: S_2  and  C_3
REMARK    3  A    between atoms: C_7  and  N_8
REMARK    4  A    between atoms: C_9  and  C_11
REMARK    5  A    between atoms: C_11  and  N_12
REMARK    6  A    between atoms: N_12  and  C_13
REMARK    7  A    between atoms: N_12  and  S_14
REMARK    8  A    between atoms: S_14  and  C_17
REMARK    9  A    between atoms: C_20  and  C_21
REMARK                            x       y       z     vdW  Elec       q    Type
REMARK                         _______ _______ _______ _____ _____    ______ ____
ROOT
ATOM      1  C   UNL     1       2.678   3.795  21.029  0.00  0.00    +0.000 C 
ENDROOT
BRANCH   1   3
ATOM      2  N   UNL     1       2.661   6.082  20.196  0.00  0.00    +0.000 N 
ATOM      3  C   UNL     1       1.874   4.999  20.561  0.00  0.00    +0.000 C 
ATOM      4  O   UNL     1       0.646   4.958  20.547  0.00  0.00    +0.000 OA
ATOM      5  H   UNL     1       3.639   6.028  20.463  0.00  0.00    +0.000 HD
BRANCH   2  10
ATOM      6  C   UNL     1       0.999   9.395  20.044  0.00  0.00    +0.000 A 
ATOM      7  C   UNL     1       1.185   9.746  18.703  0.00  0.00    +0.000 A 
ATOM      8  C   UNL     1       1.867   8.886  17.848  0.00  0.00    +0.000 A 
ATOM      9  C   UNL     1       2.364   7.674  18.329  0.00  0.00    +0.000 A 
ATOM     10  C   UNL     1       2.195   7.308  19.667  0.00  0.00    +0.000 A 
ATOM     11  C   UNL     1       1.535   8.193  20.530  0.00  0.00    +0.000 A 
BRANCH   6  13
ATOM     12  C   UNL     1       0.766  12.063  20.650  0.00  0.00    +0.000 C 
ATOM     13  S   UNL     1       0.077  10.457  21.144  0.00  0.00    +0.000 S 
ENDBRANCH   6  13
ENDBRANCH   2  10
ENDBRANCH   1   3
BRANCH   1  14
ATOM     14  N   UNL     1       2.519   2.601  20.133  0.00  0.00    +0.000 NA
ATOM     15  C   UNL     1       1.476   2.846  19.093  0.00  0.00    +0.000 C 
BRANCH  14  16
ATOM     16  S   UNL     1       4.011   2.110  19.419  0.00  0.00    +0.000 S 
ATOM     17  O   UNL     1       4.933   1.777  20.483  0.00  0.00    +0.000 OA
ATOM     18  O   UNL     1       3.692   1.166  18.369  0.00  0.00    +0.000 OA
BRANCH  16  19
ATOM     19  C   UNL     1       4.605   3.609  18.674  0.00  0.00    +0.000 A 
ATOM     20  C   UNL     1       5.567   4.357  19.356  0.00  0.00    +0.000 A 
ATOM     21  C   UNL     1       6.057   5.530  18.781  0.00  0.00    +0.000 A 
ATOM     22  C   UNL     1       5.596   5.952  17.528  0.00  0.00    +0.000 A 
ATOM     23  C   UNL     1       6.107   7.221  16.909  0.00  0.00    +0.000 C 
ATOM     24  C   UNL     1       4.640   5.180  16.850  0.00  0.00    +0.000 A 
ATOM     25  C   UNL     1       4.143   4.005  17.419  0.00  0.00    +0.000 A 
ENDBRANCH  16  19
ENDBRANCH  14  16
ENDBRANCH   1  14
TORSDOF 6
ENDMDL
MODEL 2
REMARK VINA RESULT:      -7.4      5.648      7.326
REMARK  Name = 
REMARK  9 active torsions:
REMARK  status: ('A' for Active; 'I' for Inactive)
REMARK    1  A    between atoms: C_1  and  S_2
REMARK    2  A    between atoms: S_2  and  C_3
REMARK    3  A    between atoms: C_7  and  N_8
REMARK    4  A    between atoms: C_9  and  C_11
REMARK    5  A    between atoms: C_11  and  N_12
REMARK    6  A    between atoms: N_12  and  C_13
REMARK    7  A    between atoms: N_12  and  S_14
REMARK    8  A    between atoms: S_14  and  C_17
REMARK    9  A    between atoms: C_20  and  C_21
REMARK                            x       y       z     vdW  Elec       q    Type
REMARK                         _______ _______ _______ _____ _____    ______ ____
ROOT
ATOM      1  C   UNL     1       8.020   7.458  17.672  0.00  0.00    +0.000 C 
ENDROOT
BRANCH   1   3
ATOM      2  N   UNL     1       9.126   9.158  19.020  0.00  0.00    +0.000 N 
ATOM      3  C   UNL     1       8.150   8.923  18.062  0.00  0.00    +0.000 C 
ATOM      4  O   UNL     1       7.419   9.768  17.551  0.00  0.00    +0.000 OA
ATOM      5  H   UNL     1       9.492   8.335  19.488  0.00  0.00    +0.000 HD
BRANCH   2  10
ATOM      6  C   UNL     1      10.716  12.505  19.170  0.00  0.00    +0.000 A 
ATOM      7  C   UNL     1      10.364  12.931  20.455  0.00  0.00    +0.000 A 
ATOM      8  C   UNL     1       9.595  12.108  21.272  0.00  0.00    +0.000 A 
ATOM      9  C   UNL     1       9.175  10.861  20.809  0.00  0.00    +0.000 A 
ATOM     10  C   UNL     1       9.509  10.421  19.525  0.00  0.00    +0.000 A 
ATOM     11  C   UNL     1      10.258  11.267  18.696  0.00  0.00    +0.000 A 
BRANCH   6  13
ATOM     12  C   UNL     1      12.323  14.724  19.361  0.00  0.00    +0.000 C 
ATOM     13  S   UNL     1      11.751  13.520  18.127  0.00  0.00    +0.000 S 
ENDBRANCH   6  13
ENDBRANCH   2  10
ENDBRANCH   1   3
BRANCH   1  14
ATOM     14  N   UNL     1       6.673   6.883  17.998  0.00  0.00    +0.000 NA
ATOM     15  C   UNL     1       5.787   6.876  16.796  0.00  0.00    +0.000 C 
BRANCH  14  16
ATOM     16  S   UNL     1       6.780   5.312  18.705  0.00  0.00    +0.000 S 
ATOM     17  O   UNL     1       7.532   4.464  17.807  0.00  0.00    +0.000 OA
ATOM     18  O   UNL     1       7.173   5.491  20.087  0.00  0.00    +0.000 OA
BRANCH  16  19
ATOM     19  C   UNL     1       5.099   4.744  18.662  0.00  0.00    +0.000 A 
ATOM     20  C   UNL     1       4.755   3.743  17.750  0.00  0.00    +0.000 A 
ATOM     21  C   UNL     1       3.442   3.273  17.710  0.00  0.00    +0.000 A 
ATOM     22  C   UNL     1       2.476   3.792  18.581  0.00  0.00    +0.000 A 
ATOM     23  C   UNL     1       1.058   3.303  18.535  0.00  0.00    +0.000 C 
ATOM     24  C   UNL     1       2.842   4.787  19.502  0.00  0.00    +0.000 A 
ATOM     25  C   UNL     1       4.154   5.264  19.546  0.00  0.00    +0.000 A 
ENDBRANCH  16  19
ENDBRANCH  14  16
ENDBRANCH   1  14
TORSDOF 6
ENDMDL
MODEL 3
REMARK VINA RESULT:      -7.4      5.473      7.202
REMARK  Name = 
REMARK  9 active torsions:
REMARK  status: ('A' for Active; 'I' for Inactive)
REMARK    1  A    between atoms: C_1  and  S_2
REMARK    2  A    between atoms: S_2  and  C_3
REMARK    3  A    between atoms: C_7  and  N_8
REMARK    4  A    between atoms: C_9  and  C_11
REMARK    5  A    between atoms: C_11  and  N_12
REMARK    6  A    between atoms: N_12  and  C_13
REMARK    7  A    between atoms: N_12  and  S_14
REMARK    8  A    between atoms: S_14  and  C_17
REMARK    9  A    between atoms: C_20  and  C_21
REMARK                            x       y       z     vdW  Elec       q    Type
REMARK                         _______ _______ _______ _____ _____    ______ ____
ROOT
ATOM      1  C   UNL     1       8.089   7.471  17.711  0.00  0.00    +0.000 C 
ENDROOT
BRANCH   1   3
ATOM      2  N   UNL     1       9.092   9.272  19.006  0.00  0.00    +0.000 N 
ATOM      3  C   UNL     1       8.132   8.953  18.056  0.00  0.00    +0.000 C 
ATOM      4  O   UNL     1       7.353   9.738  17.520  0.00  0.00    +0.000 OA
ATOM      5  H   UNL     1       9.505   8.487  19.499  0.00  0.00    +0.000 HD
BRANCH   2  10
ATOM      6  C   UNL     1      10.138  12.830  18.948  0.00  0.00    +0.000 A 
ATOM      7  C   UNL     1      10.081  13.167  20.304  0.00  0.00    +0.000 A 
ATOM      8  C   UNL     1       9.692  12.213  21.240  0.00  0.00    +0.000 A 
ATOM      9  C   UNL     1       9.357  10.924  20.824  0.00  0.00    +0.000 A 
ATOM     10  C   UNL     1       9.399  10.570  19.473  0.00  0.00    +0.000 A 
ATOM     11  C   UNL     1       9.763  11.544  18.532  0.00  0.00    +0.000 A 
BRANCH   6  13
ATOM     12  C   UNL     1      12.189  13.175  17.155  0.00  0.00    +0.000 C 
ATOM     13  S   UNL     1      10.691  14.021  17.737  0.00  0.00    +0.000 S 
ENDBRANCH   6  13
ENDBRANCH   2  10
ENDBRANCH   1   3
BRANCH   1  14
ATOM     14  N   UNL     1       6.745   6.852  17.961  0.00  0.00    +0.000 NA
ATOM     15  C   UNL     1       5.910   6.861  16.723  0.00  0.00    +0.000 C 
BRANCH  14  16
ATOM     16  S   UNL     1       6.865   5.261  18.621  0.00  0.00    +0.000 S 
ATOM     17  O   UNL     1       7.609   4.442  17.689  0.00  0.00    +0.000 OA
ATOM     18  O   UNL     1       7.274   5.401  20.002  0.00  0.00    +0.000 OA
BRANCH  16  19
ATOM     19  C   UNL     1       5.185   4.689  18.581  0.00  0.00    +0.000 A 
ATOM     20  C   UNL     1       4.272   5.233  19.487  0.00  0.00    +0.000 A 
ATOM     21  C   UNL     1       2.944   4.807  19.462  0.00  0.00    +0.000 A 
ATOM     22  C   UNL     1       2.524   3.849  18.531  0.00  0.00    +0.000 A 
ATOM     23  C   UNL     1       1.100   3.374  18.507  0.00  0.00    +0.000 C 
ATOM     24  C   UNL     1       3.451   3.324  17.617  0.00  0.00    +0.000 A 
ATOM     25  C   UNL     1       4.783   3.743  17.637  0.00  0.00    +0.000 A 
ENDBRANCH  16  19
ENDBRANCH  14  16
ENDBRANCH   1  14
TORSDOF 6
ENDMDL
MODEL 4
REMARK VINA RESULT:      -7.3      5.019      6.941
REMARK  Name = 
REMARK  9 active torsions:
REMARK  status: ('A' for Active; 'I' for Inactive)
REMARK    1  A    between atoms: C_1  and  S_2
REMARK    2  A    between atoms: S_2  and  C_3
REMARK    3  A    between atoms: C_7  and  N_8
REMARK    4  A    between atoms: C_9  and  C_11
REMARK    5  A    between atoms: C_11  and  N_12
REMARK    6  A    between atoms: N_12  and  C_13
REMARK    7  A    between atoms: N_12  and  S_14
REMARK    8  A    between atoms: S_14  and  C_17
REMARK    9  A    between atoms: C_20  and  C_21
REMARK                            x       y       z     vdW  Elec       q    Type
REMARK                         _______ _______ _______ _____ _____    ______ ____
ROOT
ATOM      1  C   UNL     1       7.232   7.247  16.942  0.00  0.00    +0.000 C 
ENDROOT
BRANCH   1   3
ATOM      2  N   UNL     1       8.145   9.393  17.639  0.00  0.00    +0.000 N 
ATOM      3  C   UNL     1       8.042   8.045  17.952  0.00  0.00    +0.000 C 
ATOM      4  O   UNL     1       8.546   7.486  18.924  0.00  0.00    +0.000 OA
ATOM      5  H   UNL     1       7.855   9.653  16.702  0.00  0.00    +0.000 HD
BRANCH   2  10
ATOM      6  C   UNL     1       9.537  12.689  18.618  0.00  0.00    +0.000 A 
ATOM      7  C   UNL     1      10.076  12.408  19.878  0.00  0.00    +0.000 A 
ATOM      8  C   UNL     1       9.975  11.125  20.406  0.00  0.00    +0.000 A 
ATOM      9  C   UNL     1       9.335  10.120  19.679  0.00  0.00    +0.000 A 
ATOM     10  C   UNL     1       8.783  10.382  18.422  0.00  0.00    +0.000 A 
ATOM     11  C   UNL     1       8.862  11.684  17.910  0.00  0.00    +0.000 A 
BRANCH   6  13
ATOM     12  C   UNL     1      11.455  14.626  18.284  0.00  0.00    +0.000 C 
ATOM     13  S   UNL     1       9.709  14.313  17.897  0.00  0.00    +0.000 S 
ENDBRANCH   6  13
ENDBRANCH   2  10
ENDBRANCH   1   3
BRANCH   1  14
ATOM     14  N   UNL     1       6.103   6.483  17.569  0.00  0.00    +0.000 NA
ATOM     15  C   UNL     1       4.787   6.910  17.008  0.00  0.00    +0.000 C 
BRANCH  14  16
ATOM     16  S   UNL     1       6.312   4.774  17.441  0.00  0.00    +0.000 S 
ATOM     17  O   UNL     1       6.465   4.443  16.041  0.00  0.00    +0.000 OA
ATOM     18  O   UNL     1       7.303   4.389  18.423  0.00  0.00    +0.000 OA
BRANCH  16  19
ATOM     19  C   UNL     1       4.732   4.144  17.949  0.00  0.00    +0.000 A 
ATOM     20  C   UNL     1       3.874   3.628  16.975  0.00  0.00    +0.000 A 
ATOM     21  C   UNL     1       2.635   3.114  17.357  0.00  0.00    +0.000 A 
ATOM     22  C   UNL     1       2.254   3.107  18.705  0.00  0.00    +0.000 A 
ATOM     23  C   UNL     1       0.915   2.570  19.121  0.00  0.00    +0.000 C 
ATOM     24  C   UNL     1       3.134   3.615  19.672  0.00  0.00    +0.000 A 
ATOM     25  C   UNL     1       4.377   4.133  19.298  0.00  0.00    +0.000 A 
ENDBRANCH  16  19
ENDBRANCH  14  16
ENDBRANCH   1  14
TORSDOF 6
ENDMDL
MODEL 5
REMARK VINA RESULT:      -7.2      3.344      7.921
REMARK  Name = 
REMARK  9 active torsions:
REMARK  status: ('A' for Active; 'I' for Inactive)
REMARK    1  A    between atoms: C_1  and  S_2
REMARK    2  A    between atoms: S_2  and  C_3
REMARK    3  A    between atoms: C_7  and  N_8
REMARK    4  A    between atoms: C_9  and  C_11
REMARK    5  A    between atoms: C_11  and  N_12
REMARK    6  A    between atoms: N_12  and  C_13
REMARK    7  A    between atoms: N_12  and  S_14
REMARK    8  A    between atoms: S_14  and  C_17
REMARK    9  A    between atoms: C_20  and  C_21
REMARK                            x       y       z     vdW  Elec       q    Type
REMARK                         _______ _______ _______ _____ _____    ______ ____
ROOT
ATOM      1  C   UNL     1       1.380   9.110  21.696  0.00  0.00    +0.000 C 
ENDROOT
BRANCH   1   3
ATOM      2  N   UNL     1       1.798   6.767  21.185  0.00  0.00    +0.000 N 
ATOM      3  C   UNL     1       1.623   8.034  20.648  0.00  0.00    +0.000 C 
ATOM      4  O   UNL     1       1.664   8.328  19.455  0.00  0.00    +0.000 OA
ATOM      5  H   UNL     1       1.944   6.729  22.188  0.00  0.00    +0.000 HD
BRANCH   2  10
ATOM      6  C   UNL     1       3.390   4.254  18.969  0.00  0.00    +0.000 A 
ATOM      7  C   UNL     1       2.414   3.253  18.926  0.00  0.00    +0.000 A 
ATOM      8  C   UNL     1       1.228   3.409  19.636  0.00  0.00    +0.000 A 
ATOM      9  C   UNL     1       1.013   4.563  20.390  0.00  0.00    +0.000 A 
ATOM     10  C   UNL     1       1.979   5.572  20.453  0.00  0.00    +0.000 A 
ATOM     11  C   UNL     1       3.184   5.394  19.760  0.00  0.00    +0.000 A 
BRANCH   6  13
ATOM     12  C   UNL     1       4.632   5.449  16.831  0.00  0.00    +0.000 C 
ATOM     13  S   UNL     1       4.894   4.100  18.019  0.00  0.00    +0.000 S 
ENDBRANCH   6  13
ENDBRANCH   2  10
ENDBRANCH   1   3
BRANCH   1  14
ATOM     14  N   UNL     1       0.008   9.711  21.611  0.00  0.00    +0.000 NA
ATOM     15  C   UNL     1      -0.672   9.689  22.940  0.00  0.00    +0.000 C 
BRANCH  14  16
ATOM     16  S   UNL     1       0.026  11.304  20.946  0.00  0.00    +0.000 S 
ATOM     17  O   UNL     1      -0.570  12.202  21.911  0.00  0.00    +0.000 OA
ATOM     18  O   UNL     1       1.353  11.532  20.417  0.00  0.00    +0.000 OA
BRANCH  16  19
ATOM     19  C   UNL     1      -1.113  11.178  19.589  0.00  0.00    +0.000 A 
ATOM     20  C   UNL     1      -0.825  10.283  18.557  0.00  0.00    +0.000 A 
ATOM     21  C   UNL     1      -1.715  10.159  17.489  0.00  0.00    +0.000 A 
ATOM     22  C   UNL     1      -2.891  10.918  17.454  0.00  0.00    +0.000 A 
ATOM     23  C   UNL     1      -3.846  10.802  16.301  0.00  0.00    +0.000 C 
ATOM     24  C   UNL     1      -3.172  11.802  18.507  0.00  0.00    +0.000 A 
ATOM     25  C   UNL     1      -2.286  11.934  19.579  0.00  0.00    +0.000 A 
ENDBRANCH  16  19
ENDBRANCH  14  16
ENDBRANCH   1  14
TORSDOF 6
ENDMDL
MODEL 6
REMARK VINA RESULT:      -7.2      3.320      7.820
REMARK  Name = 
REMARK  9 active torsions:
REMARK  status: ('A' for Active; 'I' for Inactive)
REMARK    1  A    between atoms: C_1  and  S_2
REMARK    2  A    between atoms: S_2  and  C_3
REMARK    3  A    between atoms: C_7  and  N_8
REMARK    4  A    between atoms: C_9  and  C_11
REMARK    5  A    between atoms: C_11  and  N_12
REMARK    6  A    between atoms: N_12  and  C_13
REMARK    7  A    between atoms: N_12  and  S_14
REMARK    8  A    between atoms: S_14  and  C_17
REMARK    9  A    between atoms: C_20  and  C_21
REMARK                            x       y       z     vdW  Elec       q    Type
REMARK                         _______ _______ _______ _____ _____    ______ ____
ROOT
ATOM      1  C   UNL     1       1.781   8.439  20.755  0.00  0.00    +0.000 C 
ENDROOT
BRANCH   1   3
ATOM      2  N   UNL     1       2.629   7.007  18.978  0.00  0.00    +0.000 N 
ATOM      3  C   UNL     1       1.983   7.034  20.205  0.00  0.00    +0.000 C 
ATOM      4  O   UNL     1       1.573   6.059  20.831  0.00  0.00    +0.000 OA
ATOM      5  H   UNL     1       2.712   7.899  18.502  0.00  0.00    +0.000 HD
BRANCH   2  10
ATOM      6  C   UNL     1       4.705   4.684  16.966  0.00  0.00    +0.000 A 
ATOM      7  C   UNL     1       3.829   3.610  16.776  0.00  0.00    +0.000 A 
ATOM      8  C   UNL     1       2.549   3.654  17.320  0.00  0.00    +0.000 A 
ATOM      9  C   UNL     1       2.141   4.768  18.054  0.00  0.00    +0.000 A 
ATOM     10  C   UNL     1       3.004   5.848  18.262  0.00  0.00    +0.000 A 
ATOM     11  C   UNL     1       4.302   5.783  17.737  0.00  0.00    +0.000 A 
BRANCH   6  13
ATOM     12  C   UNL     1       7.341   4.691  17.736  0.00  0.00    +0.000 C 
ATOM     13  S   UNL     1       6.331   4.673  16.227  0.00  0.00    +0.000 S 
ENDBRANCH   6  13
ENDBRANCH   2  10
ENDBRANCH   1   3
BRANCH   1  14
ATOM     14  N   UNL     1       0.489   9.061  20.311  0.00  0.00    +0.000 NA
ATOM     15  C   UNL     1      -0.342   9.466  21.483  0.00  0.00    +0.000 C 
BRANCH  14  16
ATOM     16  S   UNL     1       0.732  10.384  19.230  0.00  0.00    +0.000 S 
ATOM     17  O   UNL     1       1.086  11.547  20.013  0.00  0.00    +0.000 OA
ATOM     18  O   UNL     1       1.576   9.908  18.154  0.00  0.00    +0.000 OA
BRANCH  16  19
ATOM     19  C   UNL     1      -0.898  10.674  18.588  0.00  0.00    +0.000 A 
ATOM     20  C   UNL     1      -1.358   9.867  17.544  0.00  0.00    +0.000 A 
ATOM     21  C   UNL     1      -2.641  10.069  17.036  0.00  0.00    +0.000 A 
ATOM     22  C   UNL     1      -3.467  11.066  17.571  0.00  0.00    +0.000 A 
ATOM     23  C   UNL     1      -4.843  11.301  17.019  0.00  0.00    +0.000 C 
ATOM     24  C   UNL     1      -2.994  11.858  18.629  0.00  0.00    +0.000 A 
ATOM     25  C   UNL     1      -1.710  11.663  19.142  0.00  0.00    +0.000 A 
ENDBRANCH  16  19
ENDBRANCH  14  16
ENDBRANCH   1  14
TORSDOF 6
ENDMDL
MODEL 7
REMARK VINA RESULT:      -7.2      1.188      1.659
REMARK  Name = 
REMARK  9 active torsions:
REMARK  status: ('A' for Active; 'I' for Inactive)
REMARK    1  A    between atoms: C_1  and  S_2
REMARK    2  A    between atoms: S_2  and  C_3
REMARK    3  A    between atoms: C_7  and  N_8
REMARK    4  A    between atoms: C_9  and  C_11
REMARK    5  A    between atoms: C_11  and  N_12
REMARK    6  A    between atoms: N_12  and  C_13
REMARK    7  A    between atoms: N_12  and  S_14
REMARK    8  A    between atoms: S_14  and  C_17
REMARK    9  A    between atoms: C_20  and  C_21
REMARK                            x       y       z     vdW  Elec       q    Type
REMARK                         _______ _______ _______ _____ _____    ______ ____
ROOT
ATOM      1  C   UNL     1       1.646   2.948  19.420  0.00  0.00    +0.000 C 
ENDROOT
BRANCH   1   3
ATOM      2  N   UNL     1       1.943   5.359  19.572  0.00  0.00    +0.000 N 
ATOM      3  C   UNL     1       1.511   4.316  18.767  0.00  0.00    +0.000 C 
ATOM      4  O   UNL     1       1.040   4.420  17.636  0.00  0.00    +0.000 OA
ATOM      5  H   UNL     1       2.106   5.128  20.547  0.00  0.00    +0.000 HD
BRANCH   2  10
ATOM      6  C   UNL     1       1.426   9.027  19.759  0.00  0.00    +0.000 A 
ATOM      7  C   UNL     1       1.997   9.458  18.557  0.00  0.00    +0.000 A 
ATOM      8  C   UNL     1       2.558   8.531  17.684  0.00  0.00    +0.000 A 
ATOM      9  C   UNL     1       2.552   7.174  18.009  0.00  0.00    +0.000 A 
ATOM     10  C   UNL     1       1.994   6.724  19.209  0.00  0.00    +0.000 A 
ATOM     11  C   UNL     1       1.457   7.667  20.097  0.00  0.00    +0.000 A 
BRANCH   6  13
ATOM     12  C   UNL     1      -0.255   9.032  21.930  0.00  0.00    +0.000 C 
ATOM     13  S   UNL     1       0.648  10.193  20.865  0.00  0.00    +0.000 S 
ENDBRANCH   6  13
ENDBRANCH   2  10
ENDBRANCH   1   3
BRANCH   1  14
ATOM     14  N   UNL     1       2.821   2.856  20.348  0.00  0.00    +0.000 NA
ATOM     15  C   UNL     1       2.475   2.085  21.579  0.00  0.00    +0.000 C 
BRANCH  14  16
ATOM     16  S   UNL     1       4.221   2.204  19.576  0.00  0.00    +0.000 S 
ATOM     17  O   UNL     1       5.156   1.802  20.604  0.00  0.00    +0.000 OA
ATOM     18  O   UNL     1       3.760   1.276  18.565  0.00  0.00    +0.000 OA
BRANCH  16  19
ATOM     19  C   UNL     1       4.922   3.621  18.769  0.00  0.00    +0.000 A 
ATOM     20  C   UNL     1       4.788   3.735  17.383  0.00  0.00    +0.000 A 
ATOM     21  C   UNL     1       5.320   4.849  16.732  0.00  0.00    +0.000 A 
ATOM     22  C   UNL     1       5.976   5.850  17.460  0.00  0.00    +0.000 A 
ATOM     23  C   UNL     1       6.564   7.044  16.765  0.00  0.00    +0.000 C 
ATOM     24  C   UNL     1       6.089   5.727  18.853  0.00  0.00    +0.000 A 
ATOM     25  C   UNL     1       5.561   4.614  19.512  0.00  0.00    +0.000 A 
ENDBRANCH  16  19
ENDBRANCH  14  16
ENDBRANCH   1  14
TORSDOF 6
ENDMDL
MODEL 8
REMARK VINA RESULT:      -7.2      3.383      7.922
REMARK  Name = 
REMARK  9 active torsions:
REMARK  status: ('A' for Active; 'I' for Inactive)
REMARK    1  A    between atoms: C_1  and  S_2
REMARK    2  A    between atoms: S_2  and  C_3
REMARK    3  A    between atoms: C_7  and  N_8
REMARK    4  A    between atoms: C_9  and  C_11
REMARK    5  A    between atoms: C_11  and  N_12
REMARK    6  A    between atoms: N_12  and  C_13
REMARK    7  A    between atoms: N_12  and  S_14
REMARK    8  A    between atoms: S_14  and  C_17
REMARK    9  A    between atoms: C_20  and  C_21
REMARK                            x       y       z     vdW  Elec       q    Type
REMARK                         _______ _______ _______ _____ _____    ______ ____
ROOT
ATOM      1  C   UNL     1       1.375   9.323  21.119  0.00  0.00    +0.000 C 
ENDROOT
BRANCH   1   3
ATOM      2  N   UNL     1       1.780   6.929  20.954  0.00  0.00    +0.000 N 
ATOM      3  C   UNL     1       1.698   8.119  20.247  0.00  0.00    +0.000 C 
ATOM      4  O   UNL     1       1.873   8.257  19.038  0.00  0.00    +0.000 OA
ATOM      5  H   UNL     1       1.818   7.017  21.965  0.00  0.00    +0.000 HD
BRANCH   2  10
ATOM      6  C   UNL     1       3.485   4.167  19.159  0.00  0.00    +0.000 A 
ATOM      7  C   UNL     1       2.529   3.149  19.228  0.00  0.00    +0.000 A 
ATOM      8  C   UNL     1       1.319   3.376  19.875  0.00  0.00    +0.000 A 
ATOM      9  C   UNL     1       1.060   4.619  20.454  0.00  0.00    +0.000 A 
ATOM     10  C   UNL     1       2.005   5.647  20.403  0.00  0.00    +0.000 A 
ATOM     11  C   UNL     1       3.235   5.401  19.776  0.00  0.00    +0.000 A 
BRANCH   6  13
ATOM     12  C   UNL     1       4.643   4.824  16.757  0.00  0.00    +0.000 C 
ATOM     13  S   UNL     1       5.021   3.916  18.283  0.00  0.00    +0.000 S 
ENDBRANCH   6  13
ENDBRANCH   2  10
ENDBRANCH   1   3
BRANCH   1  14
ATOM     14  N   UNL     1      -0.098   9.588  21.229  0.00  0.00    +0.000 NA
ATOM     15  C   UNL     1      -0.601   9.266  22.597  0.00  0.00    +0.000 C 
BRANCH  14  16
ATOM     16  S   UNL     1      -0.514  11.201  20.774  0.00  0.00    +0.000 S 
ATOM     17  O   UNL     1      -1.478  11.703  21.729  0.00  0.00    +0.000 OA
ATOM     18  O   UNL     1       0.723  11.902  20.505  0.00  0.00    +0.000 OA
BRANCH  16  19
ATOM     19  C   UNL     1      -1.381  10.968  19.242  0.00  0.00    +0.000 A 
ATOM     20  C   UNL     1      -2.510  11.750  18.989  0.00  0.00    +0.000 A 
ATOM     21  C   UNL     1      -3.196  11.592  17.784  0.00  0.00    +0.000 A 
ATOM     22  C   UNL     1      -2.755  10.665  16.832  0.00  0.00    +0.000 A 
ATOM     23  C   UNL     1      -3.497  10.478  15.540  0.00  0.00    +0.000 C 
ATOM     24  C   UNL     1      -1.610   9.898  17.097  0.00  0.00    +0.000 A 
ATOM     25  C   UNL     1      -0.918  10.048  18.301  0.00  0.00    +0.000 A 
ENDBRANCH  16  19
ENDBRANCH  14  16
ENDBRANCH   1  14
TORSDOF 6
ENDMDL
MODEL 9
REMARK VINA RESULT:      -7.1      3.401      7.987
REMARK  Name = 
REMARK  9 active torsions:
REMARK  status: ('A' for Active; 'I' for Inactive)
REMARK    1  A    between atoms: C_1  and  S_2
REMARK    2  A    between atoms: S_2  and  C_3
REMARK    3  A    between atoms: C_7  and  N_8
REMARK    4  A    between atoms: C_9  and  C_11
REMARK    5  A    between atoms: C_11  and  N_12
REMARK    6  A    between atoms: N_12  and  C_13
REMARK    7  A    between atoms: N_12  and  S_14
REMARK    8  A    between atoms: S_14  and  C_17
REMARK    9  A    between atoms: C_20  and  C_21
REMARK                            x       y       z     vdW  Elec       q    Type
REMARK                         _______ _______ _______ _____ _____    ______ ____
ROOT
ATOM      1  C   UNL     1       1.692   8.499  20.767  0.00  0.00    +0.000 C 
ENDROOT
BRANCH   1   3
ATOM      2  N   UNL     1       2.797   6.530  19.857  0.00  0.00    +0.000 N 
ATOM      3  C   UNL     1       2.142   7.712  19.545  0.00  0.00    +0.000 C 
ATOM      4  O   UNL     1       1.929   8.146  18.415  0.00  0.00    +0.000 OA
ATOM      5  H   UNL     1       3.076   6.422  20.827  0.00  0.00    +0.000 HD
BRANCH   2  10
ATOM      6  C   UNL     1       5.158   4.647  17.704  0.00  0.00    +0.000 A 
ATOM      7  C   UNL     1       4.304   3.740  17.069  0.00  0.00    +0.000 A 
ATOM      8  C   UNL     1       2.943   3.749  17.359  0.00  0.00    +0.000 A 
ATOM      9  C   UNL     1       2.432   4.663  18.281  0.00  0.00    +0.000 A 
ATOM     10  C   UNL     1       3.270   5.572  18.932  0.00  0.00    +0.000 A 
ATOM     11  C   UNL     1       4.645   5.537  18.658  0.00  0.00    +0.000 A 
BRANCH   6  13
ATOM     12  C   UNL     1       6.791   4.495  15.501  0.00  0.00    +0.000 C 
ATOM     13  S   UNL     1       6.898   4.691  17.303  0.00  0.00    +0.000 S 
ENDBRANCH   6  13
ENDBRANCH   2  10
ENDBRANCH   1   3
BRANCH   1  14
ATOM     14  N   UNL     1       0.278   8.990  20.659  0.00  0.00    +0.000 NA
ATOM     15  C   UNL     1      -0.538   8.539  21.825  0.00  0.00    +0.000 C 
BRANCH  14  16
ATOM     16  S   UNL     1       0.189  10.703  20.459  0.00  0.00    +0.000 S 
ATOM     17  O   UNL     1      -0.245  11.280  21.713  0.00  0.00    +0.000 OA
ATOM     18  O   UNL     1       1.414  11.123  19.815  0.00  0.00    +0.000 OA
BRANCH  16  19
ATOM     19  C   UNL     1      -1.153  10.897  19.312  0.00  0.00    +0.000 A 
ATOM     20  C   UNL     1      -1.147  10.134  18.143  0.00  0.00    +0.000 A 
ATOM     21  C   UNL     1      -2.199  10.261  17.236  0.00  0.00    +0.000 A 
ATOM     22  C   UNL     1      -3.258  11.140  17.497  0.00  0.00    +0.000 A 
ATOM     23  C   UNL     1      -4.387  11.295  16.519  0.00  0.00    +0.000 C 
ATOM     24  C   UNL     1      -3.255  11.889  18.684  0.00  0.00    +0.000 A 
ATOM     25  C   UNL     1      -2.205  11.768  19.596  0.00  0.00    +0.000 A 
ENDBRANCH  16  19
ENDBRANCH  14  16
ENDBRANCH   1  14
TORSDOF 6
ENDMDL
