MODEL 1
REMARK VINA RESULT:      -7.7      0.000      0.000
REMARK  Name = 
REMARK  5 active torsions:
REMARK  status: ('A' for Active; 'I' for Inactive)
REMARK    1  A    between atoms: C_1  and  C_2
REMARK    2  A    between atoms: C_5  and  C_6
REMARK    3  A    between atoms: C_6  and  N_7
REMARK    4  A    between atoms: C_8  and  C_10
REMARK    5  A    between atoms: C_19  and  C_20
REMARK                            x       y       z     vdW  Elec       q    Type
REMARK                         _______ _______ _______ _____ _____    ______ ____
ROOT
ATOM      1  N   UNL     1       1.376   9.105  19.179  0.00  0.00    +0.000 N 
ATOM      2  C   UNL     1       1.750   8.020  19.948  0.00  0.00    +0.000 C 
ATOM      3  O   UNL     1       1.503   7.977  21.149  0.00  0.00    +0.000 OA
ATOM      4  H   UNL     1       1.491   9.035  18.175  0.00  0.00    +0.000 HD
ENDROOT
BRANCH   2   5
ATOM      5  C   UNL     1       2.445   6.947  19.227  0.00  0.00    +0.000 A 
ATOM      6  S   UNL     1       3.429   7.327  17.869  0.00  0.00    +0.000 S 
ATOM      7  C   UNL     1       3.865   5.710  17.623  0.00  0.00    +0.000 A 
ATOM      8  N   UNL     1       4.707   5.364  16.613  0.00  0.00    +0.000 NA
ATOM      9  C   UNL     1       4.955   4.100  16.539  0.00  0.00    +0.000 A 
ATOM     10  N   UNL     1       4.432   3.150  17.378  0.00  0.00    +0.000 N 
ATOM     11  C   UNL     1       3.575   3.449  18.414  0.00  0.00    +0.000 A 
ATOM     12  O   UNL     1       3.129   2.565  19.137  0.00  0.00    +0.000 OA
ATOM     13  C   UNL     1       3.273   4.867  18.542  0.00  0.00    +0.000 A 
ATOM     14  C   UNL     1       2.444   5.576  19.491  0.00  0.00    +0.000 A 
ATOM     15  C   UNL     1       1.687   4.939  20.618  0.00  0.00    +0.000 C 
ATOM     16  H   UNL     1       4.661   2.174  17.262  0.00  0.00    +0.000 HD
ENDBRANCH   2   5
BRANCH   1  17
ATOM     17  C   UNL     1       0.631  10.222  19.704  0.00  0.00    +0.000 C 
BRANCH  17  22
ATOM     18  C   UNL     1      -4.249  11.153  16.645  0.00  0.00    +0.000 C 
ATOM     19  C   UNL     1      -2.976  10.929  17.407  0.00  0.00    +0.000 A 
ATOM     20  C   UNL     1      -2.020  10.011  16.961  0.00  0.00    +0.000 A 
ATOM     21  C   UNL     1      -0.847   9.793  17.693  0.00  0.00    +0.000 A 
ATOM     22  C   UNL     1      -0.608  10.488  18.886  0.00  0.00    +0.000 A 
ATOM     23  C   UNL     1      -1.565  11.415  19.324  0.00  0.00    +0.000 A 
ATOM     24  C   UNL     1      -2.737  11.634  18.591  0.00  0.00    +0.000 A 
ENDBRANCH  17  22
ENDBRANCH   1  17
TORSDOF 3
ENDMDL
MODEL 2
REMARK VINA RESULT:      -7.7      0.055      1.029
REMARK  Name = 
REMARK  5 active torsions:
REMARK  status: ('A' for Active; 'I' for Inactive)
REMARK    1  A    between atoms: C_1  and  C_2
REMARK    2  A    between atoms: C_5  and  C_6
REMARK    3  A    between atoms: C_6  and  N_7
REMARK    4  A    between atoms: C_8  and  C_10
REMARK    5  A    between atoms: C_19  and  C_20
REMARK                            x       y       z     vdW  Elec       q    Type
REMARK                         _______ _______ _______ _____ _____    ______ ____
ROOT
ATOM      1  N   UNL     1       1.424   9.127  19.181  0.00  0.00    +0.000 N 
ATOM      2  C   UNL     1       1.748   8.025  19.948  0.00  0.00    +0.000 C 
ATOM      3  O   UNL     1       1.462   7.974  21.140  0.00  0.00    +0.000 OA
ATOM      4  H   UNL     1       1.569   9.066  18.180  0.00  0.00    +0.000 HD
ENDROOT
BRANCH   2   5
ATOM      5  C   UNL     1       2.440   6.943  19.236  0.00  0.00    +0.000 A 
ATOM      6  S   UNL     1       3.393   7.304  17.851  0.00  0.00    +0.000 S 
ATOM      7  C   UNL     1       3.842   5.688  17.631  0.00  0.00    +0.000 A 
ATOM      8  N   UNL     1       4.668   5.329  16.612  0.00  0.00    +0.000 NA
ATOM      9  C   UNL     1       4.928   4.066  16.559  0.00  0.00    +0.000 A 
ATOM     10  N   UNL     1       4.432   3.129  17.428  0.00  0.00    +0.000 N 
ATOM     11  C   UNL     1       3.592   3.441  18.475  0.00  0.00    +0.000 A 
ATOM     12  O   UNL     1       3.170   2.568  19.226  0.00  0.00    +0.000 OA
ATOM     13  C   UNL     1       3.277   4.859  18.579  0.00  0.00    +0.000 A 
ATOM     14  C   UNL     1       2.459   5.579  19.529  0.00  0.00    +0.000 A 
ATOM     15  C   UNL     1       1.732   4.958  20.684  0.00  0.00    +0.000 C 
ATOM     16  H   UNL     1       4.669   2.154  17.329  0.00  0.00    +0.000 HD
ENDBRANCH   2   5
BRANCH   1  17
ATOM     17  C   UNL     1       0.689  10.255  19.696  0.00  0.00    +0.000 C 
BRANCH  17  22
ATOM     18  C   UNL     1      -4.168  11.205  16.605  0.00  0.00    +0.000 C 
ATOM     19  C   UNL     1      -2.938  10.945  17.424  0.00  0.00    +0.000 A 
ATOM     20  C   UNL     1      -2.699  11.648  18.610  0.00  0.00    +0.000 A 
ATOM     21  C   UNL     1      -1.536  11.415  19.354  0.00  0.00    +0.000 A 
ATOM     22  C   UNL     1      -0.589  10.476  18.925  0.00  0.00    +0.000 A 
ATOM     23  C   UNL     1      -0.837   9.767  17.741  0.00  0.00    +0.000 A 
ATOM     24  C   UNL     1      -2.000   9.999  16.998  0.00  0.00    +0.000 A 
ENDBRANCH  17  22
ENDBRANCH   1  17
TORSDOF 3
ENDMDL
MODEL 3
REMARK VINA RESULT:      -7.5      3.016      7.987
REMARK  Name = 
REMARK  5 active torsions:
REMARK  status: ('A' for Active; 'I' for Inactive)
REMARK    1  A    between atoms: C_1  and  C_2
REMARK    2  A    between atoms: C_5  and  C_6
REMARK    3  A    between atoms: C_6  and  N_7
REMARK    4  A    between atoms: C_8  and  C_10
REMARK    5  A    between atoms: C_19  and  C_20
REMARK                            x       y       z     vdW  Elec       q    Type
REMARK                         _______ _______ _______ _____ _____    ______ ____
ROOT
ATOM      1  N   UNL     1       1.796   8.411  19.483  0.00  0.00    +0.000 N 
ATOM      2  C   UNL     1       1.390   9.357  18.564  0.00  0.00    +0.000 C 
ATOM      3  O   UNL     1       1.915   9.435  17.457  0.00  0.00    +0.000 OA
ATOM      4  H   UNL     1       1.249   8.307  20.329  0.00  0.00    +0.000 HD
ENDROOT
BRANCH   2   5
ATOM      5  C   UNL     1       0.302  10.238  19.006  0.00  0.00    +0.000 A 
ATOM      6  S   UNL     1       0.500  11.200  20.417  0.00  0.00    +0.000 S 
ATOM      7  C   UNL     1      -1.036  11.893  20.266  0.00  0.00    +0.000 A 
ATOM      8  N   UNL     1      -1.473  12.816  21.164  0.00  0.00    +0.000 NA
ATOM      9  C   UNL     1      -2.662  13.261  20.931  0.00  0.00    +0.000 A 
ATOM     10  N   UNL     1      -3.456  12.862  19.887  0.00  0.00    +0.000 N 
ATOM     11  C   UNL     1      -3.060  11.930  18.952  0.00  0.00    +0.000 A 
ATOM     12  O   UNL     1      -3.806  11.601  18.037  0.00  0.00    +0.000 OA
ATOM     13  C   UNL     1      -1.720  11.406  19.170  0.00  0.00    +0.000 A 
ATOM     14  C   UNL     1      -0.948  10.441  18.418  0.00  0.00    +0.000 A 
ATOM     15  C   UNL     1      -1.412   9.752  17.170  0.00  0.00    +0.000 C 
ATOM     16  H   UNL     1      -4.381  13.245  19.764  0.00  0.00    +0.000 HD
ENDBRANCH   2   5
BRANCH   1  17
ATOM     17  C   UNL     1       2.808   7.422  19.200  0.00  0.00    +0.000 C 
BRANCH  17  22
ATOM     18  C   UNL     1       0.669   1.997  19.013  0.00  0.00    +0.000 C 
ATOM     19  C   UNL     1       1.191   3.403  19.045  0.00  0.00    +0.000 A 
ATOM     20  C   UNL     1       1.652   4.029  17.881  0.00  0.00    +0.000 A 
ATOM     21  C   UNL     1       2.159   5.332  17.926  0.00  0.00    +0.000 A 
ATOM     22  C   UNL     1       2.217   6.035  19.137  0.00  0.00    +0.000 A 
ATOM     23  C   UNL     1       1.746   5.409  20.299  0.00  0.00    +0.000 A 
ATOM     24  C   UNL     1       1.237   4.106  20.254  0.00  0.00    +0.000 A 
ENDBRANCH  17  22
ENDBRANCH   1  17
TORSDOF 3
ENDMDL
MODEL 4
REMARK VINA RESULT:      -7.5      3.054      8.040
REMARK  Name = 
REMARK  5 active torsions:
REMARK  status: ('A' for Active; 'I' for Inactive)
REMARK    1  A    between atoms: C_1  and  C_2
REMARK    2  A    between atoms: C_5  and  C_6
REMARK    3  A    between atoms: C_6  and  N_7
REMARK    4  A    between atoms: C_8  and  C_10
REMARK    5  A    between atoms: C_19  and  C_20
REMARK                            x       y       z     vdW  Elec       q    Type
REMARK                         _______ _______ _______ _____ _____    ______ ____
ROOT
ATOM      1  N   UNL     1       1.717   8.436  19.246  0.00  0.00    +0.000 N 
ATOM      2  C   UNL     1       1.441   9.535  18.457  0.00  0.00    +0.000 C 
ATOM      3  O   UNL     1       2.110   9.788  17.460  0.00  0.00    +0.000 OA
ATOM      4  H   UNL     1       1.061   8.203  19.980  0.00  0.00    +0.000 HD
ENDROOT
BRANCH   2   5
ATOM      5  C   UNL     1       0.303  10.354  18.896  0.00  0.00    +0.000 A 
ATOM      6  S   UNL     1       0.461  11.368  20.275  0.00  0.00    +0.000 S 
ATOM      7  C   UNL     1      -1.121  11.952  20.135  0.00  0.00    +0.000 A 
ATOM      8  N   UNL     1      -1.603  12.870  21.015  0.00  0.00    +0.000 NA
ATOM      9  C   UNL     1      -2.823  13.227  20.794  0.00  0.00    +0.000 A 
ATOM     10  N   UNL     1      -3.606  12.746  19.777  0.00  0.00    +0.000 N 
ATOM     11  C   UNL     1      -3.166  11.816  18.861  0.00  0.00    +0.000 A 
ATOM     12  O   UNL     1      -3.904  11.411  17.970  0.00  0.00    +0.000 OA
ATOM     13  C   UNL     1      -1.790  11.388  19.067  0.00  0.00    +0.000 A 
ATOM     14  C   UNL     1      -0.967  10.457  18.328  0.00  0.00    +0.000 A 
ATOM     15  C   UNL     1      -1.406   9.702  17.108  0.00  0.00    +0.000 C 
ATOM     16  H   UNL     1      -4.557  13.062  19.662  0.00  0.00    +0.000 HD
ENDBRANCH   2   5
BRANCH   1  17
ATOM     17  C   UNL     1       2.757   7.486  18.933  0.00  0.00    +0.000 C 
BRANCH  17  22
ATOM     18  C   UNL     1       0.620   2.061  19.129  0.00  0.00    +0.000 C 
ATOM     19  C   UNL     1       1.198   3.445  19.095  0.00  0.00    +0.000 A 
ATOM     20  C   UNL     1       1.286   4.219  20.257  0.00  0.00    +0.000 A 
ATOM     21  C   UNL     1       1.804   5.518  20.211  0.00  0.00    +0.000 A 
ATOM     22  C   UNL     1       2.243   6.069  18.999  0.00  0.00    +0.000 A 
ATOM     23  C   UNL     1       2.162   5.287  17.838  0.00  0.00    +0.000 A 
ATOM     24  C   UNL     1       1.645   3.988  17.886  0.00  0.00    +0.000 A 
ENDBRANCH  17  22
ENDBRANCH   1  17
TORSDOF 3
ENDMDL
MODEL 5
REMARK VINA RESULT:      -7.4      1.446      2.235
REMARK  Name = 
REMARK  5 active torsions:
REMARK  status: ('A' for Active; 'I' for Inactive)
REMARK    1  A    between atoms: C_1  and  C_2
REMARK    2  A    between atoms: C_5  and  C_6
REMARK    3  A    between atoms: C_6  and  N_7
REMARK    4  A    between atoms: C_8  and  C_10
REMARK    5  A    between atoms: C_19  and  C_20
REMARK                            x       y       z     vdW  Elec       q    Type
REMARK                         _______ _______ _______ _____ _____    ______ ____
ROOT
ATOM      1  N   UNL     1       1.451   8.921  19.306  0.00  0.00    +0.000 N 
ATOM      2  C   UNL     1       1.707   7.948  20.251  0.00  0.00    +0.000 C 
ATOM      3  O   UNL     1       1.489   8.145  21.442  0.00  0.00    +0.000 OA
ATOM      4  H   UNL     1       1.529   8.665  18.329  0.00  0.00    +0.000 HD
ENDROOT
BRANCH   2   5
ATOM      5  C   UNL     1       2.244   6.686  19.726  0.00  0.00    +0.000 A 
ATOM      6  S   UNL     1       1.916   5.211  20.546  0.00  0.00    +0.000 S 
ATOM      7  C   UNL     1       2.776   4.291  19.416  0.00  0.00    +0.000 A 
ATOM      8  N   UNL     1       2.866   2.940  19.545  0.00  0.00    +0.000 NA
ATOM      9  C   UNL     1       3.552   2.363  18.617  0.00  0.00    +0.000 A 
ATOM     10  N   UNL     1       4.161   3.014  17.575  0.00  0.00    +0.000 N 
ATOM     11  C   UNL     1       4.100   4.380  17.401  0.00  0.00    +0.000 A 
ATOM     12  O   UNL     1       4.663   4.920  16.455  0.00  0.00    +0.000 OA
ATOM     13  C   UNL     1       3.329   5.073  18.422  0.00  0.00    +0.000 A 
ATOM     14  C   UNL     1       3.020   6.476  18.585  0.00  0.00    +0.000 A 
ATOM     15  C   UNL     1       3.461   7.568  17.657  0.00  0.00    +0.000 C 
ATOM     16  H   UNL     1       4.689   2.505  16.883  0.00  0.00    +0.000 HD
ENDBRANCH   2   5
BRANCH   1  17
ATOM     17  C   UNL     1       0.864  10.198  19.630  0.00  0.00    +0.000 C 
BRANCH  17  22
ATOM     18  C   UNL     1      -4.108  11.091  16.711  0.00  0.00    +0.000 C 
ATOM     19  C   UNL     1      -2.847  10.845  17.487  0.00  0.00    +0.000 A 
ATOM     20  C   UNL     1      -2.588  11.529  18.679  0.00  0.00    +0.000 A 
ATOM     21  C   UNL     1      -1.398  11.310  19.382  0.00  0.00    +0.000 A 
ATOM     22  C   UNL     1      -0.442  10.403  18.904  0.00  0.00    +0.000 A 
ATOM     23  C   UNL     1      -0.710   9.712  17.713  0.00  0.00    +0.000 A 
ATOM     24  C   UNL     1      -1.901   9.931  17.012  0.00  0.00    +0.000 A 
ENDBRANCH  17  22
ENDBRANCH   1  17
TORSDOF 3
ENDMDL
MODEL 6
REMARK VINA RESULT:      -7.4      2.324      3.343
REMARK  Name = 
REMARK  5 active torsions:
REMARK  status: ('A' for Active; 'I' for Inactive)
REMARK    1  A    between atoms: C_1  and  C_2
REMARK    2  A    between atoms: C_5  and  C_6
REMARK    3  A    between atoms: C_6  and  N_7
REMARK    4  A    between atoms: C_8  and  C_10
REMARK    5  A    between atoms: C_19  and  C_20
REMARK                            x       y       z     vdW  Elec       q    Type
REMARK                         _______ _______ _______ _____ _____    ______ ____
ROOT
ATOM      1  N   UNL     1       2.144   7.484  20.540  0.00  0.00    +0.000 N 
ATOM      2  C   UNL     1       2.269   6.182  20.098  0.00  0.00    +0.000 C 
ATOM      3  O   UNL     1       1.478   5.312  20.450  0.00  0.00    +0.000 OA
ATOM      4  H   UNL     1       2.743   8.185  20.123  0.00  0.00    +0.000 HD
ENDROOT
BRANCH   2   5
ATOM      5  C   UNL     1       3.395   5.931  19.190  0.00  0.00    +0.000 A 
ATOM      6  S   UNL     1       4.589   4.769  19.611  0.00  0.00    +0.000 S 
ATOM      7  C   UNL     1       5.458   5.015  18.179  0.00  0.00    +0.000 A 
ATOM      8  N   UNL     1       6.591   4.308  17.924  0.00  0.00    +0.000 NA
ATOM      9  C   UNL     1       7.153   4.595  16.799  0.00  0.00    +0.000 A 
ATOM     10  N   UNL     1       6.690   5.529  15.909  0.00  0.00    +0.000 N 
ATOM     11  C   UNL     1       5.548   6.272  16.121  0.00  0.00    +0.000 A 
ATOM     12  O   UNL     1       5.173   7.100  15.298  0.00  0.00    +0.000 OA
ATOM     13  C   UNL     1       4.875   5.975  17.377  0.00  0.00    +0.000 A 
ATOM     14  C   UNL     1       3.663   6.516  17.951  0.00  0.00    +0.000 A 
ATOM     15  C   UNL     1       2.797   7.559  17.309  0.00  0.00    +0.000 C 
ATOM     16  H   UNL     1       7.180   5.712  15.047  0.00  0.00    +0.000 HD
ENDBRANCH   2   5
BRANCH   1  17
ATOM     17  C   UNL     1       1.062   7.927  21.387  0.00  0.00    +0.000 C 
BRANCH  17  22
ATOM     18  C   UNL     1      -1.140  12.959  19.422  0.00  0.00    +0.000 C 
ATOM     19  C   UNL     1      -0.606  11.652  19.928  0.00  0.00    +0.000 A 
ATOM     20  C   UNL     1      -0.832  11.241  21.245  0.00  0.00    +0.000 A 
ATOM     21  C   UNL     1      -0.308  10.031  21.714  0.00  0.00    +0.000 A 
ATOM     22  C   UNL     1       0.454   9.209  20.874  0.00  0.00    +0.000 A 
ATOM     23  C   UNL     1       0.671   9.619  19.551  0.00  0.00    +0.000 A 
ATOM     24  C   UNL     1       0.146  10.829  19.082  0.00  0.00    +0.000 A 
ENDBRANCH  17  22
ENDBRANCH   1  17
TORSDOF 3
ENDMDL
MODEL 7
REMARK VINA RESULT:      -7.4      1.449      1.985
REMARK  Name = 
REMARK  5 active torsions:
REMARK  status: ('A' for Active; 'I' for Inactive)
REMARK    1  A    between atoms: C_1  and  C_2
REMARK    2  A    between atoms: C_5  and  C_6
REMARK    3  A    between atoms: C_6  and  N_7
REMARK    4  A    between atoms: C_8  and  C_10
REMARK    5  A    between atoms: C_19  and  C_20
REMARK                            x       y       z     vdW  Elec       q    Type
REMARK                         _______ _______ _______ _____ _____    ______ ____
ROOT
ATOM      1  N   UNL     1       1.410   8.930  19.334  0.00  0.00    +0.000 N 
ATOM      2  C   UNL     1       1.705   7.964  20.276  0.00  0.00    +0.000 C 
ATOM      3  O   UNL     1       1.523   8.166  21.473  0.00  0.00    +0.000 OA
ATOM      4  H   UNL     1       1.460   8.669  18.357  0.00  0.00    +0.000 HD
ENDROOT
BRANCH   2   5
ATOM      5  C   UNL     1       2.237   6.705  19.741  0.00  0.00    +0.000 A 
ATOM      6  S   UNL     1       1.905   5.225  20.550  0.00  0.00    +0.000 S 
ATOM      7  C   UNL     1       2.761   4.310  19.413  0.00  0.00    +0.000 A 
ATOM      8  N   UNL     1       2.847   2.958  19.531  0.00  0.00    +0.000 NA
ATOM      9  C   UNL     1       3.530   2.386  18.598  0.00  0.00    +0.000 A 
ATOM     10  N   UNL     1       4.140   3.043  17.561  0.00  0.00    +0.000 N 
ATOM     11  C   UNL     1       4.084   4.410  17.397  0.00  0.00    +0.000 A 
ATOM     12  O   UNL     1       4.649   4.955  16.455  0.00  0.00    +0.000 OA
ATOM     13  C   UNL     1       3.316   5.098  18.424  0.00  0.00    +0.000 A 
ATOM     14  C   UNL     1       3.012   6.501  18.598  0.00  0.00    +0.000 A 
ATOM     15  C   UNL     1       3.457   7.598  17.678  0.00  0.00    +0.000 C 
ATOM     16  H   UNL     1       4.666   2.537  16.864  0.00  0.00    +0.000 HD
ENDBRANCH   2   5
BRANCH   1  17
ATOM     17  C   UNL     1       0.822  10.203  19.670  0.00  0.00    +0.000 C 
BRANCH  17  22
ATOM     18  C   UNL     1      -4.170  11.034  16.766  0.00  0.00    +0.000 C 
ATOM     19  C   UNL     1      -2.869  10.837  17.488  0.00  0.00    +0.000 A 
ATOM     20  C   UNL     1      -1.911   9.934  17.015  0.00  0.00    +0.000 A 
ATOM     21  C   UNL     1      -0.712   9.739  17.709  0.00  0.00    +0.000 A 
ATOM     22  C   UNL     1      -0.448  10.444  18.891  0.00  0.00    +0.000 A 
ATOM     23  C   UNL     1      -1.406  11.356  19.357  0.00  0.00    +0.000 A 
ATOM     24  C   UNL     1      -2.604  11.551  18.662  0.00  0.00    +0.000 A 
ENDBRANCH  17  22
ENDBRANCH   1  17
TORSDOF 3
ENDMDL
MODEL 8
REMARK VINA RESULT:      -7.3      1.863      2.693
REMARK  Name = 
REMARK  5 active torsions:
REMARK  status: ('A' for Active; 'I' for Inactive)
REMARK    1  A    between atoms: C_1  and  C_2
REMARK    2  A    between atoms: C_5  and  C_6
REMARK    3  A    between atoms: C_6  and  N_7
REMARK    4  A    between atoms: C_8  and  C_10
REMARK    5  A    between atoms: C_19  and  C_20
REMARK                            x       y       z     vdW  Elec       q    Type
REMARK                         _______ _______ _______ _____ _____    ______ ____
ROOT
ATOM      1  N   UNL     1       1.284   9.204  19.328  0.00  0.00    +0.000 N 
ATOM      2  C   UNL     1       2.076   8.406  18.527  0.00  0.00    +0.000 C 
ATOM      3  O   UNL     1       2.496   8.808  17.446  0.00  0.00    +0.000 OA
ATOM      4  H   UNL     1       1.070   8.873  20.261  0.00  0.00    +0.000 HD
ENDROOT
BRANCH   2   5
ATOM      5  C   UNL     1       2.372   7.071  19.062  0.00  0.00    +0.000 A 
ATOM      6  S   UNL     1       1.537   6.505  20.454  0.00  0.00    +0.000 S 
ATOM      7  C   UNL     1       2.341   5.016  20.437  0.00  0.00    +0.000 A 
ATOM      8  N   UNL     1       2.066   4.068  21.372  0.00  0.00    +0.000 NA
ATOM      9  C   UNL     1       2.751   2.982  21.244  0.00  0.00    +0.000 A 
ATOM     10  N   UNL     1       3.690   2.760  20.270  0.00  0.00    +0.000 N 
ATOM     11  C   UNL     1       4.005   3.689  19.302  0.00  0.00    +0.000 A 
ATOM     12  O   UNL     1       4.856   3.448  18.452  0.00  0.00    +0.000 OA
ATOM     13  C   UNL     1       3.250   4.929  19.402  0.00  0.00    +0.000 A 
ATOM     14  C   UNL     1       3.275   6.121  18.585  0.00  0.00    +0.000 A 
ATOM     15  C   UNL     1       4.144   6.319  17.378  0.00  0.00    +0.000 C 
ATOM     16  H   UNL     1       4.197   1.889  20.228  0.00  0.00    +0.000 HD
ENDBRANCH   2   5
BRANCH   1  17
ATOM     17  C   UNL     1       0.943  10.565  18.992  0.00  0.00    +0.000 C 
BRANCH  17  22
ATOM     18  C   UNL     1      -4.650  11.143  17.437  0.00  0.00    +0.000 C 
ATOM     19  C   UNL     1      -3.222  10.980  17.867  0.00  0.00    +0.000 A 
ATOM     20  C   UNL     1      -2.679  11.772  18.884  0.00  0.00    +0.000 A 
ATOM     21  C   UNL     1      -1.339  11.628  19.261  0.00  0.00    +0.000 A 
ATOM     22  C   UNL     1      -0.515  10.690  18.625  0.00  0.00    +0.000 A 
ATOM     23  C   UNL     1      -1.064   9.892  17.612  0.00  0.00    +0.000 A 
ATOM     24  C   UNL     1      -2.405  10.035  17.237  0.00  0.00    +0.000 A 
ENDBRANCH  17  22
ENDBRANCH   1  17
TORSDOF 3
ENDMDL
MODEL 9
REMARK VINA RESULT:      -7.2      1.871      2.501
REMARK  Name = 
REMARK  5 active torsions:
REMARK  status: ('A' for Active; 'I' for Inactive)
REMARK    1  A    between atoms: C_1  and  C_2
REMARK    2  A    between atoms: C_5  and  C_6
REMARK    3  A    between atoms: C_6  and  N_7
REMARK    4  A    between atoms: C_8  and  C_10
REMARK    5  A    between atoms: C_19  and  C_20
REMARK                            x       y       z     vdW  Elec       q    Type
REMARK                         _______ _______ _______ _____ _____    ______ ____
ROOT
ATOM      1  N   UNL     1       1.254   9.244  19.324  0.00  0.00    +0.000 N 
ATOM      2  C   UNL     1       2.077   8.458  18.543  0.00  0.00    +0.000 C 
ATOM      3  O   UNL     1       2.537   8.874  17.484  0.00  0.00    +0.000 OA
ATOM      4  H   UNL     1       1.005   8.901  20.244  0.00  0.00    +0.000 HD
ENDROOT
BRANCH   2   5
ATOM      5  C   UNL     1       2.355   7.117  19.073  0.00  0.00    +0.000 A 
ATOM      6  S   UNL     1       1.517   6.557  20.466  0.00  0.00    +0.000 S 
ATOM      7  C   UNL     1       2.298   5.057  20.440  0.00  0.00    +0.000 A 
ATOM      8  N   UNL     1       2.013   4.109  21.373  0.00  0.00    +0.000 NA
ATOM      9  C   UNL     1       2.681   3.013  21.238  0.00  0.00    +0.000 A 
ATOM     10  N   UNL     1       3.613   2.782  20.260  0.00  0.00    +0.000 N 
ATOM     11  C   UNL     1       3.939   3.709  19.294  0.00  0.00    +0.000 A 
ATOM     12  O   UNL     1       4.783   3.459  18.440  0.00  0.00    +0.000 OA
ATOM     13  C   UNL     1       3.203   4.960  19.402  0.00  0.00    +0.000 A 
ATOM     14  C   UNL     1       3.243   6.155  18.588  0.00  0.00    +0.000 A 
ATOM     15  C   UNL     1       4.110   6.344  17.379  0.00  0.00    +0.000 C 
ATOM     16  H   UNL     1       4.107   1.904  20.212  0.00  0.00    +0.000 HD
ENDBRANCH   2   5
BRANCH   1  17
ATOM     17  C   UNL     1       0.923  10.608  18.993  0.00  0.00    +0.000 C 
BRANCH  17  22
ATOM     18  C   UNL     1      -4.739  11.042  17.655  0.00  0.00    +0.000 C 
ATOM     19  C   UNL     1      -3.275  10.944  17.968  0.00  0.00    +0.000 A 
ATOM     20  C   UNL     1      -2.458  10.016  17.316  0.00  0.00    +0.000 A 
ATOM     21  C   UNL     1      -1.098   9.916  17.633  0.00  0.00    +0.000 A 
ATOM     22  C   UNL     1      -0.530  10.744  18.611  0.00  0.00    +0.000 A 
ATOM     23  C   UNL     1      -1.351  11.679  19.257  0.00  0.00    +0.000 A 
ATOM     24  C   UNL     1      -2.710  11.779  18.938  0.00  0.00    +0.000 A 
ENDBRANCH  17  22
ENDBRANCH   1  17
TORSDOF 3
ENDMDL
