MODEL 1
REMARK VINA RESULT:      -8.2      0.000      0.000
REMARK  Name = 
REMARK  7 active torsions:
REMARK  status: ('A' for Active; 'I' for Inactive)
REMARK    1  A    between atoms: C_1  and  C_2
REMARK    2  A    between atoms: C_2  and  C_3
REMARK    3  A    between atoms: C_2  and  N_4
REMARK    4  A    between atoms: N_4  and  C_5
REMARK    5  A    between atoms: C_9  and  C_10
REMARK    6  A    between atoms: C_16  and  C_17
REMARK    7  A    between atoms: C_20  and  C_21
REMARK                            x       y       z     vdW  Elec       q    Type
REMARK                         _______ _______ _______ _____ _____    ______ ____
ROOT
ATOM      1  C   UNL     1      -2.317  10.859  17.971  0.00  0.00    +0.000 A 
ATOM      2  C   UNL     1      -2.413  10.741  16.575  0.00  0.00    +0.000 A 
ATOM      3  C   UNL     1      -3.563  11.133  15.865  0.00  0.00    +0.000 A 
ATOM      4  C   UNL     1      -4.641  11.613  16.615  0.00  0.00    +0.000 A 
ATOM      5  N   UNL     1      -5.868  12.110  16.264  0.00  0.00    +0.000 N 
ATOM      6  N   UNL     1      -6.635  12.470  17.308  0.00  0.00    +0.000 NA
ATOM      7  C   UNL     1      -5.883  12.173  18.374  0.00  0.00    +0.000 A 
ATOM      8  C   UNL     1      -4.612  11.691  17.998  0.00  0.00    +0.000 A 
ATOM      9  C   UNL     1      -3.425  11.370  18.665  0.00  0.00    +0.000 A 
ATOM     10  H   UNL     1      -6.237  12.253  15.331  0.00  0.00    +0.000 HD
ENDROOT
BRANCH   7  11
ATOM     11  C   UNL     1      -6.334  12.459  19.761  0.00  0.00    +0.000 A 
ATOM     12  C   UNL     1      -5.876  13.522  20.501  0.00  0.00    +0.000 A 
ATOM     13  C   UNL     1      -5.927  13.058  21.841  0.00  0.00    +0.000 A 
ATOM     14  C   UNL     1      -5.097  13.108  22.976  0.00  0.00    +0.000 A 
ATOM     15  C   UNL     1      -5.738  12.690  24.149  0.00  0.00    +0.000 A 
ATOM     16  N   UNL     1      -6.986  12.151  24.229  0.00  0.00    +0.000 NA
ATOM     17  C   UNL     1      -7.613  11.818  23.078  0.00  0.00    +0.000 A 
ATOM     18  C   UNL     1      -7.014  12.190  21.885  0.00  0.00    +0.000 A 
ATOM     19  N   UNL     1      -7.104  11.692  20.602  0.00  0.00    +0.000 N 
ATOM     20  H   UNL     1      -7.494  10.788  20.385  0.00  0.00    +0.000 HD
BRANCH  14  21
ATOM     21  C   UNL     1      -3.627  13.116  22.778  0.00  0.00    +0.000 A 
ATOM     22  C   UNL     1      -2.991  14.218  22.178  0.00  0.00    +0.000 A 
ATOM     23  C   UNL     1      -1.601  14.347  22.195  0.00  0.00    +0.000 A 
ATOM     24  C   UNL     1      -0.855  13.371  22.826  0.00  0.00    +0.000 A 
ATOM     25  N   UNL     1      -1.400  12.288  23.401  0.00  0.00    +0.000 NA
ATOM     26  C   UNL     1      -2.754  12.191  23.359  0.00  0.00    +0.000 A 
ENDBRANCH  14  21
ENDBRANCH   7  11
BRANCH   1  31
ATOM     27  C   UNL     1       1.139   9.585  18.928  0.00  0.00    +0.000 A 
ATOM     28  C   UNL     1       1.142  10.053  20.237  0.00  0.00    +0.000 A 
ATOM     29  N   UNL     1       0.098  10.663  20.854  0.00  0.00    +0.000 NA
ATOM     30  C   UNL     1      -1.002  10.847  20.091  0.00  0.00    +0.000 A 
ATOM     31  C   UNL     1      -1.116  10.489  18.745  0.00  0.00    +0.000 A 
ATOM     32  C   UNL     1      -0.012   9.845  18.168  0.00  0.00    +0.000 A 
BRANCH  27  33
ATOM     33  N   UNL     1       2.242   8.999  18.282  0.00  0.00    +0.000 N 
ATOM     34  H   UNL     1       2.414   9.444  17.382  0.00  0.00    +0.000 HD
BRANCH  33  36
ATOM     35  C   UNL     1       3.688   7.192  17.533  0.00  0.00    +0.000 C 
ATOM     36  C   UNL     1       2.365   7.532  18.220  0.00  0.00    +0.000 C 
ATOM     37  C   UNL     1       2.348   6.934  19.624  0.00  0.00    +0.000 C 
ENDBRANCH  33  36
ENDBRANCH  27  33
ENDBRANCH   1  31
TORSDOF 5
ENDMDL
MODEL 2
REMARK VINA RESULT:      -8.1      2.264      6.057
REMARK  Name = 
REMARK  7 active torsions:
REMARK  status: ('A' for Active; 'I' for Inactive)
REMARK    1  A    between atoms: C_1  and  C_2
REMARK    2  A    between atoms: C_2  and  C_3
REMARK    3  A    between atoms: C_2  and  N_4
REMARK    4  A    between atoms: N_4  and  C_5
REMARK    5  A    between atoms: C_9  and  C_10
REMARK    6  A    between atoms: C_16  and  C_17
REMARK    7  A    between atoms: C_20  and  C_21
REMARK                            x       y       z     vdW  Elec       q    Type
REMARK                         _______ _______ _______ _____ _____    ______ ____
ROOT
ATOM      1  C   UNL     1       1.263   8.494  20.902  0.00  0.00    +0.000 A 
ATOM      2  C   UNL     1       1.518   8.604  22.279  0.00  0.00    +0.000 A 
ATOM      3  C   UNL     1       0.820   9.506  23.103  0.00  0.00    +0.000 A 
ATOM      4  C   UNL     1      -0.124  10.332  22.485  0.00  0.00    +0.000 A 
ATOM      5  N   UNL     1      -0.996  11.271  22.970  0.00  0.00    +0.000 N 
ATOM      6  N   UNL     1      -1.752  11.859  22.026  0.00  0.00    +0.000 NA
ATOM      7  C   UNL     1      -1.337  11.295  20.886  0.00  0.00    +0.000 A 
ATOM      8  C   UNL     1      -0.367  10.298  21.121  0.00  0.00    +0.000 A 
ATOM      9  C   UNL     1       0.286   9.334  20.345  0.00  0.00    +0.000 A 
ATOM     10  H   UNL     1      -1.143  11.543  23.935  0.00  0.00    +0.000 HD
ENDROOT
BRANCH   7  11
ATOM     11  C   UNL     1      -1.951  11.625  19.574  0.00  0.00    +0.000 A 
ATOM     12  C   UNL     1      -3.014  12.483  19.431  0.00  0.00    +0.000 A 
ATOM     13  C   UNL     1      -3.710  11.986  18.300  0.00  0.00    +0.000 A 
ATOM     14  C   UNL     1      -5.051  11.750  17.942  0.00  0.00    +0.000 A 
ATOM     15  C   UNL     1      -5.218  11.467  16.580  0.00  0.00    +0.000 A 
ATOM     16  N   UNL     1      -4.219  11.290  15.672  0.00  0.00    +0.000 NA
ATOM     17  C   UNL     1      -2.949  11.199  16.129  0.00  0.00    +0.000 A 
ATOM     18  C   UNL     1      -2.727  11.449  17.473  0.00  0.00    +0.000 A 
ATOM     19  N   UNL     1      -1.729  11.060  18.342  0.00  0.00    +0.000 N 
ATOM     20  H   UNL     1      -1.085  10.309  18.144  0.00  0.00    +0.000 HD
BRANCH  14  21
ATOM     21  C   UNL     1      -6.009  11.363  19.005  0.00  0.00    +0.000 A 
ATOM     22  C   UNL     1      -6.678  10.127  18.951  0.00  0.00    +0.000 A 
ATOM     23  C   UNL     1      -7.397   9.646  20.048  0.00  0.00    +0.000 A 
ATOM     24  C   UNL     1      -7.432  10.408  21.200  0.00  0.00    +0.000 A 
ATOM     25  N   UNL     1      -6.829  11.602  21.308  0.00  0.00    +0.000 NA
ATOM     26  C   UNL     1      -6.146  12.042  20.220  0.00  0.00    +0.000 A 
ENDBRANCH  14  21
ENDBRANCH   7  11
BRANCH   1  31
ATOM     27  C   UNL     1       2.618   5.283  19.372  0.00  0.00    +0.000 A 
ATOM     28  C   UNL     1       3.070   5.835  18.179  0.00  0.00    +0.000 A 
ATOM     29  N   UNL     1       3.050   7.157  17.869  0.00  0.00    +0.000 NA
ATOM     30  C   UNL     1       2.506   7.965  18.805  0.00  0.00    +0.000 A 
ATOM     31  C   UNL     1       1.952   7.538  20.015  0.00  0.00    +0.000 A 
ATOM     32  C   UNL     1       2.019   6.163  20.286  0.00  0.00    +0.000 A 
BRANCH  27  33
ATOM     33  N   UNL     1       2.597   3.908  19.664  0.00  0.00    +0.000 N 
ATOM     34  H   UNL     1       3.101   3.378  18.954  0.00  0.00    +0.000 HD
BRANCH  33  36
ATOM     35  C   UNL     1       0.986   2.206  19.012  0.00  0.00    +0.000 C 
ATOM     36  C   UNL     1       1.336   3.259  20.064  0.00  0.00    +0.000 C 
ATOM     37  C   UNL     1       1.489   2.591  21.427  0.00  0.00    +0.000 C 
ENDBRANCH  33  36
ENDBRANCH  27  33
ENDBRANCH   1  31
TORSDOF 5
ENDMDL
MODEL 3
REMARK VINA RESULT:      -8.0      2.255      6.803
REMARK  Name = 
REMARK  7 active torsions:
REMARK  status: ('A' for Active; 'I' for Inactive)
REMARK    1  A    between atoms: C_1  and  C_2
REMARK    2  A    between atoms: C_2  and  C_3
REMARK    3  A    between atoms: C_2  and  N_4
REMARK    4  A    between atoms: N_4  and  C_5
REMARK    5  A    between atoms: C_9  and  C_10
REMARK    6  A    between atoms: C_16  and  C_17
REMARK    7  A    between atoms: C_20  and  C_21
REMARK                            x       y       z     vdW  Elec       q    Type
REMARK                         _______ _______ _______ _____ _____    ______ ____
ROOT
ATOM      1  C   UNL     1      -5.411  12.135  20.085  0.00  0.00    +0.000 A 
ATOM      2  C   UNL     1      -6.503  11.701  19.315  0.00  0.00    +0.000 A 
ATOM      3  C   UNL     1      -6.353  11.221  18.001  0.00  0.00    +0.000 A 
ATOM      4  C   UNL     1      -5.062  11.230  17.464  0.00  0.00    +0.000 A 
ATOM      5  N   UNL     1      -4.552  10.807  16.265  0.00  0.00    +0.000 N 
ATOM      6  N   UNL     1      -3.228  10.999  16.133  0.00  0.00    +0.000 NA
ATOM      7  C   UNL     1      -2.874  11.589  17.280  0.00  0.00    +0.000 A 
ATOM      8  C   UNL     1      -3.965  11.704  18.166  0.00  0.00    +0.000 A 
ATOM      9  C   UNL     1      -4.137  12.098  19.498  0.00  0.00    +0.000 A 
ATOM     10  H   UNL     1      -5.046  10.358  15.503  0.00  0.00    +0.000 HD
ENDROOT
BRANCH   7  11
ATOM     11  C   UNL     1      -1.462  11.941  17.583  0.00  0.00    +0.000 A 
ATOM     12  C   UNL     1      -0.559  11.054  18.116  0.00  0.00    +0.000 A 
ATOM     13  C   UNL     1       0.312  11.868  18.887  0.00  0.00    +0.000 A 
ATOM     14  C   UNL     1       0.914  11.810  20.157  0.00  0.00    +0.000 A 
ATOM     15  C   UNL     1       1.904  12.784  20.344  0.00  0.00    +0.000 A 
ATOM     16  N   UNL     1       2.204  13.794  19.483  0.00  0.00    +0.000 NA
ATOM     17  C   UNL     1       1.379  14.005  18.432  0.00  0.00    +0.000 A 
ATOM     18  C   UNL     1       0.368  13.083  18.210  0.00  0.00    +0.000 A 
ATOM     19  N   UNL     1      -0.848  13.170  17.566  0.00  0.00    +0.000 N 
ATOM     20  H   UNL     1      -1.288  14.047  17.330  0.00  0.00    +0.000 HD
BRANCH  14  21
ATOM     21  C   UNL     1       0.188  11.127  21.254  0.00  0.00    +0.000 A 
ATOM     22  C   UNL     1       0.508   9.805  21.612  0.00  0.00    +0.000 A 
ATOM     23  C   UNL     1       0.006   9.231  22.782  0.00  0.00    +0.000 A 
ATOM     24  C   UNL     1      -0.812   9.993  23.593  0.00  0.00    +0.000 A 
ATOM     25  N   UNL     1      -1.169  11.253  23.298  0.00  0.00    +0.000 NA
ATOM     26  C   UNL     1      -0.668  11.777  22.150  0.00  0.00    +0.000 A 
ENDBRANCH  14  21
ENDBRANCH   7  11
BRANCH   1  31
ATOM     27  C   UNL     1      -4.571  13.390  23.578  0.00  0.00    +0.000 A 
ATOM     28  C   UNL     1      -5.867  13.710  23.966  0.00  0.00    +0.000 A 
ATOM     29  N   UNL     1      -6.985  13.476  23.232  0.00  0.00    +0.000 NA
ATOM     30  C   UNL     1      -6.779  12.921  22.018  0.00  0.00    +0.000 A 
ATOM     31  C   UNL     1      -5.527  12.613  21.476  0.00  0.00    +0.000 A 
ATOM     32  C   UNL     1      -4.412  12.861  22.288  0.00  0.00    +0.000 A 
BRANCH  27  33
ATOM     33  N   UNL     1      -3.415  13.681  24.323  0.00  0.00    +0.000 N 
ATOM     34  H   UNL     1      -3.414  13.173  25.207  0.00  0.00    +0.000 HD
BRANCH  33  36
ATOM     35  C   UNL     1      -2.169  15.185  25.773  0.00  0.00    +0.000 C 
ATOM     36  C   UNL     1      -2.967  15.076  24.473  0.00  0.00    +0.000 C 
ATOM     37  C   UNL     1      -2.085  15.484  23.295  0.00  0.00    +0.000 C 
ENDBRANCH  33  36
ENDBRANCH  27  33
ENDBRANCH   1  31
TORSDOF 5
ENDMDL
MODEL 4
REMARK VINA RESULT:      -8.0      2.516      7.156
REMARK  Name = 
REMARK  7 active torsions:
REMARK  status: ('A' for Active; 'I' for Inactive)
REMARK    1  A    between atoms: C_1  and  C_2
REMARK    2  A    between atoms: C_2  and  C_3
REMARK    3  A    between atoms: C_2  and  N_4
REMARK    4  A    between atoms: N_4  and  C_5
REMARK    5  A    between atoms: C_9  and  C_10
REMARK    6  A    between atoms: C_16  and  C_17
REMARK    7  A    between atoms: C_20  and  C_21
REMARK                            x       y       z     vdW  Elec       q    Type
REMARK                         _______ _______ _______ _____ _____    ______ ____
ROOT
ATOM      1  C   UNL     1      -6.097  12.396  20.131  0.00  0.00    +0.000 A 
ATOM      2  C   UNL     1      -7.112  12.059  19.220  0.00  0.00    +0.000 A 
ATOM      3  C   UNL     1      -6.832  11.579  17.927  0.00  0.00    +0.000 A 
ATOM      4  C   UNL     1      -5.486  11.488  17.560  0.00  0.00    +0.000 A 
ATOM      5  N   UNL     1      -4.861  11.035  16.429  0.00  0.00    +0.000 N 
ATOM      6  N   UNL     1      -3.519  11.120  16.470  0.00  0.00    +0.000 NA
ATOM      7  C   UNL     1      -3.270  11.669  17.665  0.00  0.00    +0.000 A 
ATOM      8  C   UNL     1      -4.454  11.865  18.406  0.00  0.00    +0.000 A 
ATOM      9  C   UNL     1      -4.765  12.261  19.711  0.00  0.00    +0.000 A 
ATOM     10  H   UNL     1      -5.286  10.633  15.601  0.00  0.00    +0.000 HD
ENDROOT
BRANCH   7  11
ATOM     11  C   UNL     1      -1.886  11.904  18.152  0.00  0.00    +0.000 A 
ATOM     12  C   UNL     1      -1.344  11.251  19.232  0.00  0.00    +0.000 A 
ATOM     13  C   UNL     1      -0.433  12.190  19.782  0.00  0.00    +0.000 A 
ATOM     14  C   UNL     1      -0.086  12.651  21.065  0.00  0.00    +0.000 A 
ATOM     15  C   UNL     1       1.076  13.434  21.075  0.00  0.00    +0.000 A 
ATOM     16  N   UNL     1       1.766  13.854  19.979  0.00  0.00    +0.000 NA
ATOM     17  C   UNL     1       1.209  13.663  18.762  0.00  0.00    +0.000 A 
ATOM     18  C   UNL     1       0.046  12.913  18.694  0.00  0.00    +0.000 A 
ATOM     19  N   UNL     1      -0.982  12.867  17.776  0.00  0.00    +0.000 N 
ATOM     20  H   UNL     1      -1.135  13.582  17.080  0.00  0.00    +0.000 HD
BRANCH  14  21
ATOM     21  C   UNL     1      -1.135  12.691  22.111  0.00  0.00    +0.000 A 
ATOM     22  C   UNL     1      -1.886  13.861  22.329  0.00  0.00    +0.000 A 
ATOM     23  C   UNL     1      -3.025  13.849  23.137  0.00  0.00    +0.000 A 
ATOM     24  C   UNL     1      -3.411  12.656  23.716  0.00  0.00    +0.000 A 
ATOM     25  N   UNL     1      -2.728  11.510  23.562  0.00  0.00    +0.000 NA
ATOM     26  C   UNL     1      -1.622  11.560  22.776  0.00  0.00    +0.000 A 
ENDBRANCH  14  21
ENDBRANCH   7  11
BRANCH   1  31
ATOM     27  C   UNL     1      -6.595  14.635  23.168  0.00  0.00    +0.000 A 
ATOM     28  C   UNL     1      -7.068  13.655  24.033  0.00  0.00    +0.000 A 
ATOM     29  N   UNL     1      -7.157  12.331  23.744  0.00  0.00    +0.000 NA
ATOM     30  C   UNL     1      -6.782  11.982  22.494  0.00  0.00    +0.000 A 
ATOM     31  C   UNL     1      -6.354  12.871  21.504  0.00  0.00    +0.000 A 
ATOM     32  C   UNL     1      -6.265  14.223  21.868  0.00  0.00    +0.000 A 
BRANCH  27  33
ATOM     33  N   UNL     1      -6.553  16.010  23.459  0.00  0.00    +0.000 N 
ATOM     34  H   UNL     1      -7.216  16.524  22.880  0.00  0.00    +0.000 HD
BRANCH  33  36
ATOM     35  C   UNL     1      -5.181  17.771  22.493  0.00  0.00    +0.000 C 
ATOM     36  C   UNL     1      -5.256  16.698  23.580  0.00  0.00    +0.000 C 
ATOM     37  C   UNL     1      -5.124  17.351  24.953  0.00  0.00    +0.000 C 
ENDBRANCH  33  36
ENDBRANCH  27  33
ENDBRANCH   1  31
TORSDOF 5
ENDMDL
MODEL 5
REMARK VINA RESULT:      -8.0      1.023      1.405
REMARK  Name = 
REMARK  7 active torsions:
REMARK  status: ('A' for Active; 'I' for Inactive)
REMARK    1  A    between atoms: C_1  and  C_2
REMARK    2  A    between atoms: C_2  and  C_3
REMARK    3  A    between atoms: C_2  and  N_4
REMARK    4  A    between atoms: N_4  and  C_5
REMARK    5  A    between atoms: C_9  and  C_10
REMARK    6  A    between atoms: C_16  and  C_17
REMARK    7  A    between atoms: C_20  and  C_21
REMARK                            x       y       z     vdW  Elec       q    Type
REMARK                         _______ _______ _______ _____ _____    ______ ____
ROOT
ATOM      1  C   UNL     1      -2.334  11.359  17.999  0.00  0.00    +0.000 A 
ATOM      2  C   UNL     1      -2.577  11.139  16.633  0.00  0.00    +0.000 A 
ATOM      3  C   UNL     1      -3.850  11.313  16.059  0.00  0.00    +0.000 A 
ATOM      4  C   UNL     1      -4.891  11.677  16.918  0.00  0.00    +0.000 A 
ATOM      5  N   UNL     1      -6.213  11.966  16.704  0.00  0.00    +0.000 N 
ATOM      6  N   UNL     1      -6.895  12.277  17.821  0.00  0.00    +0.000 NA
ATOM      7  C   UNL     1      -5.985  12.161  18.794  0.00  0.00    +0.000 A 
ATOM      8  C   UNL     1      -4.709  11.847  18.281  0.00  0.00    +0.000 A 
ATOM      9  C   UNL     1      -3.416  11.745  18.805  0.00  0.00    +0.000 A 
ATOM     10  H   UNL     1      -6.709  11.994  15.821  0.00  0.00    +0.000 HD
ENDROOT
BRANCH   7  11
ATOM     11  C   UNL     1      -6.305  12.466  20.213  0.00  0.00    +0.000 A 
ATOM     12  C   UNL     1      -5.733  13.502  20.912  0.00  0.00    +0.000 A 
ATOM     13  C   UNL     1      -5.698  13.037  22.252  0.00  0.00    +0.000 A 
ATOM     14  C   UNL     1      -4.776  13.040  23.315  0.00  0.00    +0.000 A 
ATOM     15  C   UNL     1      -5.341  12.653  24.537  0.00  0.00    +0.000 A 
ATOM     16  N   UNL     1      -6.604  12.180  24.720  0.00  0.00    +0.000 NA
ATOM     17  C   UNL     1      -7.340  11.883  23.625  0.00  0.00    +0.000 A 
ATOM     18  C   UNL     1      -6.822  12.226  22.386  0.00  0.00    +0.000 A 
ATOM     19  N   UNL     1      -7.042  11.738  21.115  0.00  0.00    +0.000 N 
ATOM     20  H   UNL     1      -7.496  10.856  20.932  0.00  0.00    +0.000 HD
BRANCH  14  21
ATOM     21  C   UNL     1      -3.330  12.973  22.997  0.00  0.00    +0.000 A 
ATOM     22  C   UNL     1      -2.588  11.812  23.279  0.00  0.00    +0.000 A 
ATOM     23  C   UNL     1      -1.295  11.641  22.779  0.00  0.00    +0.000 A 
ATOM     24  C   UNL     1      -0.756  12.637  21.989  0.00  0.00    +0.000 A 
ATOM     25  N   UNL     1      -1.405  13.776  21.698  0.00  0.00    +0.000 NA
ATOM     26  C   UNL     1      -2.657  13.911  22.207  0.00  0.00    +0.000 A 
ENDBRANCH  14  21
ENDBRANCH   7  11
BRANCH   1  31
ATOM     27  C   UNL     1       0.727   9.916  19.741  0.00  0.00    +0.000 A 
ATOM     28  C   UNL     1       1.561  11.015  19.567  0.00  0.00    +0.000 A 
ATOM     29  N   UNL     1       1.192  12.200  19.018  0.00  0.00    +0.000 NA
ATOM     30  C   UNL     1      -0.085  12.267  18.580  0.00  0.00    +0.000 A 
ATOM     31  C   UNL     1      -1.007  11.218  18.629  0.00  0.00    +0.000 A 
ATOM     32  C   UNL     1      -0.573  10.025  19.225  0.00  0.00    +0.000 A 
BRANCH  27  33
ATOM     33  N   UNL     1       1.131   8.677  20.266  0.00  0.00    +0.000 N 
ATOM     34  H   UNL     1       1.254   8.733  21.277  0.00  0.00    +0.000 HD
BRANCH  33  36
ATOM     35  C   UNL     1       2.111   6.458  20.075  0.00  0.00    +0.000 C 
ATOM     36  C   UNL     1       2.204   7.912  19.608  0.00  0.00    +0.000 C 
ATOM     37  C   UNL     1       2.049   7.973  18.091  0.00  0.00    +0.000 C 
ENDBRANCH  33  36
ENDBRANCH  27  33
ENDBRANCH   1  31
TORSDOF 5
ENDMDL
MODEL 6
REMARK VINA RESULT:      -7.9      4.270      6.770
REMARK  Name = 
REMARK  7 active torsions:
REMARK  status: ('A' for Active; 'I' for Inactive)
REMARK    1  A    between atoms: C_1  and  C_2
REMARK    2  A    between atoms: C_2  and  C_3
REMARK    3  A    between atoms: C_2  and  N_4
REMARK    4  A    between atoms: N_4  and  C_5
REMARK    5  A    between atoms: C_9  and  C_10
REMARK    6  A    between atoms: C_16  and  C_17
REMARK    7  A    between atoms: C_20  and  C_21
REMARK                            x       y       z     vdW  Elec       q    Type
REMARK                         _______ _______ _______ _____ _____    ______ ____
ROOT
ATOM      1  C   UNL     1       0.550   9.544  21.076  0.00  0.00    +0.000 A 
ATOM      2  C   UNL     1       0.067   9.177  22.343  0.00  0.00    +0.000 A 
ATOM      3  C   UNL     1      -0.683  10.056  23.145  0.00  0.00    +0.000 A 
ATOM      4  C   UNL     1      -0.899  11.345  22.646  0.00  0.00    +0.000 A 
ATOM      5  N   UNL     1      -1.602  12.419  23.123  0.00  0.00    +0.000 N 
ATOM      6  N   UNL     1      -1.560  13.501  22.326  0.00  0.00    +0.000 NA
ATOM      7  C   UNL     1      -0.782  13.118  21.307  0.00  0.00    +0.000 A 
ATOM      8  C   UNL     1      -0.391  11.768  21.428  0.00  0.00    +0.000 A 
ATOM      9  C   UNL     1       0.281  10.844  20.621  0.00  0.00    +0.000 A 
ATOM     10  H   UNL     1      -2.152  12.476  23.972  0.00  0.00    +0.000 HD
ENDROOT
BRANCH   7  11
ATOM     11  C   UNL     1      -0.502  14.009  20.150  0.00  0.00    +0.000 A 
ATOM     12  C   UNL     1       0.552  13.821  19.289  0.00  0.00    +0.000 A 
ATOM     13  C   UNL     1       0.894  15.133  18.870  0.00  0.00    +0.000 A 
ATOM     14  C   UNL     1       2.075  15.872  18.675  0.00  0.00    +0.000 A 
ATOM     15  C   UNL     1       1.864  17.083  18.003  0.00  0.00    +0.000 A 
ATOM     16  N   UNL     1       0.655  17.611  17.668  0.00  0.00    +0.000 NA
ATOM     17  C   UNL     1      -0.458  17.027  18.167  0.00  0.00    +0.000 A 
ATOM     18  C   UNL     1      -0.307  15.836  18.859  0.00  0.00    +0.000 A 
ATOM     19  N   UNL     1      -1.076  15.212  19.819  0.00  0.00    +0.000 N 
ATOM     20  H   UNL     1      -1.805  15.681  20.335  0.00  0.00    +0.000 HD
BRANCH  14  21
ATOM     21  C   UNL     1       3.241  15.584  19.544  0.00  0.00    +0.000 A 
ATOM     22  C   UNL     1       4.511  15.354  18.985  0.00  0.00    +0.000 A 
ATOM     23  C   UNL     1       5.656  15.315  19.784  0.00  0.00    +0.000 A 
ATOM     24  C   UNL     1       5.520  15.517  21.143  0.00  0.00    +0.000 A 
ATOM     25  N   UNL     1       4.335  15.724  21.739  0.00  0.00    +0.000 NA
ATOM     26  C   UNL     1       3.242  15.748  20.933  0.00  0.00    +0.000 A 
ENDBRANCH  14  21
ENDBRANCH   7  11
BRANCH   1  31
ATOM     27  C   UNL     1       2.338   6.489  19.676  0.00  0.00    +0.000 A 
ATOM     28  C   UNL     1       2.532   6.975  18.388  0.00  0.00    +0.000 A 
ATOM     29  N   UNL     1       2.213   8.225  17.966  0.00  0.00    +0.000 NA
ATOM     30  C   UNL     1       1.628   9.020  18.888  0.00  0.00    +0.000 A 
ATOM     31  C   UNL     1       1.312   8.638  20.195  0.00  0.00    +0.000 A 
ATOM     32  C   UNL     1       1.682   7.341  20.579  0.00  0.00    +0.000 A 
BRANCH  27  33
ATOM     33  N   UNL     1       2.625   5.177  20.092  0.00  0.00    +0.000 N 
ATOM     34  H   UNL     1       3.134   4.670  19.369  0.00  0.00    +0.000 HD
BRANCH  33  36
ATOM     35  C   UNL     1       0.878   3.548  19.632  0.00  0.00    +0.000 C 
ATOM     36  C   UNL     1       1.577   4.359  20.725  0.00  0.00    +0.000 C 
ATOM     37  C   UNL     1       2.187   3.411  21.754  0.00  0.00    +0.000 C 
ENDBRANCH  33  36
ENDBRANCH  27  33
ENDBRANCH   1  31
TORSDOF 5
ENDMDL
MODEL 7
REMARK VINA RESULT:      -7.9      1.411      1.935
REMARK  Name = 
REMARK  7 active torsions:
REMARK  status: ('A' for Active; 'I' for Inactive)
REMARK    1  A    between atoms: C_1  and  C_2
REMARK    2  A    between atoms: C_2  and  C_3
REMARK    3  A    between atoms: C_2  and  N_4
REMARK    4  A    between atoms: N_4  and  C_5
REMARK    5  A    between atoms: C_9  and  C_10
REMARK    6  A    between atoms: C_16  and  C_17
REMARK    7  A    between atoms: C_20  and  C_21
REMARK                            x       y       z     vdW  Elec       q    Type
REMARK                         _______ _______ _______ _____ _____    ______ ____
ROOT
ATOM      1  C   UNL     1      -1.791  10.966  17.725  0.00  0.00    +0.000 A 
ATOM      2  C   UNL     1      -2.343  10.487  16.526  0.00  0.00    +0.000 A 
ATOM      3  C   UNL     1      -3.722  10.553  16.254  0.00  0.00    +0.000 A 
ATOM      4  C   UNL     1      -4.543  11.084  17.253  0.00  0.00    +0.000 A 
ATOM      5  N   UNL     1      -5.888  11.334  17.314  0.00  0.00    +0.000 N 
ATOM      6  N   UNL     1      -6.297  11.860  18.482  0.00  0.00    +0.000 NA
ATOM      7  C   UNL     1      -5.177  11.931  19.211  0.00  0.00    +0.000 A 
ATOM      8  C   UNL     1      -4.049  11.514  18.475  0.00  0.00    +0.000 A 
ATOM      9  C   UNL     1      -2.665  11.509  18.680  0.00  0.00    +0.000 A 
ATOM     10  H   UNL     1      -6.580  11.193  16.588  0.00  0.00    +0.000 HD
ENDROOT
BRANCH   7  11
ATOM     11  C   UNL     1      -5.163  12.507  20.580  0.00  0.00    +0.000 A 
ATOM     12  C   UNL     1      -4.170  13.338  21.041  0.00  0.00    +0.000 A 
ATOM     13  C   UNL     1      -4.109  13.064  22.432  0.00  0.00    +0.000 A 
ATOM     14  C   UNL     1      -3.102  12.860  23.394  0.00  0.00    +0.000 A 
ATOM     15  C   UNL     1      -3.585  12.865  24.709  0.00  0.00    +0.000 A 
ATOM     16  N   UNL     1      -4.894  12.919  25.079  0.00  0.00    +0.000 NA
ATOM     17  C   UNL     1      -5.836  12.780  24.119  0.00  0.00    +0.000 A 
ATOM     18  C   UNL     1      -5.413  12.750  22.799  0.00  0.00    +0.000 A 
ATOM     19  N   UNL     1      -5.972  12.222  21.654  0.00  0.00    +0.000 N 
ATOM     20  H   UNL     1      -6.727  11.554  21.663  0.00  0.00    +0.000 HD
BRANCH  14  21
ATOM     21  C   UNL     1      -1.833  12.224  22.966  0.00  0.00    +0.000 A 
ATOM     22  C   UNL     1      -1.663  10.831  23.059  0.00  0.00    +0.000 A 
ATOM     23  C   UNL     1      -0.580  10.193  22.450  0.00  0.00    +0.000 A 
ATOM     24  C   UNL     1       0.325  10.960  21.741  0.00  0.00    +0.000 A 
ATOM     25  N   UNL     1       0.228  12.294  21.630  0.00  0.00    +0.000 NA
ATOM     26  C   UNL     1      -0.833  12.882  22.241  0.00  0.00    +0.000 A 
ENDBRANCH  14  21
ENDBRANCH   7  11
BRANCH   1  31
ATOM     27  C   UNL     1       1.815   9.824  18.152  0.00  0.00    +0.000 A 
ATOM     28  C   UNL     1       2.364  11.075  18.413  0.00  0.00    +0.000 A 
ATOM     29  N   UNL     1       1.661  12.228  18.545  0.00  0.00    +0.000 NA
ATOM     30  C   UNL     1       0.326  12.120  18.365  0.00  0.00    +0.000 A 
ATOM     31  C   UNL     1      -0.348  10.942  18.031  0.00  0.00    +0.000 A 
ATOM     32  C   UNL     1       0.430   9.780  17.927  0.00  0.00    +0.000 A 
BRANCH  27  33
ATOM     33  N   UNL     1       2.555   8.644  17.968  0.00  0.00    +0.000 N 
ATOM     34  H   UNL     1       2.774   8.502  16.982  0.00  0.00    +0.000 HD
BRANCH  33  36
ATOM     35  C   UNL     1       3.221   6.346  18.405  0.00  0.00    +0.000 C 
ATOM     36  C   UNL     1       2.139   7.400  18.638  0.00  0.00    +0.000 C 
ATOM     37  C   UNL     1       1.966   7.633  20.136  0.00  0.00    +0.000 C 
ENDBRANCH  33  36
ENDBRANCH  27  33
ENDBRANCH   1  31
TORSDOF 5
ENDMDL
MODEL 8
REMARK VINA RESULT:      -7.9      1.748      2.681
REMARK  Name = 
REMARK  7 active torsions:
REMARK  status: ('A' for Active; 'I' for Inactive)
REMARK    1  A    between atoms: C_1  and  C_2
REMARK    2  A    between atoms: C_2  and  C_3
REMARK    3  A    between atoms: C_2  and  N_4
REMARK    4  A    between atoms: N_4  and  C_5
REMARK    5  A    between atoms: C_9  and  C_10
REMARK    6  A    between atoms: C_16  and  C_17
REMARK    7  A    between atoms: C_20  and  C_21
REMARK                            x       y       z     vdW  Elec       q    Type
REMARK                         _______ _______ _______ _____ _____    ______ ____
ROOT
ATOM      1  C   UNL     1      -2.131  11.160  18.341  0.00  0.00    +0.000 A 
ATOM      2  C   UNL     1      -2.118  10.943  16.953  0.00  0.00    +0.000 A 
ATOM      3  C   UNL     1      -3.258  11.134  16.152  0.00  0.00    +0.000 A 
ATOM      4  C   UNL     1      -4.436  11.514  16.802  0.00  0.00    +0.000 A 
ATOM      5  N   UNL     1      -5.690  11.823  16.346  0.00  0.00    +0.000 N 
ATOM      6  N   UNL     1      -6.564  12.145  17.316  0.00  0.00    +0.000 NA
ATOM      7  C   UNL     1      -5.853  12.018  18.442  0.00  0.00    +0.000 A 
ATOM      8  C   UNL     1      -4.509  11.684  18.176  0.00  0.00    +0.000 A 
ATOM      9  C   UNL     1      -3.338  11.564  18.932  0.00  0.00    +0.000 A 
ATOM     10  H   UNL     1      -6.012  11.857  15.386  0.00  0.00    +0.000 HD
ENDROOT
BRANCH   7  11
ATOM     11  C   UNL     1      -6.428  12.329  19.777  0.00  0.00    +0.000 A 
ATOM     12  C   UNL     1      -6.101  13.452  20.498  0.00  0.00    +0.000 A 
ATOM     13  C   UNL     1      -6.224  13.041  21.851  0.00  0.00    +0.000 A 
ATOM     14  C   UNL     1      -5.489  13.197  23.041  0.00  0.00    +0.000 A 
ATOM     15  C   UNL     1      -6.190  12.784  24.182  0.00  0.00    +0.000 A 
ATOM     16  N   UNL     1      -7.402  12.164  24.194  0.00  0.00    +0.000 NA
ATOM     17  C   UNL     1      -7.915  11.740  23.016  0.00  0.00    +0.000 A 
ATOM     18  C   UNL     1      -7.251  12.102  21.855  0.00  0.00    +0.000 A 
ATOM     19  N   UNL     1      -7.208  11.547  20.593  0.00  0.00    +0.000 N 
ATOM     20  H   UNL     1      -7.520  10.609  20.391  0.00  0.00    +0.000 HD
BRANCH  14  21
ATOM     21  C   UNL     1      -4.013  13.299  22.953  0.00  0.00    +0.000 A 
ATOM     22  C   UNL     1      -3.194  12.232  23.363  0.00  0.00    +0.000 A 
ATOM     23  C   UNL     1      -1.828  12.214  23.073  0.00  0.00    +0.000 A 
ATOM     24  C   UNL     1      -1.292  13.269  22.361  0.00  0.00    +0.000 A 
ATOM     25  N   UNL     1      -2.015  14.325  21.956  0.00  0.00    +0.000 NA
ATOM     26  C   UNL     1      -3.338  14.312  22.262  0.00  0.00    +0.000 A 
ENDBRANCH  14  21
ENDBRANCH   7  11
BRANCH   1  31
ATOM     27  C   UNL     1       1.162  11.783  20.145  0.00  0.00    +0.000 A 
ATOM     28  C   UNL     1       1.090  10.703  21.018  0.00  0.00    +0.000 A 
ATOM     29  N   UNL     1       0.120   9.754  21.012  0.00  0.00    +0.000 NA
ATOM     30  C   UNL     1      -0.858   9.927  20.097  0.00  0.00    +0.000 A 
ATOM     31  C   UNL     1      -0.947  11.001  19.207  0.00  0.00    +0.000 A 
ATOM     32  C   UNL     1       0.095  11.939  19.248  0.00  0.00    +0.000 A 
BRANCH  27  33
ATOM     33  N   UNL     1       2.144  12.788  20.190  0.00  0.00    +0.000 N 
ATOM     34  H   UNL     1       2.641  12.771  21.080  0.00  0.00    +0.000 HD
BRANCH  33  36
ATOM     35  C   UNL     1       1.727  15.047  20.990  0.00  0.00    +0.000 C 
ATOM     36  C   UNL     1       1.818  14.156  19.751  0.00  0.00    +0.000 C 
ATOM     37  C   UNL     1       2.901  14.688  18.816  0.00  0.00    +0.000 C 
ENDBRANCH  33  36
ENDBRANCH  27  33
ENDBRANCH   1  31
TORSDOF 5
ENDMDL
MODEL 9
REMARK VINA RESULT:      -7.8      1.288      2.346
REMARK  Name = 
REMARK  7 active torsions:
REMARK  status: ('A' for Active; 'I' for Inactive)
REMARK    1  A    between atoms: C_1  and  C_2
REMARK    2  A    between atoms: C_2  and  C_3
REMARK    3  A    between atoms: C_2  and  N_4
REMARK    4  A    between atoms: N_4  and  C_5
REMARK    5  A    between atoms: C_9  and  C_10
REMARK    6  A    between atoms: C_16  and  C_17
REMARK    7  A    between atoms: C_20  and  C_21
REMARK                            x       y       z     vdW  Elec       q    Type
REMARK                         _______ _______ _______ _____ _____    ______ ____
ROOT
ATOM      1  C   UNL     1      -2.151  10.639  17.731  0.00  0.00    +0.000 A 
ATOM      2  C   UNL     1      -2.541  10.371  16.409  0.00  0.00    +0.000 A 
ATOM      3  C   UNL     1      -3.790  10.771  15.899  0.00  0.00    +0.000 A 
ATOM      4  C   UNL     1      -4.660  11.419  16.781  0.00  0.00    +0.000 A 
ATOM      5  N   UNL     1      -5.903  11.971  16.621  0.00  0.00    +0.000 N 
ATOM      6  N   UNL     1      -6.414  12.509  17.743  0.00  0.00    +0.000 NA
ATOM      7  C   UNL     1      -5.475  12.275  18.666  0.00  0.00    +0.000 A 
ATOM      8  C   UNL     1      -4.339  11.652  18.109  0.00  0.00    +0.000 A 
ATOM      9  C   UNL     1      -3.059  11.313  18.561  0.00  0.00    +0.000 A 
ATOM     10  H   UNL     1      -6.450  12.037  15.771  0.00  0.00    +0.000 HD
ENDROOT
BRANCH   7  11
ATOM     11  C   UNL     1      -5.610  12.753  20.067  0.00  0.00    +0.000 A 
ATOM     12  C   UNL     1      -4.999  13.888  20.542  0.00  0.00    +0.000 A 
ATOM     13  C   UNL     1      -4.756  13.603  21.910  0.00  0.00    +0.000 A 
ATOM     14  C   UNL     1      -3.698  13.773  22.822  0.00  0.00    +0.000 A 
ATOM     15  C   UNL     1      -4.068  13.532  24.151  0.00  0.00    +0.000 A 
ATOM     16  N   UNL     1      -5.270  13.048  24.570  0.00  0.00    +0.000 NA
ATOM     17  C   UNL     1      -6.135  12.589  23.637  0.00  0.00    +0.000 A 
ATOM     18  C   UNL     1      -5.810  12.783  22.304  0.00  0.00    +0.000 A 
ATOM     19  N   UNL     1      -6.180  12.127  21.149  0.00  0.00    +0.000 N 
ATOM     20  H   UNL     1      -6.610  11.214  21.145  0.00  0.00    +0.000 HD
BRANCH  14  21
ATOM     21  C   UNL     1      -2.308  13.709  22.311  0.00  0.00    +0.000 A 
ATOM     22  C   UNL     1      -2.046  13.799  20.932  0.00  0.00    +0.000 A 
ATOM     23  C   UNL     1      -0.745  13.976  20.453  0.00  0.00    +0.000 A 
ATOM     24  C   UNL     1       0.287  14.070  21.366  0.00  0.00    +0.000 A 
ATOM     25  N   UNL     1       0.105  13.974  22.692  0.00  0.00    +0.000 NA
ATOM     26  C   UNL     1      -1.171  13.795  23.122  0.00  0.00    +0.000 A 
ENDBRANCH  14  21
ENDBRANCH   7  11
BRANCH   1  31
ATOM     27  C   UNL     1       0.741  10.045  20.134  0.00  0.00    +0.000 A 
ATOM     28  C   UNL     1       1.546   9.320  19.263  0.00  0.00    +0.000 A 
ATOM     29  N   UNL     1       1.272   9.084  17.954  0.00  0.00    +0.000 NA
ATOM     30  C   UNL     1       0.096   9.577  17.508  0.00  0.00    +0.000 A 
ATOM     31  C   UNL     1      -0.838  10.263  18.290  0.00  0.00    +0.000 A 
ATOM     32  C   UNL     1      -0.490  10.492  19.629  0.00  0.00    +0.000 A 
BRANCH  27  33
ATOM     33  N   UNL     1       1.009  10.242  21.500  0.00  0.00    +0.000 N 
ATOM     34  H   UNL     1       2.012  10.313  21.667  0.00  0.00    +0.000 HD
BRANCH  33  36
ATOM     35  C   UNL     1      -0.759  10.272  23.170  0.00  0.00    +0.000 C 
ATOM     36  C   UNL     1       0.325   9.418  22.511  0.00  0.00    +0.000 C 
ATOM     37  C   UNL     1      -0.314   8.194  21.860  0.00  0.00    +0.000 C 
ENDBRANCH  33  36
ENDBRANCH  27  33
ENDBRANCH   1  31
TORSDOF 5
ENDMDL
