MODEL 1
REMARK VINA RESULT:      -6.8      0.000      0.000
REMARK  Name = 
REMARK  9 active torsions:
REMARK  status: ('A' for Active; 'I' for Inactive)
REMARK    1  A    between atoms: C_1  and  C_2
REMARK    2  A    between atoms: C_2  and  O_4
REMARK    3  A    between atoms: O_4  and  C_5
REMARK    4  A    between atoms: C_10  and  C_11
REMARK    5  A    between atoms: C_11  and  C_12
REMARK    6  A    between atoms: C_11  and  C_13
REMARK    7  A    between atoms: C_17  and  C_18
REMARK    8  A    between atoms: C_17  and  C_19
REMARK    9  A    between atoms: C_23  and  C_24
REMARK                            x       y       z     vdW  Elec       q    Type
REMARK                         _______ _______ _______ _____ _____    ______ ____
ROOT
ATOM      1  C   UNL     1       0.315   8.580  20.752  0.00  0.00    +0.000 A 
ATOM      2  C   UNL     1       0.708   7.236  20.774  0.00  0.00    +0.000 A 
ATOM      3  C   UNL     1       1.635   6.712  19.865  0.00  0.00    +0.000 A 
ATOM      4  C   UNL     1       2.224   7.596  18.949  0.00  0.00    +0.000 A 
ATOM      5  C   UNL     1       1.858   8.963  18.963  0.00  0.00    +0.000 A 
ATOM      6  C   UNL     1       0.899   9.485  19.859  0.00  0.00    +0.000 A 
ATOM      7  C   UNL     1       3.201   7.126  17.897  0.00  0.00    +0.000 C 
ATOM      8  C   UNL     1       3.611   5.651  17.981  0.00  0.00    +0.000 C 
ATOM      9  C   UNL     1       2.448   4.770  18.483  0.00  0.00    +0.000 C 
ATOM     10  C   UNL     1       2.649   3.230  18.257  0.00  0.00    +0.000 C 
ATOM     11  C   UNL     1       3.974   2.678  18.814  0.00  0.00    +0.000 C 
ATOM     12  C   UNL     1       2.648   2.920  16.737  0.00  0.00    +0.000 C 
ATOM     13  C   UNL     1       1.454   2.452  18.859  0.00  0.00    +0.000 C 
ATOM     14  C   UNL     1       1.141   2.832  20.295  0.00  0.00    +0.000 C 
ATOM     15  C   UNL     1       0.865   4.326  20.419  0.00  0.00    +0.000 C 
ATOM     16  C   UNL     1       2.037   5.224  19.932  0.00  0.00    +0.000 C 
ATOM     17  C   UNL     1       3.166   5.180  20.991  0.00  0.00    +0.000 C 
ENDROOT
BRANCH   6  18
ATOM     18  C   UNL     1       0.551  10.964  19.765  0.00  0.00    +0.000 C 
ATOM     19  C   UNL     1       1.636  11.772  19.049  0.00  0.00    +0.000 C 
ATOM     20  C   UNL     1      -0.823  11.247  19.149  0.00  0.00    +0.000 C 
ENDBRANCH   6  18
BRANCH   1  21
ATOM     21  O   UNL     1      -0.586   9.020  21.742  0.00  0.00    +0.000 OA
BRANCH  21  23
ATOM     22  C   UNL     1      -0.985  10.895  23.114  0.00  0.00    +0.000 C 
ATOM     23  C   UNL     1      -0.047   9.769  22.796  0.00  0.00    +0.000 C 
ATOM     24  O   UNL     1       1.035   9.606  23.336  0.00  0.00    +0.000 OA
ENDBRANCH  21  23
ENDBRANCH   1  21
TORSDOF 3
ENDMDL
MODEL 2
REMARK VINA RESULT:      -6.7      1.954      6.680
REMARK  Name = 
REMARK  9 active torsions:
REMARK  status: ('A' for Active; 'I' for Inactive)
REMARK    1  A    between atoms: C_1  and  C_2
REMARK    2  A    between atoms: C_2  and  O_4
REMARK    3  A    between atoms: O_4  and  C_5
REMARK    4  A    between atoms: C_10  and  C_11
REMARK    5  A    between atoms: C_11  and  C_12
REMARK    6  A    between atoms: C_11  and  C_13
REMARK    7  A    between atoms: C_17  and  C_18
REMARK    8  A    between atoms: C_17  and  C_19
REMARK    9  A    between atoms: C_23  and  C_24
REMARK                            x       y       z     vdW  Elec       q    Type
REMARK                         _______ _______ _______ _____ _____    ______ ____
ROOT
ATOM      1  C   UNL     1       2.428   6.272  20.152  0.00  0.00    +0.000 A 
ATOM      2  C   UNL     1       1.517   7.217  20.643  0.00  0.00    +0.000 A 
ATOM      3  C   UNL     1       1.254   8.419  19.977  0.00  0.00    +0.000 A 
ATOM      4  C   UNL     1       1.887   8.636  18.743  0.00  0.00    +0.000 A 
ATOM      5  C   UNL     1       2.768   7.655  18.228  0.00  0.00    +0.000 A 
ATOM      6  C   UNL     1       3.059   6.457  18.917  0.00  0.00    +0.000 A 
ATOM      7  C   UNL     1       1.706   9.918  17.964  0.00  0.00    +0.000 C 
ATOM      8  C   UNL     1       0.685  10.907  18.538  0.00  0.00    +0.000 C 
ATOM      9  C   UNL     1       0.663  10.865  20.080  0.00  0.00    +0.000 C 
ATOM     10  C   UNL     1      -0.069  12.077  20.758  0.00  0.00    +0.000 C 
ATOM     11  C   UNL     1      -1.499  12.318  20.242  0.00  0.00    +0.000 C 
ATOM     12  C   UNL     1       0.722  13.384  20.486  0.00  0.00    +0.000 C 
ATOM     13  C   UNL     1      -0.082  11.889  22.294  0.00  0.00    +0.000 C 
ATOM     14  C   UNL     1      -0.592  10.529  22.737  0.00  0.00    +0.000 C 
ATOM     15  C   UNL     1       0.227   9.406  22.113  0.00  0.00    +0.000 C 
ATOM     16  C   UNL     1       0.241   9.427  20.558  0.00  0.00    +0.000 C 
ATOM     17  C   UNL     1      -1.132   8.929  20.045  0.00  0.00    +0.000 C 
ENDROOT
BRANCH   6  18
ATOM     18  C   UNL     1       4.051   5.486  18.291  0.00  0.00    +0.000 C 
ATOM     19  C   UNL     1       3.357   4.385  17.486  0.00  0.00    +0.000 C 
ATOM     20  C   UNL     1       5.142   6.159  17.452  0.00  0.00    +0.000 C 
ENDBRANCH   6  18
BRANCH   1  21
ATOM     21  O   UNL     1       2.584   5.071  20.872  0.00  0.00    +0.000 OA
BRANCH  21  23
ATOM     22  C   UNL     1       1.829   2.991  21.683  0.00  0.00    +0.000 C 
ATOM     23  C   UNL     1       1.588   4.101  20.705  0.00  0.00    +0.000 C 
ATOM     24  O   UNL     1       0.704   4.093  19.863  0.00  0.00    +0.000 OA
ENDBRANCH  21  23
ENDBRANCH   1  21
TORSDOF 3
ENDMDL
MODEL 3
REMARK VINA RESULT:      -6.7      3.949      8.921
REMARK  Name = 
REMARK  9 active torsions:
REMARK  status: ('A' for Active; 'I' for Inactive)
REMARK    1  A    between atoms: C_1  and  C_2
REMARK    2  A    between atoms: C_2  and  O_4
REMARK    3  A    between atoms: O_4  and  C_5
REMARK    4  A    between atoms: C_10  and  C_11
REMARK    5  A    between atoms: C_11  and  C_12
REMARK    6  A    between atoms: C_11  and  C_13
REMARK    7  A    between atoms: C_17  and  C_18
REMARK    8  A    between atoms: C_17  and  C_19
REMARK    9  A    between atoms: C_23  and  C_24
REMARK                            x       y       z     vdW  Elec       q    Type
REMARK                         _______ _______ _______ _____ _____    ______ ____
ROOT
ATOM      1  C   UNL     1      -1.353  11.006  18.493  0.00  0.00    +0.000 A 
ATOM      2  C   UNL     1      -2.293  11.808  19.155  0.00  0.00    +0.000 A 
ATOM      3  C   UNL     1      -2.190  12.112  20.518  0.00  0.00    +0.000 A 
ATOM      4  C   UNL     1      -1.064  11.640  21.210  0.00  0.00    +0.000 A 
ATOM      5  C   UNL     1      -0.094  10.871  20.524  0.00  0.00    +0.000 A 
ATOM      6  C   UNL     1      -0.216  10.536  19.158  0.00  0.00    +0.000 A 
ATOM      7  C   UNL     1      -0.879  11.873  22.691  0.00  0.00    +0.000 C 
ATOM      8  C   UNL     1      -1.925  12.773  23.359  0.00  0.00    +0.000 C 
ATOM      9  C   UNL     1      -3.317  12.592  22.718  0.00  0.00    +0.000 C 
ATOM     10  C   UNL     1      -4.505  13.184  23.555  0.00  0.00    +0.000 C 
ATOM     11  C   UNL     1      -4.324  14.659  23.954  0.00  0.00    +0.000 C 
ATOM     12  C   UNL     1      -4.660  12.387  24.878  0.00  0.00    +0.000 C 
ATOM     13  C   UNL     1      -5.833  13.001  22.782  0.00  0.00    +0.000 C 
ATOM     14  C   UNL     1      -5.777  13.499  21.348  0.00  0.00    +0.000 C 
ATOM     15  C   UNL     1      -4.660  12.811  20.573  0.00  0.00    +0.000 C 
ATOM     16  C   UNL     1      -3.249  13.001  21.201  0.00  0.00    +0.000 C 
ATOM     17  C   UNL     1      -2.774  14.447  20.919  0.00  0.00    +0.000 C 
ENDROOT
BRANCH   6  18
ATOM     18  C   UNL     1       0.868   9.672  18.526  0.00  0.00    +0.000 C 
ATOM     19  C   UNL     1       1.987  10.508  17.900  0.00  0.00    +0.000 C 
ATOM     20  C   UNL     1       1.451   8.612  19.465  0.00  0.00    +0.000 C 
ENDBRANCH   6  18
BRANCH   1  21
ATOM     21  O   UNL     1      -1.520  10.801  17.109  0.00  0.00    +0.000 OA
BRANCH  21  23
ATOM     22  C   UNL     1      -2.859  10.233  15.255  0.00  0.00    +0.000 C 
ATOM     23  C   UNL     1      -2.607  10.010  16.716  0.00  0.00    +0.000 C 
ATOM     24  O   UNL     1      -3.302   9.307  17.432  0.00  0.00    +0.000 OA
ENDBRANCH  21  23
ENDBRANCH   1  21
TORSDOF 3
ENDMDL
MODEL 4
REMARK VINA RESULT:      -6.6      1.698      3.486
REMARK  Name = 
REMARK  9 active torsions:
REMARK  status: ('A' for Active; 'I' for Inactive)
REMARK    1  A    between atoms: C_1  and  C_2
REMARK    2  A    between atoms: C_2  and  O_4
REMARK    3  A    between atoms: O_4  and  C_5
REMARK    4  A    between atoms: C_10  and  C_11
REMARK    5  A    between atoms: C_11  and  C_12
REMARK    6  A    between atoms: C_11  and  C_13
REMARK    7  A    between atoms: C_17  and  C_18
REMARK    8  A    between atoms: C_17  and  C_19
REMARK    9  A    between atoms: C_23  and  C_24
REMARK                            x       y       z     vdW  Elec       q    Type
REMARK                         _______ _______ _______ _____ _____    ______ ____
ROOT
ATOM      1  C   UNL     1       1.781   8.727  19.475  0.00  0.00    +0.000 A 
ATOM      2  C   UNL     1       2.228   7.627  18.732  0.00  0.00    +0.000 A 
ATOM      3  C   UNL     1       2.192   6.321  19.233  0.00  0.00    +0.000 A 
ATOM      4  C   UNL     1       1.624   6.122  20.500  0.00  0.00    +0.000 A 
ATOM      5  C   UNL     1       1.130   7.231  21.226  0.00  0.00    +0.000 A 
ATOM      6  C   UNL     1       1.198   8.553  20.735  0.00  0.00    +0.000 A 
ATOM      7  C   UNL     1       1.576   4.759  21.151  0.00  0.00    +0.000 C 
ATOM      8  C   UNL     1       2.060   3.590  20.285  0.00  0.00    +0.000 C 
ATOM      9  C   UNL     1       3.208   4.020  19.348  0.00  0.00    +0.000 C 
ATOM     10  C   UNL     1       4.002   2.831  18.699  0.00  0.00    +0.000 C 
ATOM     11  C   UNL     1       3.117   1.804  17.971  0.00  0.00    +0.000 C 
ATOM     12  C   UNL     1       4.767   2.050  19.801  0.00  0.00    +0.000 C 
ATOM     13  C   UNL     1       5.078   3.385  17.735  0.00  0.00    +0.000 C 
ATOM     14  C   UNL     1       4.538   4.391  16.733  0.00  0.00    +0.000 C 
ATOM     15  C   UNL     1       3.865   5.561  17.439  0.00  0.00    +0.000 C 
ATOM     16  C   UNL     1       2.694   5.142  18.374  0.00  0.00    +0.000 C 
ATOM     17  C   UNL     1       1.476   4.760  17.498  0.00  0.00    +0.000 C 
ENDROOT
BRANCH   6  18
ATOM     18  C   UNL     1       0.670   9.679  21.614  0.00  0.00    +0.000 C 
ATOM     19  C   UNL     1      -0.786  10.031  21.297  0.00  0.00    +0.000 C 
ATOM     20  C   UNL     1       0.850   9.438  23.116  0.00  0.00    +0.000 C 
ENDBRANCH   6  18
BRANCH   1  21
ATOM     21  O   UNL     1       1.814   9.995  18.862  0.00  0.00    +0.000 OA
BRANCH  21  23
ATOM     22  C   UNL     1       0.494  11.924  18.556  0.00  0.00    +0.000 C 
ATOM     23  C   UNL     1       0.618  10.452  18.295  0.00  0.00    +0.000 C 
ATOM     24  O   UNL     1      -0.238   9.780  17.742  0.00  0.00    +0.000 OA
ENDBRANCH  21  23
ENDBRANCH   1  21
TORSDOF 3
ENDMDL
MODEL 5
REMARK VINA RESULT:      -6.6      1.939      3.751
REMARK  Name = 
REMARK  9 active torsions:
REMARK  status: ('A' for Active; 'I' for Inactive)
REMARK    1  A    between atoms: C_1  and  C_2
REMARK    2  A    between atoms: C_2  and  O_4
REMARK    3  A    between atoms: O_4  and  C_5
REMARK    4  A    between atoms: C_10  and  C_11
REMARK    5  A    between atoms: C_11  and  C_12
REMARK    6  A    between atoms: C_11  and  C_13
REMARK    7  A    between atoms: C_17  and  C_18
REMARK    8  A    between atoms: C_17  and  C_19
REMARK    9  A    between atoms: C_23  and  C_24
REMARK                            x       y       z     vdW  Elec       q    Type
REMARK                         _______ _______ _______ _____ _____    ______ ____
ROOT
ATOM      1  C   UNL     1       0.882   9.690  19.424  0.00  0.00    +0.000 A 
ATOM      2  C   UNL     1       1.634   8.817  18.627  0.00  0.00    +0.000 A 
ATOM      3  C   UNL     1       2.115   7.593  19.108  0.00  0.00    +0.000 A 
ATOM      4  C   UNL     1       1.766   7.221  20.415  0.00  0.00    +0.000 A 
ATOM      5  C   UNL     1       0.966   8.086  21.198  0.00  0.00    +0.000 A 
ATOM      6  C   UNL     1       0.509   9.335  20.724  0.00  0.00    +0.000 A 
ATOM      7  C   UNL     1       2.269   5.943  21.045  0.00  0.00    +0.000 C 
ATOM      8  C   UNL     1       3.070   5.016  20.123  0.00  0.00    +0.000 C 
ATOM      9  C   UNL     1       3.902   5.818  19.101  0.00  0.00    +0.000 C 
ATOM     10  C   UNL     1       5.015   4.989  18.369  0.00  0.00    +0.000 C 
ATOM     11  C   UNL     1       4.505   3.700  17.699  0.00  0.00    +0.000 C 
ATOM     12  C   UNL     1       6.100   4.555  19.390  0.00  0.00    +0.000 C 
ATOM     13  C   UNL     1       5.733   5.881  17.327  0.00  0.00    +0.000 C 
ATOM     14  C   UNL     1       4.784   6.608  16.390  0.00  0.00    +0.000 C 
ATOM     15  C   UNL     1       3.794   7.465  17.170  0.00  0.00    +0.000 C 
ATOM     16  C   UNL     1       2.937   6.664  18.191  0.00  0.00    +0.000 C 
ATOM     17  C   UNL     1       1.872   5.853  17.413  0.00  0.00    +0.000 C 
ENDROOT
BRANCH   6  18
ATOM     18  C   UNL     1      -0.316  10.206  21.662  0.00  0.00    +0.000 C 
ATOM     19  C   UNL     1      -0.419   9.611  23.068  0.00  0.00    +0.000 C 
ATOM     20  C   UNL     1       0.145  11.666  21.730  0.00  0.00    +0.000 C 
ENDBRANCH   6  18
BRANCH   1  21
ATOM     21  O   UNL     1       0.402  10.875  18.830  0.00  0.00    +0.000 OA
BRANCH  21  23
ATOM     22  C   UNL     1      -1.619  12.038  18.486  0.00  0.00    +0.000 C 
ATOM     23  C   UNL     1      -0.835  10.797  18.179  0.00  0.00    +0.000 C 
ATOM     24  O   UNL     1      -1.265   9.859  17.527  0.00  0.00    +0.000 OA
ENDBRANCH  21  23
ENDBRANCH   1  21
TORSDOF 3
ENDMDL
MODEL 6
REMARK VINA RESULT:      -6.5      4.259      6.685
REMARK  Name = 
REMARK  9 active torsions:
REMARK  status: ('A' for Active; 'I' for Inactive)
REMARK    1  A    between atoms: C_1  and  C_2
REMARK    2  A    between atoms: C_2  and  O_4
REMARK    3  A    between atoms: O_4  and  C_5
REMARK    4  A    between atoms: C_10  and  C_11
REMARK    5  A    between atoms: C_11  and  C_12
REMARK    6  A    between atoms: C_11  and  C_13
REMARK    7  A    between atoms: C_17  and  C_18
REMARK    8  A    between atoms: C_17  and  C_19
REMARK    9  A    between atoms: C_23  and  C_24
REMARK                            x       y       z     vdW  Elec       q    Type
REMARK                         _______ _______ _______ _____ _____    ______ ____
ROOT
ATOM      1  C   UNL     1       5.901   5.903  16.506  0.00  0.00    +0.000 A 
ATOM      2  C   UNL     1       5.184   5.679  17.688  0.00  0.00    +0.000 A 
ATOM      3  C   UNL     1       4.413   4.527  17.889  0.00  0.00    +0.000 A 
ATOM      4  C   UNL     1       4.426   3.549  16.883  0.00  0.00    +0.000 A 
ATOM      5  C   UNL     1       5.191   3.760  15.712  0.00  0.00    +0.000 A 
ATOM      6  C   UNL     1       5.941   4.937  15.495  0.00  0.00    +0.000 A 
ATOM      7  C   UNL     1       3.595   2.290  16.980  0.00  0.00    +0.000 C 
ATOM      8  C   UNL     1       2.847   2.087  18.303  0.00  0.00    +0.000 C 
ATOM      9  C   UNL     1       2.386   3.431  18.903  0.00  0.00    +0.000 C 
ATOM     10  C   UNL     1       1.315   3.305  20.043  0.00  0.00    +0.000 C 
ATOM     11  C   UNL     1       1.718   2.357  21.187  0.00  0.00    +0.000 C 
ATOM     12  C   UNL     1      -0.010   2.748  19.457  0.00  0.00    +0.000 C 
ATOM     13  C   UNL     1       0.983   4.708  20.607  0.00  0.00    +0.000 C 
ATOM     14  C   UNL     1       2.210   5.514  20.995  0.00  0.00    +0.000 C 
ATOM     15  C   UNL     1       3.157   5.674  19.812  0.00  0.00    +0.000 C 
ATOM     16  C   UNL     1       3.643   4.324  19.210  0.00  0.00    +0.000 C 
ATOM     17  C   UNL     1       4.686   3.702  20.169  0.00  0.00    +0.000 C 
ENDROOT
BRANCH   6  18
ATOM     18  C   UNL     1       6.700   5.080  14.183  0.00  0.00    +0.000 C 
ATOM     19  C   UNL     1       8.205   5.254  14.397  0.00  0.00    +0.000 C 
ATOM     20  C   UNL     1       6.427   3.957  13.176  0.00  0.00    +0.000 C 
ENDBRANCH   6  18
BRANCH   1  21
ATOM     21  O   UNL     1       6.686   7.071  16.422  0.00  0.00    +0.000 OA
BRANCH  21  23
ATOM     22  C   UNL     1       7.796   8.819  17.548  0.00  0.00    +0.000 C 
ATOM     23  C   UNL     1       7.525   7.345  17.509  0.00  0.00    +0.000 C 
ATOM     24  O   UNL     1       8.030   6.535  18.270  0.00  0.00    +0.000 OA
ENDBRANCH  21  23
ENDBRANCH   1  21
TORSDOF 3
ENDMDL
MODEL 7
REMARK VINA RESULT:      -6.4      1.914      3.697
REMARK  Name = 
REMARK  9 active torsions:
REMARK  status: ('A' for Active; 'I' for Inactive)
REMARK    1  A    between atoms: C_1  and  C_2
REMARK    2  A    between atoms: C_2  and  O_4
REMARK    3  A    between atoms: O_4  and  C_5
REMARK    4  A    between atoms: C_10  and  C_11
REMARK    5  A    between atoms: C_11  and  C_12
REMARK    6  A    between atoms: C_11  and  C_13
REMARK    7  A    between atoms: C_17  and  C_18
REMARK    8  A    between atoms: C_17  and  C_19
REMARK    9  A    between atoms: C_23  and  C_24
REMARK                            x       y       z     vdW  Elec       q    Type
REMARK                         _______ _______ _______ _____ _____    ______ ____
ROOT
ATOM      1  C   UNL     1       1.144   9.960  19.553  0.00  0.00    +0.000 A 
ATOM      2  C   UNL     1       1.799   9.030  18.734  0.00  0.00    +0.000 A 
ATOM      3  C   UNL     1       2.099   7.733  19.168  0.00  0.00    +0.000 A 
ATOM      4  C   UNL     1       1.664   7.354  20.447  0.00  0.00    +0.000 A 
ATOM      5  C   UNL     1       0.960   8.283  21.250  0.00  0.00    +0.000 A 
ATOM      6  C   UNL     1       0.687   9.602  20.825  0.00  0.00    +0.000 A 
ATOM      7  C   UNL     1       1.974   5.994  21.027  0.00  0.00    +0.000 C 
ATOM      8  C   UNL     1       2.674   5.010  20.082  0.00  0.00    +0.000 C 
ATOM      9  C   UNL     1       3.635   5.739  19.121  0.00  0.00    +0.000 C 
ATOM     10  C   UNL     1       4.652   4.801  18.378  0.00  0.00    +0.000 C 
ATOM     11  C   UNL     1       3.998   3.623  17.636  0.00  0.00    +0.000 C 
ATOM     12  C   UNL     1       5.638   4.182  19.404  0.00  0.00    +0.000 C 
ATOM     13  C   UNL     1       5.513   5.635  17.398  0.00  0.00    +0.000 C 
ATOM     14  C   UNL     1       4.698   6.522  16.474  0.00  0.00    +0.000 C 
ATOM     15  C   UNL     1       3.806   7.468  17.268  0.00  0.00    +0.000 C 
ATOM     16  C   UNL     1       2.819   6.744  18.228  0.00  0.00    +0.000 C 
ATOM     17  C   UNL     1       1.681   6.118  17.387  0.00  0.00    +0.000 C 
ENDROOT
BRANCH   6  18
ATOM     18  C   UNL     1      -0.044  10.533  21.782  0.00  0.00    +0.000 C 
ATOM     19  C   UNL     1      -1.265  11.190  21.135  0.00  0.00    +0.000 C 
ATOM     20  C   UNL     1      -0.428   9.884  23.117  0.00  0.00    +0.000 C 
ENDBRANCH   6  18
BRANCH   1  21
ATOM     21  O   UNL     1       0.843  11.223  19.005  0.00  0.00    +0.000 OA
BRANCH  21  23
ATOM     22  C   UNL     1       1.907  13.067  20.017  0.00  0.00    +0.000 C 
ATOM     23  C   UNL     1       1.911  12.117  18.857  0.00  0.00    +0.000 C 
ATOM     24  O   UNL     1       2.686  12.187  17.916  0.00  0.00    +0.000 OA
ENDBRANCH  21  23
ENDBRANCH   1  21
TORSDOF 3
ENDMDL
MODEL 8
REMARK VINA RESULT:      -6.2      4.121      9.660
REMARK  Name = 
REMARK  9 active torsions:
REMARK  status: ('A' for Active; 'I' for Inactive)
REMARK    1  A    between atoms: C_1  and  C_2
REMARK    2  A    between atoms: C_2  and  O_4
REMARK    3  A    between atoms: O_4  and  C_5
REMARK    4  A    between atoms: C_10  and  C_11
REMARK    5  A    between atoms: C_11  and  C_12
REMARK    6  A    between atoms: C_11  and  C_13
REMARK    7  A    between atoms: C_17  and  C_18
REMARK    8  A    between atoms: C_17  and  C_19
REMARK    9  A    between atoms: C_23  and  C_24
REMARK                            x       y       z     vdW  Elec       q    Type
REMARK                         _______ _______ _______ _____ _____    ______ ____
ROOT
ATOM      1  C   UNL     1      -0.379  11.522  21.463  0.00  0.00    +0.000 A 
ATOM      2  C   UNL     1      -1.114  12.254  22.405  0.00  0.00    +0.000 A 
ATOM      3  C   UNL     1      -2.328  12.875  22.088  0.00  0.00    +0.000 A 
ATOM      4  C   UNL     1      -2.839  12.690  20.794  0.00  0.00    +0.000 A 
ATOM      5  C   UNL     1      -2.115  11.909  19.862  0.00  0.00    +0.000 A 
ATOM      6  C   UNL     1      -0.874  11.311  20.172  0.00  0.00    +0.000 A 
ATOM      7  C   UNL     1      -4.118  13.351  20.336  0.00  0.00    +0.000 C 
ATOM      8  C   UNL     1      -4.890  14.123  21.412  0.00  0.00    +0.000 C 
ATOM      9  C   UNL     1      -3.935  14.783  22.428  0.00  0.00    +0.000 C 
ATOM     10  C   UNL     1      -4.600  15.877  23.336  0.00  0.00    +0.000 C 
ATOM     11  C   UNL     1      -5.866  15.403  24.072  0.00  0.00    +0.000 C 
ATOM     12  C   UNL     1      -5.025  17.090  22.466  0.00  0.00    +0.000 C 
ATOM     13  C   UNL     1      -3.564  16.415  24.353  0.00  0.00    +0.000 C 
ATOM     14  C   UNL     1      -2.845  15.323  25.124  0.00  0.00    +0.000 C 
ATOM     15  C   UNL     1      -2.145  14.354  24.179  0.00  0.00    +0.000 C 
ATOM     16  C   UNL     1      -3.101  13.669  23.161  0.00  0.00    +0.000 C 
ATOM     17  C   UNL     1      -3.931  12.596  23.907  0.00  0.00    +0.000 C 
ENDROOT
BRANCH   6  18
ATOM     18  C   UNL     1      -0.160  10.521  19.084  0.00  0.00    +0.000 C 
ATOM     19  C   UNL     1      -1.074  10.212  17.895  0.00  0.00    +0.000 C 
ATOM     20  C   UNL     1       1.149  11.156  18.605  0.00  0.00    +0.000 C 
ENDBRANCH   6  18
BRANCH   1  21
ATOM     21  O   UNL     1       0.806  10.894  21.896  0.00  0.00    +0.000 OA
BRANCH  21  23
ATOM     22  C   UNL     1       0.924   8.546  21.737  0.00  0.00    +0.000 C 
ATOM     23  C   UNL     1       0.661   9.716  22.638  0.00  0.00    +0.000 C 
ATOM     24  O   UNL     1       0.305   9.618  23.801  0.00  0.00    +0.000 OA
ENDBRANCH  21  23
ENDBRANCH   1  21
TORSDOF 3
ENDMDL
MODEL 9
REMARK VINA RESULT:      -6.2      4.756      9.755
REMARK  Name = 
REMARK  9 active torsions:
REMARK  status: ('A' for Active; 'I' for Inactive)
REMARK    1  A    between atoms: C_1  and  C_2
REMARK    2  A    between atoms: C_2  and  O_4
REMARK    3  A    between atoms: O_4  and  C_5
REMARK    4  A    between atoms: C_10  and  C_11
REMARK    5  A    between atoms: C_11  and  C_12
REMARK    6  A    between atoms: C_11  and  C_13
REMARK    7  A    between atoms: C_17  and  C_18
REMARK    8  A    between atoms: C_17  and  C_19
REMARK    9  A    between atoms: C_23  and  C_24
REMARK                            x       y       z     vdW  Elec       q    Type
REMARK                         _______ _______ _______ _____ _____    ______ ____
ROOT
ATOM      1  C   UNL     1      -2.020  11.663  18.876  0.00  0.00    +0.000 A 
ATOM      2  C   UNL     1      -3.159  12.367  19.287  0.00  0.00    +0.000 A 
ATOM      3  C   UNL     1      -3.409  12.666  20.631  0.00  0.00    +0.000 A 
ATOM      4  C   UNL     1      -2.441  12.294  21.576  0.00  0.00    +0.000 A 
ATOM      5  C   UNL     1      -1.269  11.625  21.148  0.00  0.00    +0.000 A 
ATOM      6  C   UNL     1      -1.033  11.294  19.795  0.00  0.00    +0.000 A 
ATOM      7  C   UNL     1      -2.632  12.529  23.056  0.00  0.00    +0.000 C 
ATOM      8  C   UNL     1      -3.886  13.321  23.447  0.00  0.00    +0.000 C 
ATOM      9  C   UNL     1      -5.063  13.019  22.497  0.00  0.00    +0.000 C 
ATOM     10  C   UNL     1      -6.465  13.489  23.023  0.00  0.00    +0.000 C 
ATOM     11  C   UNL     1      -6.520  14.971  23.435  0.00  0.00    +0.000 C 
ATOM     12  C   UNL     1      -6.854  12.669  24.282  0.00  0.00    +0.000 C 
ATOM     13  C   UNL     1      -7.551  13.192  21.960  0.00  0.00    +0.000 C 
ATOM     14  C   UNL     1      -7.203  13.707  20.575  0.00  0.00    +0.000 C 
ATOM     15  C   UNL     1      -5.876  13.133  20.093  0.00  0.00    +0.000 C 
ATOM     16  C   UNL     1      -4.678  13.447  21.034  0.00  0.00    +0.000 C 
ATOM     17  C   UNL     1      -4.285  14.934  20.855  0.00  0.00    +0.000 C 
ENDROOT
BRANCH   6  18
ATOM     18  C   UNL     1       0.244  10.540  19.448  0.00  0.00    +0.000 C 
ATOM     19  C   UNL     1       1.361  11.475  18.978  0.00  0.00    +0.000 C 
ATOM     20  C   UNL     1       0.749   9.617  20.561  0.00  0.00    +0.000 C 
ENDBRANCH   6  18
BRANCH   1  21
ATOM     21  O   UNL     1      -1.836  11.456  17.494  0.00  0.00    +0.000 OA
BRANCH  21  23
ATOM     22  C   UNL     1      -2.848  10.795  15.471  0.00  0.00    +0.000 C 
ATOM     23  C   UNL     1      -2.590  10.435  16.903  0.00  0.00    +0.000 C 
ATOM     24  O   UNL     1      -3.042   9.443  17.452  0.00  0.00    +0.000 OA
ENDBRANCH  21  23
ENDBRANCH   1  21
TORSDOF 3
ENDMDL
