MODEL 1
REMARK VINA RESULT:      -7.3      0.000      0.000
REMARK  Name = 
REMARK  2 active torsions:
REMARK  status: ('A' for Active; 'I' for Inactive)
REMARK    1  A    between atoms: C_1  and  C_2
REMARK    2  A    between atoms: N_4  and  C_5
REMARK                            x       y       z     vdW  Elec       q    Type
REMARK                         _______ _______ _______ _____ _____    ______ ____
ROOT
ATOM      1  C   UNL     1      -1.401  10.745  23.187  0.00  0.00    +0.000 C 
ATOM      2  C   UNL     1      -0.234  11.011  22.230  0.00  0.00    +0.000 A 
ATOM      3  N   UNL     1       0.475   9.865  22.025  0.00  0.00    +0.000 NA
ATOM      4  N   UNL     1       0.251   9.670  20.689  0.00  0.00    +0.000 N 
ATOM      5  C   UNL     1      -0.623  10.671  20.310  0.00  0.00    +0.000 A 
ATOM      6  C   UNL     1      -0.119  11.781  20.987  0.00  0.00    +0.000 A 
ATOM      7  C   UNL     1      -0.495  12.983  20.126  0.00  0.00    +0.000 C 
ATOM      8  C   UNL     1       0.325  14.257  19.935  0.00  0.00    +0.000 A 
ATOM      9  C   UNL     1       1.579  14.244  19.254  0.00  0.00    +0.000 A 
ATOM     10  C   UNL     1       2.021  15.382  18.469  0.00  0.00    +0.000 A 
ATOM     11  C   UNL     1       3.174  15.402  17.640  0.00  0.00    +0.000 A 
ATOM     12  C   UNL     1       3.482  16.520  16.831  0.00  0.00    +0.000 A 
ATOM     13  C   UNL     1       2.660  17.636  16.858  0.00  0.00    +0.000 A 
ATOM     14  C   UNL     1       1.538  17.617  17.692  0.00  0.00    +0.000 A 
ATOM     15  C   UNL     1       1.223  16.526  18.501  0.00  0.00    +0.000 A 
ATOM     16  N   UNL     1       0.125  16.604  19.253  0.00  0.00    +0.000 NA
ATOM     17  C   UNL     1      -0.317  15.504  19.940  0.00  0.00    +0.000 A 
ATOM     18  S   UNL     1      -1.953  15.785  20.598  0.00  0.00    +0.000 S 
ATOM     19  C   UNL     1      -2.488  14.105  21.025  0.00  0.00    +0.000 C 
ATOM     20  C   UNL     1      -2.004  13.117  19.975  0.00  0.00    +0.000 C 
ATOM     21  C   UNL     1      -2.668  11.719  20.023  0.00  0.00    +0.000 C 
ATOM     22  O   UNL     1      -1.762  10.626  19.602  0.00  0.00    +0.000 OA
ENDROOT
BRANCH   4  23
ATOM     23  C   UNL     1       1.220   9.040  19.882  0.00  0.00    +0.000 A 
ATOM     24  C   UNL     1       1.453   9.502  18.580  0.00  0.00    +0.000 A 
ATOM     25  C   UNL     1       2.186   8.714  17.694  0.00  0.00    +0.000 A 
ATOM     26  C   UNL     1       2.667   7.466  18.100  0.00  0.00    +0.000 A 
ATOM     27  C   UNL     1       2.456   7.033  19.410  0.00  0.00    +0.000 A 
ATOM     28 CL   UNL     1       2.967   5.458  19.884  0.00  0.00    +0.000 Cl
ATOM     29  C   UNL     1       1.769   7.825  20.317  0.00  0.00    +0.000 A 
ENDBRANCH   4  23
TORSDOF 1
ENDMDL
MODEL 2
REMARK VINA RESULT:      -7.1      1.165      1.292
REMARK  Name = 
REMARK  2 active torsions:
REMARK  status: ('A' for Active; 'I' for Inactive)
REMARK    1  A    between atoms: C_1  and  C_2
REMARK    2  A    between atoms: N_4  and  C_5
REMARK                            x       y       z     vdW  Elec       q    Type
REMARK                         _______ _______ _______ _____ _____    ______ ____
ROOT
ATOM      1  C   UNL     1      -0.820   9.672  23.130  0.00  0.00    +0.000 C 
ATOM      2  C   UNL     1       0.399   9.944  22.242  0.00  0.00    +0.000 A 
ATOM      3  N   UNL     1       1.048   8.777  21.965  0.00  0.00    +0.000 NA
ATOM      4  N   UNL     1       0.868   8.709  20.610  0.00  0.00    +0.000 N 
ATOM      5  C   UNL     1       0.071   9.790  20.287  0.00  0.00    +0.000 A 
ATOM      6  C   UNL     1       0.612  10.807  21.075  0.00  0.00    +0.000 A 
ATOM      7  C   UNL     1       0.343  12.097  20.307  0.00  0.00    +0.000 C 
ATOM      8  C   UNL     1       1.245  13.329  20.256  0.00  0.00    +0.000 A 
ATOM      9  C   UNL     1       2.523  13.295  19.622  0.00  0.00    +0.000 A 
ATOM     10  C   UNL     1       3.064  14.464  18.955  0.00  0.00    +0.000 A 
ATOM     11  C   UNL     1       4.250  14.481  18.173  0.00  0.00    +0.000 A 
ATOM     12  C   UNL     1       4.656  15.641  17.475  0.00  0.00    +0.000 A 
ATOM     13  C   UNL     1       3.901  16.800  17.567  0.00  0.00    +0.000 A 
ATOM     14  C   UNL     1       2.746  16.782  18.355  0.00  0.00    +0.000 A 
ATOM     15  C   UNL     1       2.335  15.649  19.056  0.00  0.00    +0.000 A 
ATOM     16  N   UNL     1       1.212  15.733  19.771  0.00  0.00    +0.000 NA
ATOM     17  C   UNL     1       0.678  14.609  20.345  0.00  0.00    +0.000 A 
ATOM     18  S   UNL     1      -0.965  14.935  20.964  0.00  0.00    +0.000 S 
ATOM     19  C   UNL     1      -1.616  13.262  21.225  0.00  0.00    +0.000 C 
ATOM     20  C   UNL     1      -1.148  12.337  20.113  0.00  0.00    +0.000 C 
ATOM     21  C   UNL     1      -1.894  10.984  20.016  0.00  0.00    +0.000 C 
ATOM     22  O   UNL     1      -1.038   9.876  19.537  0.00  0.00    +0.000 OA
ENDROOT
BRANCH   4  23
ATOM     23  C   UNL     1       1.831   8.089  19.788  0.00  0.00    +0.000 A 
ATOM     24  C   UNL     1       2.122   8.624  18.526  0.00  0.00    +0.000 A 
ATOM     25  C   UNL     1       2.845   7.863  17.609  0.00  0.00    +0.000 A 
ATOM     26  C   UNL     1       3.256   6.570  17.942  0.00  0.00    +0.000 A 
ATOM     27  C   UNL     1       2.988   6.062  19.214  0.00  0.00    +0.000 A 
ATOM     28 CL   UNL     1       3.414   4.436  19.594  0.00  0.00    +0.000 Cl
ATOM     29  C   UNL     1       2.312   6.823  20.154  0.00  0.00    +0.000 A 
ENDBRANCH   4  23
TORSDOF 1
ENDMDL
MODEL 3
REMARK VINA RESULT:      -7.0      4.306      7.211
REMARK  Name = 
REMARK  2 active torsions:
REMARK  status: ('A' for Active; 'I' for Inactive)
REMARK    1  A    between atoms: C_1  and  C_2
REMARK    2  A    between atoms: N_4  and  C_5
REMARK                            x       y       z     vdW  Elec       q    Type
REMARK                         _______ _______ _______ _____ _____    ______ ____
ROOT
ATOM      1  C   UNL     1       0.248   9.735  21.583  0.00  0.00    +0.000 C 
ATOM      2  C   UNL     1      -0.781  10.858  21.746  0.00  0.00    +0.000 A 
ATOM      3  N   UNL     1      -0.419  11.684  22.768  0.00  0.00    +0.000 NA
ATOM      4  N   UNL     1      -0.196  12.847  22.081  0.00  0.00    +0.000 N 
ATOM      5  C   UNL     1      -0.373  12.529  20.748  0.00  0.00    +0.000 A 
ATOM      6  C   UNL     1      -1.497  11.703  20.783  0.00  0.00    +0.000 A 
ATOM      7  C   UNL     1      -2.181  11.898  19.433  0.00  0.00    +0.000 C 
ATOM      8  C   UNL     1      -3.684  11.875  19.165  0.00  0.00    +0.000 A 
ATOM      9  C   UNL     1      -4.551  12.886  19.677  0.00  0.00    +0.000 A 
ATOM     10  C   UNL     1      -5.732  13.306  18.946  0.00  0.00    +0.000 A 
ATOM     11  C   UNL     1      -6.564  14.401  19.301  0.00  0.00    +0.000 A 
ATOM     12  C   UNL     1      -7.642  14.805  18.479  0.00  0.00    +0.000 A 
ATOM     13  C   UNL     1      -7.916  14.109  17.312  0.00  0.00    +0.000 A 
ATOM     14  C   UNL     1      -7.106  13.019  16.980  0.00  0.00    +0.000 A 
ATOM     15  C   UNL     1      -6.044  12.603  17.782  0.00  0.00    +0.000 A 
ATOM     16  N   UNL     1      -5.326  11.558  17.370  0.00  0.00    +0.000 NA
ATOM     17  C   UNL     1      -4.178  11.209  18.033  0.00  0.00    +0.000 A 
ATOM     18  S   UNL     1      -3.255   9.996  17.104  0.00  0.00    +0.000 S 
ATOM     19  C   UNL     1      -1.628  10.054  17.906  0.00  0.00    +0.000 C 
ATOM     20  C   UNL     1      -1.277  11.486  18.279  0.00  0.00    +0.000 C 
ATOM     21  C   UNL     1       0.205  11.730  18.653  0.00  0.00    +0.000 C 
ATOM     22  O   UNL     1       0.385  12.789  19.672  0.00  0.00    +0.000 OA
ENDROOT
BRANCH   4  23
ATOM     23  C   UNL     1      -0.423  14.097  22.693  0.00  0.00    +0.000 A 
ATOM     24  C   UNL     1       0.376  15.196  22.351  0.00  0.00    +0.000 A 
ATOM     25  C   UNL     1       0.349  16.338  23.151  0.00  0.00    +0.000 A 
ATOM     26  C   UNL     1      -0.455  16.373  24.294  0.00  0.00    +0.000 A 
ATOM     27  C   UNL     1      -1.270  15.283  24.603  0.00  0.00    +0.000 A 
ATOM     28 CL   UNL     1      -2.190  15.288  26.060  0.00  0.00    +0.000 Cl
ATOM     29  C   UNL     1      -1.290  14.159  23.793  0.00  0.00    +0.000 A 
ENDBRANCH   4  23
TORSDOF 1
ENDMDL
MODEL 4
REMARK VINA RESULT:      -7.0      5.380      8.058
REMARK  Name = 
REMARK  2 active torsions:
REMARK  status: ('A' for Active; 'I' for Inactive)
REMARK    1  A    between atoms: C_1  and  C_2
REMARK    2  A    between atoms: N_4  and  C_5
REMARK                            x       y       z     vdW  Elec       q    Type
REMARK                         _______ _______ _______ _____ _____    ______ ____
ROOT
ATOM      1  C   UNL     1      -7.456  16.080  22.968  0.00  0.00    +0.000 C 
ATOM      2  C   UNL     1      -6.027  15.735  22.534  0.00  0.00    +0.000 A 
ATOM      3  N   UNL     1      -5.127  16.418  23.297  0.00  0.00    +0.000 NA
ATOM      4  N   UNL     1      -4.507  15.379  23.938  0.00  0.00    +0.000 N 
ATOM      5  C   UNL     1      -5.178  14.241  23.534  0.00  0.00    +0.000 A 
ATOM      6  C   UNL     1      -5.370  14.474  22.172  0.00  0.00    +0.000 A 
ATOM      7  C   UNL     1      -5.406  13.092  21.528  0.00  0.00    +0.000 C 
ATOM      8  C   UNL     1      -4.881  12.721  20.143  0.00  0.00    +0.000 A 
ATOM      9  C   UNL     1      -3.488  12.755  19.837  0.00  0.00    +0.000 A 
ATOM     10  C   UNL     1      -2.901  11.823  18.893  0.00  0.00    +0.000 A 
ATOM     11  C   UNL     1      -1.509  11.684  18.641  0.00  0.00    +0.000 A 
ATOM     12  C   UNL     1      -1.013  10.683  17.776  0.00  0.00    +0.000 A 
ATOM     13  C   UNL     1      -1.895   9.827  17.135  0.00  0.00    +0.000 A 
ATOM     14  C   UNL     1      -3.264   9.982  17.371  0.00  0.00    +0.000 A 
ATOM     15  C   UNL     1      -3.772  10.969  18.216  0.00  0.00    +0.000 A 
ATOM     16  N   UNL     1      -5.094  11.026  18.382  0.00  0.00    +0.000 NA
ATOM     17  C   UNL     1      -5.632  11.867  19.321  0.00  0.00    +0.000 A 
ATOM     18  S   UNL     1      -7.368  11.522  19.557  0.00  0.00    +0.000 S 
ATOM     19  C   UNL     1      -7.723  12.388  21.112  0.00  0.00    +0.000 C 
ATOM     20  C   UNL     1      -6.551  12.247  22.070  0.00  0.00    +0.000 C 
ATOM     21  C   UNL     1      -6.846  12.635  23.540  0.00  0.00    +0.000 C 
ATOM     22  O   UNL     1      -5.676  13.213  24.239  0.00  0.00    +0.000 OA
ENDROOT
BRANCH   4  23
ATOM     23  C   UNL     1      -3.153  15.476  24.319  0.00  0.00    +0.000 A 
ATOM     24  C   UNL     1      -2.770  15.144  25.625  0.00  0.00    +0.000 A 
ATOM     25  C   UNL     1      -1.505  15.511  26.083  0.00  0.00    +0.000 A 
ATOM     26  C   UNL     1      -0.638  16.222  25.248  0.00  0.00    +0.000 A 
ATOM     27  C   UNL     1      -1.021  16.517  23.939  0.00  0.00    +0.000 A 
ATOM     28 CL   UNL     1       0.009  17.472  22.940  0.00  0.00    +0.000 Cl
ATOM     29  C   UNL     1      -2.256  16.118  23.454  0.00  0.00    +0.000 A 
ENDBRANCH   4  23
TORSDOF 1
ENDMDL
MODEL 5
REMARK VINA RESULT:      -6.9      4.386      7.469
REMARK  Name = 
REMARK  2 active torsions:
REMARK  status: ('A' for Active; 'I' for Inactive)
REMARK    1  A    between atoms: C_1  and  C_2
REMARK    2  A    between atoms: N_4  and  C_5
REMARK                            x       y       z     vdW  Elec       q    Type
REMARK                         _______ _______ _______ _____ _____    ______ ____
ROOT
ATOM      1  C   UNL     1       0.217  10.067  21.960  0.00  0.00    +0.000 C 
ATOM      2  C   UNL     1      -0.964  11.032  22.117  0.00  0.00    +0.000 A 
ATOM      3  N   UNL     1      -0.831  11.754  23.266  0.00  0.00    +0.000 NA
ATOM      4  N   UNL     1      -0.687  13.015  22.751  0.00  0.00    +0.000 N 
ATOM      5  C   UNL     1      -0.669  12.855  21.379  0.00  0.00    +0.000 A 
ATOM      6  C   UNL     1      -1.670  11.906  21.174  0.00  0.00    +0.000 A 
ATOM      7  C   UNL     1      -2.217  12.194  19.779  0.00  0.00    +0.000 C 
ATOM      8  C   UNL     1      -3.664  12.030  19.319  0.00  0.00    +0.000 A 
ATOM      9  C   UNL     1      -4.709  12.858  19.828  0.00  0.00    +0.000 A 
ATOM     10  C   UNL     1      -5.844  13.229  19.004  0.00  0.00    +0.000 A 
ATOM     11  C   UNL     1      -6.848  14.165  19.373  0.00  0.00    +0.000 A 
ATOM     12  C   UNL     1      -7.869  14.543  18.472  0.00  0.00    +0.000 A 
ATOM     13  C   UNL     1      -7.917  13.977  17.207  0.00  0.00    +0.000 A 
ATOM     14  C   UNL     1      -6.938  13.042  16.859  0.00  0.00    +0.000 A 
ATOM     15  C   UNL     1      -5.927  12.652  17.737  0.00  0.00    +0.000 A 
ATOM     16  N   UNL     1      -5.036  11.760  17.304  0.00  0.00    +0.000 NA
ATOM     17  C   UNL     1      -3.935  11.465  18.063  0.00  0.00    +0.000 A 
ATOM     18  S   UNL     1      -2.761  10.498  17.127  0.00  0.00    +0.000 S 
ATOM     19  C   UNL     1      -1.258  10.641  18.134  0.00  0.00    +0.000 C 
ATOM     20  C   UNL     1      -1.143  12.043  18.711  0.00  0.00    +0.000 C 
ATOM     21  C   UNL     1       0.243  12.408  19.298  0.00  0.00    +0.000 C 
ATOM     22  O   UNL     1       0.166  13.339  20.445  0.00  0.00    +0.000 OA
ENDROOT
BRANCH   4  23
ATOM     23  C   UNL     1      -1.143  14.140  23.468  0.00  0.00    +0.000 A 
ATOM     24  C   UNL     1      -2.368  14.086  24.147  0.00  0.00    +0.000 A 
ATOM     25  C   UNL     1      -2.950  15.267  24.603  0.00  0.00    +0.000 A 
ATOM     26  C   UNL     1      -2.324  16.494  24.366  0.00  0.00    +0.000 A 
ATOM     27  C   UNL     1      -1.089  16.529  23.718  0.00  0.00    +0.000 A 
ATOM     28 CL   UNL     1      -0.361  18.046  23.344  0.00  0.00    +0.000 Cl
ATOM     29  C   UNL     1      -0.474  15.360  23.299  0.00  0.00    +0.000 A 
ENDBRANCH   4  23
TORSDOF 1
ENDMDL
MODEL 6
REMARK VINA RESULT:      -6.7      1.824      2.020
REMARK  Name = 
REMARK  2 active torsions:
REMARK  status: ('A' for Active; 'I' for Inactive)
REMARK    1  A    between atoms: C_1  and  C_2
REMARK    2  A    between atoms: N_4  and  C_5
REMARK                            x       y       z     vdW  Elec       q    Type
REMARK                         _______ _______ _______ _____ _____    ______ ____
ROOT
ATOM      1  C   UNL     1      -1.785  11.501  22.619  0.00  0.00    +0.000 C 
ATOM      2  C   UNL     1      -0.349  11.435  22.090  0.00  0.00    +0.000 A 
ATOM      3  N   UNL     1       0.003  10.140  21.845  0.00  0.00    +0.000 NA
ATOM      4  N   UNL     1       0.176  10.183  20.488  0.00  0.00    +0.000 N 
ATOM      5  C   UNL     1      -0.177  11.464  20.109  0.00  0.00    +0.000 A 
ATOM      6  C   UNL     1       0.394  12.242  21.115  0.00  0.00    +0.000 A 
ATOM      7  C   UNL     1       0.704  13.584  20.459  0.00  0.00    +0.000 C 
ATOM      8  C   UNL     1       1.890  14.495  20.769  0.00  0.00    +0.000 A 
ATOM      9  C   UNL     1       3.229  14.110  20.464  0.00  0.00    +0.000 A 
ATOM     10  C   UNL     1       4.227  15.093  20.085  0.00  0.00    +0.000 A 
ATOM     11  C   UNL     1       5.535  14.790  19.620  0.00  0.00    +0.000 A 
ATOM     12  C   UNL     1       6.414  15.805  19.180  0.00  0.00    +0.000 A 
ATOM     13  C   UNL     1       6.011  17.131  19.219  0.00  0.00    +0.000 A 
ATOM     14  C   UNL     1       4.731  17.423  19.698  0.00  0.00    +0.000 A 
ATOM     15  C   UNL     1       3.853  16.436  20.143  0.00  0.00    +0.000 A 
ATOM     16  N   UNL     1       2.650  16.819  20.571  0.00  0.00    +0.000 NA
ATOM     17  C   UNL     1       1.695  15.882  20.865  0.00  0.00    +0.000 A 
ATOM     18  S   UNL     1       0.103  16.654  21.103  0.00  0.00    +0.000 S 
ATOM     19  C   UNL     1      -1.029  15.238  21.005  0.00  0.00    +0.000 C 
ATOM     20  C   UNL     1      -0.557  14.261  19.940  0.00  0.00    +0.000 C 
ATOM     21  C   UNL     1      -1.593  13.195  19.511  0.00  0.00    +0.000 C 
ATOM     22  O   UNL     1      -0.980  11.903  19.128  0.00  0.00    +0.000 OA
ENDROOT
BRANCH   4  23
ATOM     23  C   UNL     1       1.114   9.339  19.857  0.00  0.00    +0.000 A 
ATOM     24  C   UNL     1       1.508   9.596  18.537  0.00  0.00    +0.000 A 
ATOM     25  C   UNL     1       2.197   8.616  17.825  0.00  0.00    +0.000 A 
ATOM     26  C   UNL     1       2.472   7.382  18.419  0.00  0.00    +0.000 A 
ATOM     27  C   UNL     1       2.103   7.152  19.745  0.00  0.00    +0.000 A 
ATOM     28 CL   UNL     1       2.359   5.600  20.449  0.00  0.00    +0.000 Cl
ATOM     29  C   UNL     1       1.458   8.132  20.483  0.00  0.00    +0.000 A 
ENDBRANCH   4  23
TORSDOF 1
ENDMDL
MODEL 7
REMARK VINA RESULT:      -6.6      4.689      8.257
REMARK  Name = 
REMARK  2 active torsions:
REMARK  status: ('A' for Active; 'I' for Inactive)
REMARK    1  A    between atoms: C_1  and  C_2
REMARK    2  A    between atoms: N_4  and  C_5
REMARK                            x       y       z     vdW  Elec       q    Type
REMARK                         _______ _______ _______ _____ _____    ______ ____
ROOT
ATOM      1  C   UNL     1      -7.804  15.343  18.598  0.00  0.00    +0.000 C 
ATOM      2  C   UNL     1      -6.533  15.278  19.451  0.00  0.00    +0.000 A 
ATOM      3  N   UNL     1      -6.619  16.156  20.491  0.00  0.00    +0.000 NA
ATOM      4  N   UNL     1      -6.614  15.287  21.549  0.00  0.00    +0.000 N 
ATOM      5  C   UNL     1      -6.612  14.023  20.991  0.00  0.00    +0.000 A 
ATOM      6  C   UNL     1      -5.711  14.163  19.935  0.00  0.00    +0.000 A 
ATOM      7  C   UNL     1      -5.099  12.779  19.743  0.00  0.00    +0.000 C 
ATOM      8  C   UNL     1      -3.666  12.471  19.315  0.00  0.00    +0.000 A 
ATOM      9  C   UNL     1      -2.553  12.775  20.155  0.00  0.00    +0.000 A 
ATOM     10  C   UNL     1      -1.363  11.946  20.157  0.00  0.00    +0.000 A 
ATOM     11  C   UNL     1      -0.275  12.081  21.062  0.00  0.00    +0.000 A 
ATOM     12  C   UNL     1       0.805  11.169  21.058  0.00  0.00    +0.000 A 
ATOM     13  C   UNL     1       0.826  10.130  20.141  0.00  0.00    +0.000 A 
ATOM     14  C   UNL     1      -0.237  10.015  19.240  0.00  0.00    +0.000 A 
ATOM     15  C   UNL     1      -1.307  10.909  19.225  0.00  0.00    +0.000 A 
ATOM     16  N   UNL     1      -2.276  10.705  18.332  0.00  0.00    +0.000 NA
ATOM     17  C   UNL     1      -3.423  11.454  18.380  0.00  0.00    +0.000 A 
ATOM     18  S   UNL     1      -4.667  10.775  17.294  0.00  0.00    +0.000 S 
ATOM     19  C   UNL     1      -6.173  11.608  17.868  0.00  0.00    +0.000 C 
ATOM     20  C   UNL     1      -6.154  11.742  19.383  0.00  0.00    +0.000 C 
ATOM     21  C   UNL     1      -7.508  12.115  20.034  0.00  0.00    +0.000 C 
ATOM     22  O   UNL     1      -7.364  12.943  21.252  0.00  0.00    +0.000 OA
ENDROOT
BRANCH   4  23
ATOM     23  C   UNL     1      -6.060  15.669  22.788  0.00  0.00    +0.000 A 
ATOM     24  C   UNL     1      -6.423  16.891  23.369  0.00  0.00    +0.000 A 
ATOM     25  C   UNL     1      -5.672  17.397  24.428  0.00  0.00    +0.000 A 
ATOM     26  C   UNL     1      -4.554  16.696  24.891  0.00  0.00    +0.000 A 
ATOM     27  C   UNL     1      -4.224  15.464  24.325  0.00  0.00    +0.000 A 
ATOM     28 CL   UNL     1      -2.795  14.645  24.831  0.00  0.00    +0.000 Cl
ATOM     29  C   UNL     1      -4.988  14.925  23.302  0.00  0.00    +0.000 A 
ENDBRANCH   4  23
TORSDOF 1
ENDMDL
MODEL 8
REMARK VINA RESULT:      -6.5      4.398      6.204
REMARK  Name = 
REMARK  2 active torsions:
REMARK  status: ('A' for Active; 'I' for Inactive)
REMARK    1  A    between atoms: C_1  and  C_2
REMARK    2  A    between atoms: N_4  and  C_5
REMARK                            x       y       z     vdW  Elec       q    Type
REMARK                         _______ _______ _______ _____ _____    ______ ____
ROOT
ATOM      1  C   UNL     1       0.210  16.308  19.407  0.00  0.00    +0.000 C 
ATOM      2  C   UNL     1       0.714  15.318  20.464  0.00  0.00    +0.000 A 
ATOM      3  N   UNL     1      -0.317  14.549  20.916  0.00  0.00    +0.000 NA
ATOM      4  N   UNL     1       0.087  13.315  20.482  0.00  0.00    +0.000 N 
ATOM      5  C   UNL     1       1.247  13.535  19.764  0.00  0.00    +0.000 A 
ATOM      6  C   UNL     1       1.912  14.475  20.551  0.00  0.00    +0.000 A 
ATOM      7  C   UNL     1       3.396  14.241  20.290  0.00  0.00    +0.000 C 
ATOM      8  C   UNL     1       4.533  14.401  21.297  0.00  0.00    +0.000 A 
ATOM      9  C   UNL     1       4.661  13.535  22.424  0.00  0.00    +0.000 A 
ATOM     10  C   UNL     1       5.963  13.183  22.959  0.00  0.00    +0.000 A 
ATOM     11  C   UNL     1       6.193  12.216  23.974  0.00  0.00    +0.000 A 
ATOM     12  C   UNL     1       7.503  11.861  24.370  0.00  0.00    +0.000 A 
ATOM     13  C   UNL     1       8.593  12.481  23.779  0.00  0.00    +0.000 A 
ATOM     14  C   UNL     1       8.359  13.446  22.796  0.00  0.00    +0.000 A 
ATOM     15  C   UNL     1       7.074  13.814  22.397  0.00  0.00    +0.000 A 
ATOM     16  N   UNL     1       6.958  14.737  21.443  0.00  0.00    +0.000 NA
ATOM     17  C   UNL     1       5.730  15.017  20.903  0.00  0.00    +0.000 A 
ATOM     18  S   UNL     1       5.897  16.042  19.450  0.00  0.00    +0.000 S 
ATOM     19  C   UNL     1       4.263  15.879  18.677  0.00  0.00    +0.000 C 
ATOM     20  C   UNL     1       3.751  14.455  18.825  0.00  0.00    +0.000 C 
ATOM     21  C   UNL     1       2.544  14.087  17.928  0.00  0.00    +0.000 C 
ATOM     22  O   UNL     1       1.629  13.105  18.552  0.00  0.00    +0.000 OA
ENDROOT
BRANCH   4  23
ATOM     23  C   UNL     1      -0.258  12.152  21.201  0.00  0.00    +0.000 A 
ATOM     24  C   UNL     1      -1.135  12.239  22.290  0.00  0.00    +0.000 A 
ATOM     25  C   UNL     1      -1.247  11.162  23.168  0.00  0.00    +0.000 A 
ATOM     26  C   UNL     1      -0.474  10.015  22.970  0.00  0.00    +0.000 A 
ATOM     27  C   UNL     1       0.371   9.929  21.863  0.00  0.00    +0.000 A 
ATOM     28 CL   UNL     1       1.393   8.555  21.669  0.00  0.00    +0.000 Cl
ATOM     29  C   UNL     1       0.459  10.972  20.955  0.00  0.00    +0.000 A 
ENDBRANCH   4  23
TORSDOF 1
ENDMDL
MODEL 9
REMARK VINA RESULT:      -6.5      4.801      6.825
REMARK  Name = 
REMARK  2 active torsions:
REMARK  status: ('A' for Active; 'I' for Inactive)
REMARK    1  A    between atoms: C_1  and  C_2
REMARK    2  A    between atoms: N_4  and  C_5
REMARK                            x       y       z     vdW  Elec       q    Type
REMARK                         _______ _______ _______ _____ _____    ______ ____
ROOT
ATOM      1  C   UNL     1       1.423  17.397  18.929  0.00  0.00    +0.000 C 
ATOM      2  C   UNL     1       1.647  16.176  19.827  0.00  0.00    +0.000 A 
ATOM      3  N   UNL     1       0.535  15.387  19.834  0.00  0.00    +0.000 NA
ATOM      4  N   UNL     1       1.031  14.255  19.246  0.00  0.00    +0.000 N 
ATOM      5  C   UNL     1       2.333  14.558  18.898  0.00  0.00    +0.000 A 
ATOM      6  C   UNL     1       2.784  15.267  20.011  0.00  0.00    +0.000 A 
ATOM      7  C   UNL     1       4.286  15.009  20.071  0.00  0.00    +0.000 C 
ATOM      8  C   UNL     1       5.137  14.884  21.333  0.00  0.00    +0.000 A 
ATOM      9  C   UNL     1       4.980  13.789  22.235  0.00  0.00    +0.000 A 
ATOM     10  C   UNL     1       6.108  13.256  22.976  0.00  0.00    +0.000 A 
ATOM     11  C   UNL     1       6.077  12.081  23.774  0.00  0.00    +0.000 A 
ATOM     12  C   UNL     1       7.247  11.575  24.386  0.00  0.00    +0.000 A 
ATOM     13  C   UNL     1       8.451  12.244  24.229  0.00  0.00    +0.000 A 
ATOM     14  C   UNL     1       8.469  13.411  23.459  0.00  0.00    +0.000 A 
ATOM     15  C   UNL     1       7.324  13.928  22.854  0.00  0.00    +0.000 A 
ATOM     16  N   UNL     1       7.451  15.041  22.131  0.00  0.00    +0.000 NA
ATOM     17  C   UNL     1       6.396  15.500  21.387  0.00  0.00    +0.000 A 
ATOM     18  S   UNL     1       6.920  16.803  20.284  0.00  0.00    +0.000 S 
ATOM     19  C   UNL     1       5.530  16.905  19.122  0.00  0.00    +0.000 C 
ATOM     20  C   UNL     1       4.994  15.514  18.821  0.00  0.00    +0.000 C 
ATOM     21  C   UNL     1       4.047  15.418  17.600  0.00  0.00    +0.000 C 
ATOM     22  O   UNL     1       3.003  14.379  17.749  0.00  0.00    +0.000 OA
ENDROOT
BRANCH   4  23
ATOM     23  C   UNL     1       0.516  12.986  19.583  0.00  0.00    +0.000 A 
ATOM     24  C   UNL     1       1.019  12.301  20.697  0.00  0.00    +0.000 A 
ATOM     25  C   UNL     1       0.726  10.948  20.859  0.00  0.00    +0.000 A 
ATOM     26  C   UNL     1      -0.048  10.280  19.905  0.00  0.00    +0.000 A 
ATOM     27  C   UNL     1      -0.569  10.983  18.818  0.00  0.00    +0.000 A 
ATOM     28 CL   UNL     1      -1.445  10.142  17.595  0.00  0.00    +0.000 Cl
ATOM     29  C   UNL     1      -0.326  12.339  18.667  0.00  0.00    +0.000 A 
ENDBRANCH   4  23
TORSDOF 1
ENDMDL
