MODEL 1
REMARK VINA RESULT:      -6.1      0.000      0.000
REMARK  Name = 
REMARK  3 active torsions:
REMARK  status: ('A' for Active; 'I' for Inactive)
REMARK    1  A    between atoms: N_1  and  N_2
REMARK    2  A    between atoms: C_3  and  C_5
REMARK    3  A    between atoms: C_13  and  N_14
REMARK                            x       y       z     vdW  Elec       q    Type
REMARK                         _______ _______ _______ _____ _____    ______ ____
ROOT
ATOM      1  C   UNL     1       5.595   4.443  17.114  0.00  0.00    +0.000 A 
ATOM      2  S   UNL     1       4.194   3.998  16.226  0.00  0.00    +0.000 S 
ATOM      3  C   UNL     1       3.255   3.851  17.633  0.00  0.00    +0.000 A 
ATOM      4  N   UNL     1       1.964   3.467  17.550  0.00  0.00    +0.000 NA
ATOM      5  C   UNL     1       1.345   3.372  18.743  0.00  0.00    +0.000 A 
ATOM      6  C   UNL     1       1.925   3.628  19.972  0.00  0.00    +0.000 A 
ATOM      7  C   UNL     1       3.260   4.028  20.009  0.00  0.00    +0.000 A 
ATOM      8  C   UNL     1       3.966   4.148  18.790  0.00  0.00    +0.000 A 
ATOM      9  C   UNL     1       5.317   4.517  18.469  0.00  0.00    +0.000 A 
ENDROOT
BRANCH   1  11
ATOM     10  N   UNL     1       6.763   5.223  15.154  0.00  0.00    +0.000 N 
ATOM     11  C   UNL     1       6.867   4.685  16.442  0.00  0.00    +0.000 C 
ATOM     12  O   UNL     1       7.960   4.408  16.936  0.00  0.00    +0.000 OA
ATOM     13  H   UNL     1       5.841   5.476  14.806  0.00  0.00    +0.000 HD
BRANCH  10  14
ATOM     14  N   UNL     1       7.910   5.528  14.393  0.00  0.00    +0.000 NA
ATOM     15  H   UNL     1       7.803   6.461  13.988  0.00  0.00    +0.000 HD
ATOM     16  H   UNL     1       7.928   4.881  13.593  0.00  0.00    +0.000 HD
ENDBRANCH  10  14
ENDBRANCH   1  11
BRANCH   9  17
ATOM     17  N   UNL     1       6.230   4.869  19.402  0.00  0.00    +0.000 N 
ATOM     18  H   UNL     1       6.332   4.376  20.284  0.00  0.00    +0.000 HD
ATOM     19  H   UNL     1       6.591   5.826  19.429  0.00  0.00    +0.000 HD
ENDBRANCH   9  17
TORSDOF 3
ENDMDL
MODEL 2
REMARK VINA RESULT:      -6.0      1.872      1.979
REMARK  Name = 
REMARK  3 active torsions:
REMARK  status: ('A' for Active; 'I' for Inactive)
REMARK    1  A    between atoms: N_1  and  N_2
REMARK    2  A    between atoms: C_3  and  C_5
REMARK    3  A    between atoms: C_13  and  N_14
REMARK                            x       y       z     vdW  Elec       q    Type
REMARK                         _______ _______ _______ _____ _____    ______ ____
ROOT
ATOM      1  C   UNL     1       5.621   5.362  17.581  0.00  0.00    +0.000 A 
ATOM      2  S   UNL     1       4.696   6.799  17.406  0.00  0.00    +0.000 S 
ATOM      3  C   UNL     1       3.620   6.346  18.640  0.00  0.00    +0.000 A 
ATOM      4  N   UNL     1       2.578   7.143  18.957  0.00  0.00    +0.000 NA
ATOM      5  C   UNL     1       1.794   6.653  19.938  0.00  0.00    +0.000 A 
ATOM      6  C   UNL     1       1.987   5.452  20.595  0.00  0.00    +0.000 A 
ATOM      7  C   UNL     1       3.080   4.664  20.238  0.00  0.00    +0.000 A 
ATOM      8  C   UNL     1       3.942   5.123  19.216  0.00  0.00    +0.000 A 
ATOM      9  C   UNL     1       5.124   4.577  18.609  0.00  0.00    +0.000 A 
ENDROOT
BRANCH   1  11
ATOM     10  N   UNL     1       6.625   5.550  15.396  0.00  0.00    +0.000 N 
ATOM     11  C   UNL     1       6.761   5.090  16.712  0.00  0.00    +0.000 C 
ATOM     12  O   UNL     1       7.761   4.471  17.075  0.00  0.00    +0.000 OA
ATOM     13  H   UNL     1       5.800   6.095  15.155  0.00  0.00    +0.000 HD
BRANCH  10  14
ATOM     14  N   UNL     1       7.655   5.376  14.450  0.00  0.00    +0.000 NA
ATOM     15  H   UNL     1       7.992   6.294  14.152  0.00  0.00    +0.000 HD
ATOM     16  H   UNL     1       7.233   4.953  13.611  0.00  0.00    +0.000 HD
ENDBRANCH  10  14
ENDBRANCH   1  11
BRANCH   9  17
ATOM     17  N   UNL     1       5.673   3.399  18.982  0.00  0.00    +0.000 N 
ATOM     18  H   UNL     1       5.773   3.125  19.954  0.00  0.00    +0.000 HD
ATOM     19  H   UNL     1       6.321   2.916  18.356  0.00  0.00    +0.000 HD
ENDBRANCH   9  17
TORSDOF 3
ENDMDL
MODEL 3
REMARK VINA RESULT:      -6.0      2.206      2.439
REMARK  Name = 
REMARK  3 active torsions:
REMARK  status: ('A' for Active; 'I' for Inactive)
REMARK    1  A    between atoms: N_1  and  N_2
REMARK    2  A    between atoms: C_3  and  C_5
REMARK    3  A    between atoms: C_13  and  N_14
REMARK                            x       y       z     vdW  Elec       q    Type
REMARK                         _______ _______ _______ _____ _____    ______ ____
ROOT
ATOM      1  C   UNL     1       4.578   5.440  17.194  0.00  0.00    +0.000 A 
ATOM      2  S   UNL     1       3.303   6.051  18.170  0.00  0.00    +0.000 S 
ATOM      3  C   UNL     1       2.640   4.505  18.404  0.00  0.00    +0.000 A 
ATOM      4  N   UNL     1       1.513   4.353  19.130  0.00  0.00    +0.000 NA
ATOM      5  C   UNL     1       1.087   3.077  19.218  0.00  0.00    +0.000 A 
ATOM      6  C   UNL     1       1.703   1.983  18.638  0.00  0.00    +0.000 A 
ATOM      7  C   UNL     1       2.869   2.188  17.901  0.00  0.00    +0.000 A 
ATOM      8  C   UNL     1       3.368   3.503  17.772  0.00  0.00    +0.000 A 
ATOM      9  C   UNL     1       4.507   4.061  17.096  0.00  0.00    +0.000 A 
ENDROOT
BRANCH   1  11
ATOM     10  N   UNL     1       6.463   6.917  17.480  0.00  0.00    +0.000 N 
ATOM     11  C   UNL     1       5.555   6.337  16.586  0.00  0.00    +0.000 C 
ATOM     12  O   UNL     1       5.574   6.609  15.385  0.00  0.00    +0.000 OA
ATOM     13  H   UNL     1       6.437   6.627  18.456  0.00  0.00    +0.000 HD
BRANCH  10  14
ATOM     14  N   UNL     1       7.477   7.788  17.033  0.00  0.00    +0.000 NA
ATOM     15  H   UNL     1       7.660   7.605  16.044  0.00  0.00    +0.000 HD
ATOM     16  H   UNL     1       8.343   7.530  17.526  0.00  0.00    +0.000 HD
ENDBRANCH  10  14
ENDBRANCH   1  11
BRANCH   9  17
ATOM     17  N   UNL     1       5.398   3.313  16.407  0.00  0.00    +0.000 N 
ATOM     18  H   UNL     1       5.120   2.641  15.699  0.00  0.00    +0.000 HD
ATOM     19  H   UNL     1       6.322   3.124  16.805  0.00  0.00    +0.000 HD
ENDBRANCH   9  17
TORSDOF 3
ENDMDL
MODEL 4
REMARK VINA RESULT:      -6.0      1.927      2.037
REMARK  Name = 
REMARK  3 active torsions:
REMARK  status: ('A' for Active; 'I' for Inactive)
REMARK    1  A    between atoms: N_1  and  N_2
REMARK    2  A    between atoms: C_3  and  C_5
REMARK    3  A    between atoms: C_13  and  N_14
REMARK                            x       y       z     vdW  Elec       q    Type
REMARK                         _______ _______ _______ _____ _____    ______ ____
ROOT
ATOM      1  C   UNL     1       4.325   5.061  17.143  0.00  0.00    +0.000 A 
ATOM      2  S   UNL     1       4.187   3.359  17.330  0.00  0.00    +0.000 S 
ATOM      3  C   UNL     1       3.015   3.511  18.549  0.00  0.00    +0.000 A 
ATOM      4  N   UNL     1       2.510   2.411  19.145  0.00  0.00    +0.000 NA
ATOM      5  C   UNL     1       1.605   2.678  20.108  0.00  0.00    +0.000 A 
ATOM      6  C   UNL     1       1.194   3.940  20.495  0.00  0.00    +0.000 A 
ATOM      7  C   UNL     1       1.739   5.047  19.847  0.00  0.00    +0.000 A 
ATOM      8  C   UNL     1       2.693   4.834  18.827  0.00  0.00    +0.000 A 
ATOM      9  C   UNL     1       3.443   5.722  17.981  0.00  0.00    +0.000 A 
ENDROOT
BRANCH   1  11
ATOM     10  N   UNL     1       6.438   4.884  15.994  0.00  0.00    +0.000 N 
ATOM     11  C   UNL     1       5.278   5.640  16.203  0.00  0.00    +0.000 C 
ATOM     12  O   UNL     1       5.114   6.729  15.653  0.00  0.00    +0.000 OA
ATOM     13  H   UNL     1       6.508   3.970  16.436  0.00  0.00    +0.000 HD
BRANCH  10  14
ATOM     14  N   UNL     1       7.438   5.310  15.097  0.00  0.00    +0.000 NA
ATOM     15  H   UNL     1       8.165   5.804  15.618  0.00  0.00    +0.000 HD
ATOM     16  H   UNL     1       7.015   6.015  14.478  0.00  0.00    +0.000 HD
ENDBRANCH  10  14
ENDBRANCH   1  11
BRANCH   9  17
ATOM     17  N   UNL     1       3.320   7.068  18.027  0.00  0.00    +0.000 N 
ATOM     18  H   UNL     1       2.866   7.603  17.294  0.00  0.00    +0.000 HD
ATOM     19  H   UNL     1       3.974   7.622  18.586  0.00  0.00    +0.000 HD
ENDBRANCH   9  17
TORSDOF 3
ENDMDL
MODEL 5
REMARK VINA RESULT:      -6.0      1.105      1.105
REMARK  Name = 
REMARK  3 active torsions:
REMARK  status: ('A' for Active; 'I' for Inactive)
REMARK    1  A    between atoms: N_1  and  N_2
REMARK    2  A    between atoms: C_3  and  C_5
REMARK    3  A    between atoms: C_13  and  N_14
REMARK                            x       y       z     vdW  Elec       q    Type
REMARK                         _______ _______ _______ _____ _____    ______ ____
ROOT
ATOM      1  C   UNL     1       5.941   4.767  16.912  0.00  0.00    +0.000 A 
ATOM      2  S   UNL     1       4.600   4.041  16.120  0.00  0.00    +0.000 S 
ATOM      3  C   UNL     1       3.985   3.413  17.573  0.00  0.00    +0.000 A 
ATOM      4  N   UNL     1       2.862   2.665  17.566  0.00  0.00    +0.000 NA
ATOM      5  C   UNL     1       2.498   2.215  18.783  0.00  0.00    +0.000 A 
ATOM      6  C   UNL     1       3.173   2.461  19.965  0.00  0.00    +0.000 A 
ATOM      7  C   UNL     1       4.325   3.245  19.924  0.00  0.00    +0.000 A 
ATOM      8  C   UNL     1       4.759   3.748  18.677  0.00  0.00    +0.000 A 
ATOM      9  C   UNL     1       5.877   4.559  18.280  0.00  0.00    +0.000 A 
ENDROOT
BRANCH   1  11
ATOM     10  N   UNL     1       7.206   4.987  14.870  0.00  0.00    +0.000 N 
ATOM     11  C   UNL     1       6.963   5.483  16.157  0.00  0.00    +0.000 C 
ATOM     12  O   UNL     1       7.605   6.430  16.612  0.00  0.00    +0.000 OA
ATOM     13  H   UNL     1       6.619   4.232  14.522  0.00  0.00    +0.000 HD
BRANCH  10  14
ATOM     14  N   UNL     1       8.152   5.592  14.019  0.00  0.00    +0.000 NA
ATOM     15  H   UNL     1       8.986   5.002  13.975  0.00  0.00    +0.000 HD
ATOM     16  H   UNL     1       8.456   6.466  14.470  0.00  0.00    +0.000 HD
ENDBRANCH  10  14
ENDBRANCH   1  11
BRANCH   9  17
ATOM     17  N   UNL     1       6.791   5.039  19.153  0.00  0.00    +0.000 N 
ATOM     18  H   UNL     1       7.352   5.863  18.961  0.00  0.00    +0.000 HD
ATOM     19  H   UNL     1       7.209   4.417  19.849  0.00  0.00    +0.000 HD
ENDBRANCH   9  17
TORSDOF 3
ENDMDL
MODEL 6
REMARK VINA RESULT:      -6.0      3.126      5.444
REMARK  Name = 
REMARK  3 active torsions:
REMARK  status: ('A' for Active; 'I' for Inactive)
REMARK    1  A    between atoms: N_1  and  N_2
REMARK    2  A    between atoms: C_3  and  C_5
REMARK    3  A    between atoms: C_13  and  N_14
REMARK                            x       y       z     vdW  Elec       q    Type
REMARK                         _______ _______ _______ _____ _____    ______ ____
ROOT
ATOM      1  C   UNL     1       2.923   3.609  18.843  0.00  0.00    +0.000 A 
ATOM      2  S   UNL     1       2.815   5.322  18.778  0.00  0.00    +0.000 S 
ATOM      3  C   UNL     1       3.934   5.420  17.504  0.00  0.00    +0.000 A 
ATOM      4  N   UNL     1       4.295   6.623  17.010  0.00  0.00    +0.000 NA
ATOM      5  C   UNL     1       5.204   6.555  16.017  0.00  0.00    +0.000 A 
ATOM      6  C   UNL     1       5.755   5.392  15.511  0.00  0.00    +0.000 A 
ATOM      7  C   UNL     1       5.348   4.172  16.049  0.00  0.00    +0.000 A 
ATOM      8  C   UNL     1       4.395   4.175  17.093  0.00  0.00    +0.000 A 
ATOM      9  C   UNL     1       3.776   3.131  17.862  0.00  0.00    +0.000 A 
ENDROOT
BRANCH   1  11
ATOM     10  N   UNL     1       2.335   3.283  21.159  0.00  0.00    +0.000 N 
ATOM     11  C   UNL     1       2.179   2.845  19.838  0.00  0.00    +0.000 C 
ATOM     12  O   UNL     1       1.489   1.862  19.565  0.00  0.00    +0.000 OA
ATOM     13  H   UNL     1       2.879   4.126  21.330  0.00  0.00    +0.000 HD
BRANCH  10  14
ATOM     14  N   UNL     1       1.660   2.653  22.224  0.00  0.00    +0.000 NA
ATOM     15  H   UNL     1       2.320   2.061  22.733  0.00  0.00    +0.000 HD
ATOM     16  H   UNL     1       0.972   2.008  21.813  0.00  0.00    +0.000 HD
ENDBRANCH  10  14
ENDBRANCH   1  11
BRANCH   9  17
ATOM     17  N   UNL     1       4.031   1.818  17.668  0.00  0.00    +0.000 N 
ATOM     18  H   UNL     1       4.957   1.416  17.775  0.00  0.00    +0.000 HD
ATOM     19  H   UNL     1       3.415   1.261  17.070  0.00  0.00    +0.000 HD
ENDBRANCH   9  17
TORSDOF 3
ENDMDL
MODEL 7
REMARK VINA RESULT:      -5.9      2.177      2.363
REMARK  Name = 
REMARK  3 active torsions:
REMARK  status: ('A' for Active; 'I' for Inactive)
REMARK    1  A    between atoms: N_1  and  N_2
REMARK    2  A    between atoms: C_3  and  C_5
REMARK    3  A    between atoms: C_13  and  N_14
REMARK                            x       y       z     vdW  Elec       q    Type
REMARK                         _______ _______ _______ _____ _____    ______ ____
ROOT
ATOM      1  C   UNL     1       4.349   5.458  17.149  0.00  0.00    +0.000 A 
ATOM      2  S   UNL     1       4.467   3.766  16.877  0.00  0.00    +0.000 S 
ATOM      3  C   UNL     1       3.133   3.436  17.875  0.00  0.00    +0.000 A 
ATOM      4  N   UNL     1       2.738   2.162  18.080  0.00  0.00    +0.000 NA
ATOM      5  C   UNL     1       1.681   2.044  18.907  0.00  0.00    +0.000 A 
ATOM      6  C   UNL     1       1.020   3.093  19.521  0.00  0.00    +0.000 A 
ATOM      7  C   UNL     1       1.459   4.393  19.274  0.00  0.00    +0.000 A 
ATOM      8  C   UNL     1       2.564   4.584  18.414  0.00  0.00    +0.000 A 
ATOM      9  C   UNL     1       3.266   5.753  17.960  0.00  0.00    +0.000 A 
ENDROOT
BRANCH   1  11
ATOM     10  N   UNL     1       6.360   6.763  17.410  0.00  0.00    +0.000 N 
ATOM     11  C   UNL     1       5.313   6.383  16.563  0.00  0.00    +0.000 C 
ATOM     12  O   UNL     1       5.211   6.839  15.423  0.00  0.00    +0.000 OA
ATOM     13  H   UNL     1       6.426   6.325  18.327  0.00  0.00    +0.000 HD
BRANCH  10  14
ATOM     14  N   UNL     1       7.377   7.636  16.973  0.00  0.00    +0.000 NA
ATOM     15  H   UNL     1       7.673   7.358  16.035  0.00  0.00    +0.000 HD
ATOM     16  H   UNL     1       8.195   7.481  17.577  0.00  0.00    +0.000 HD
ENDBRANCH  10  14
ENDBRANCH   1  11
BRANCH   9  17
ATOM     17  N   UNL     1       2.920   7.010  18.318  0.00  0.00    +0.000 N 
ATOM     18  H   UNL     1       3.569   7.789  18.279  0.00  0.00    +0.000 HD
ATOM     19  H   UNL     1       2.145   7.161  18.968  0.00  0.00    +0.000 HD
ENDBRANCH   9  17
TORSDOF 3
ENDMDL
MODEL 8
REMARK VINA RESULT:      -5.9      2.955      5.332
REMARK  Name = 
REMARK  3 active torsions:
REMARK  status: ('A' for Active; 'I' for Inactive)
REMARK    1  A    between atoms: N_1  and  N_2
REMARK    2  A    between atoms: C_3  and  C_5
REMARK    3  A    between atoms: C_13  and  N_14
REMARK                            x       y       z     vdW  Elec       q    Type
REMARK                         _______ _______ _______ _____ _____    ______ ____
ROOT
ATOM      1  C   UNL     1       3.708   3.668  19.426  0.00  0.00    +0.000 A 
ATOM      2  S   UNL     1       3.756   5.385  19.440  0.00  0.00    +0.000 S 
ATOM      3  C   UNL     1       4.374   5.456  17.860  0.00  0.00    +0.000 A 
ATOM      4  N   UNL     1       4.660   6.648  17.297  0.00  0.00    +0.000 NA
ATOM      5  C   UNL     1       5.162   6.557  16.049  0.00  0.00    +0.000 A 
ATOM      6  C   UNL     1       5.387   5.380  15.358  0.00  0.00    +0.000 A 
ATOM      7  C   UNL     1       5.070   4.172  15.978  0.00  0.00    +0.000 A 
ATOM      8  C   UNL     1       4.539   4.200  17.287  0.00  0.00    +0.000 A 
ATOM      9  C   UNL     1       4.121   3.173  18.200  0.00  0.00    +0.000 A 
ENDROOT
BRANCH   1  11
ATOM     10  N   UNL     1       1.992   3.221  21.061  0.00  0.00    +0.000 N 
ATOM     11  C   UNL     1       3.279   2.917  20.602  0.00  0.00    +0.000 C 
ATOM     12  O   UNL     1       3.993   2.102  21.185  0.00  0.00    +0.000 OA
ATOM     13  H   UNL     1       1.423   3.869  20.520  0.00  0.00    +0.000 HD
BRANCH  10  14
ATOM     14  N   UNL     1       1.436   2.560  22.175  0.00  0.00    +0.000 NA
ATOM     15  H   UNL     1       1.887   2.905  23.025  0.00  0.00    +0.000 HD
ATOM     16  H   UNL     1       1.702   1.568  22.107  0.00  0.00    +0.000 HD
ENDBRANCH  10  14
ENDBRANCH   1  11
BRANCH   9  17
ATOM     17  N   UNL     1       4.161   1.855  17.901  0.00  0.00    +0.000 N 
ATOM     18  H   UNL     1       4.604   1.168  18.504  0.00  0.00    +0.000 HD
ATOM     19  H   UNL     1       4.083   1.549  16.928  0.00  0.00    +0.000 HD
ENDBRANCH   9  17
TORSDOF 3
ENDMDL
MODEL 9
REMARK VINA RESULT:      -5.9      2.055      2.269
REMARK  Name = 
REMARK  3 active torsions:
REMARK  status: ('A' for Active; 'I' for Inactive)
REMARK    1  A    between atoms: N_1  and  N_2
REMARK    2  A    between atoms: C_3  and  C_5
REMARK    3  A    between atoms: C_13  and  N_14
REMARK                            x       y       z     vdW  Elec       q    Type
REMARK                         _______ _______ _______ _____ _____    ______ ____
ROOT
ATOM      1  C   UNL     1       5.124   4.414  18.981  0.00  0.00    +0.000 A 
ATOM      2  S   UNL     1       4.019   5.729  19.007  0.00  0.00    +0.000 S 
ATOM      3  C   UNL     1       2.794   4.785  19.708  0.00  0.00    +0.000 A 
ATOM      4  N   UNL     1       1.582   5.323  19.958  0.00  0.00    +0.000 NA
ATOM      5  C   UNL     1       0.701   4.457  20.496  0.00  0.00    +0.000 A 
ATOM      6  C   UNL     1       0.954   3.129  20.785  0.00  0.00    +0.000 A 
ATOM      7  C   UNL     1       2.222   2.618  20.515  0.00  0.00    +0.000 A 
ATOM      8  C   UNL     1       3.193   3.476  19.951  0.00  0.00    +0.000 A 
ATOM      9  C   UNL     1       4.559   3.284  19.548  0.00  0.00    +0.000 A 
ENDROOT
BRANCH   1  11
ATOM     10  N   UNL     1       6.550   4.297  17.039  0.00  0.00    +0.000 N 
ATOM     11  C   UNL     1       6.458   4.564  18.410  0.00  0.00    +0.000 C 
ATOM     12  O   UNL     1       7.452   4.864  19.074  0.00  0.00    +0.000 OA
ATOM     13  H   UNL     1       5.694   4.097  16.525  0.00  0.00    +0.000 HD
BRANCH  10  14
ATOM     14  N   UNL     1       7.772   4.421  16.348  0.00  0.00    +0.000 NA
ATOM     15  H   UNL     1       7.930   5.405  16.124  0.00  0.00    +0.000 HD
ATOM     16  H   UNL     1       7.662   3.946  15.442  0.00  0.00    +0.000 HD
ENDBRANCH  10  14
ENDBRANCH   1  11
BRANCH   9  17
ATOM     17  N   UNL     1       5.213   2.108  19.681  0.00  0.00    +0.000 N 
ATOM     18  H   UNL     1       5.122   1.519  20.503  0.00  0.00    +0.000 HD
ATOM     19  H   UNL     1       6.074   1.940  19.155  0.00  0.00    +0.000 HD
ENDBRANCH   9  17
TORSDOF 3
ENDMDL
