MODEL 1
REMARK VINA RESULT:      -7.8      0.000      0.000
REMARK  Name = 
REMARK  2 active torsions:
REMARK  status: ('A' for Active; 'I' for Inactive)
REMARK    1  A    between atoms: C_2  and  C_13
REMARK    2  A    between atoms: N_3  and  C_4
REMARK                            x       y       z     vdW  Elec       q    Type
REMARK                         _______ _______ _______ _____ _____    ______ ____
ROOT
ATOM      1  O   UNL     1       2.605   3.108  16.833  0.00  0.00    +0.000 OA
ATOM      2  C   UNL     1       3.067   3.636  17.838  0.00  0.00    +0.000 C 
ATOM      3  N   UNL     1       4.105   4.555  17.818  0.00  0.00    +0.000 N 
ATOM      4  H   UNL     1       4.589   4.758  18.680  0.00  0.00    +0.000 HD
ENDROOT
BRANCH   3   5
ATOM      5  C   UNL     1       4.680   4.991  16.555  0.00  0.00    +0.000 C 
ATOM      6  C   UNL     1       5.023   6.483  16.560  0.00  0.00    +0.000 C 
ATOM      7  C   UNL     1       6.511   6.830  16.662  0.00  0.00    +0.000 C 
ATOM      8  C   UNL     1       7.082   6.793  18.084  0.00  0.00    +0.000 C 
ATOM      9  C   UNL     1       7.488   5.418  18.604  0.00  0.00    +0.000 C 
ATOM     10  C   UNL     1       7.900   4.419  17.528  0.00  0.00    +0.000 C 
ATOM     11  C   UNL     1       7.227   4.603  16.166  0.00  0.00    +0.000 C 
ATOM     12  C   UNL     1       5.798   4.059  16.070  0.00  0.00    +0.000 C 
ATOM     13  N   UNL     1       7.303   6.003  15.754  0.00  0.00    +0.000 NA
ATOM     14  H   UNL     1       6.947   6.098  14.803  0.00  0.00    +0.000 HD
ENDBRANCH   3   5
BRANCH   2  15
ATOM     15  C   UNL     1       2.519   3.291  19.171  0.00  0.00    +0.000 A 
ATOM     16  C   UNL     1       1.159   3.502  19.420  0.00  0.00    +0.000 A 
ATOM     17  C   UNL     1       0.622   3.214  20.670  0.00  0.00    +0.000 A 
ATOM     18  C   UNL     1       1.449   2.726  21.689  0.00  0.00    +0.000 A 
ATOM     19  C   UNL     1       2.807   2.535  21.453  0.00  0.00    +0.000 A 
ATOM     20  C   UNL     1       3.349   2.816  20.200  0.00  0.00    +0.000 A 
ENDBRANCH   2  15
TORSDOF 2
ENDMDL
MODEL 2
REMARK VINA RESULT:      -7.8      2.665      6.409
REMARK  Name = 
REMARK  2 active torsions:
REMARK  status: ('A' for Active; 'I' for Inactive)
REMARK    1  A    between atoms: C_2  and  C_13
REMARK    2  A    between atoms: N_3  and  C_4
REMARK                            x       y       z     vdW  Elec       q    Type
REMARK                         _______ _______ _______ _____ _____    ______ ____
ROOT
ATOM      1  O   UNL     1       7.370   5.958  16.245  0.00  0.00    +0.000 OA
ATOM      2  C   UNL     1       6.475   5.300  15.725  0.00  0.00    +0.000 C 
ATOM      3  N   UNL     1       5.305   4.941  16.377  0.00  0.00    +0.000 N 
ATOM      4  H   UNL     1       4.735   4.208  15.981  0.00  0.00    +0.000 HD
ENDROOT
BRANCH   3   5
ATOM      5  C   UNL     1       5.051   5.388  17.738  0.00  0.00    +0.000 C 
ATOM      6  C   UNL     1       3.696   6.089  17.873  0.00  0.00    +0.000 C 
ATOM      7  C   UNL     1       2.594   5.291  18.575  0.00  0.00    +0.000 C 
ATOM      8  C   UNL     1       1.871   4.276  17.683  0.00  0.00    +0.000 C 
ATOM      9  C   UNL     1       2.567   2.930  17.502  0.00  0.00    +0.000 C 
ATOM     10  C   UNL     1       3.465   2.511  18.660  0.00  0.00    +0.000 C 
ATOM     11  C   UNL     1       4.110   3.657  19.443  0.00  0.00    +0.000 C 
ATOM     12  C   UNL     1       5.334   4.292  18.774  0.00  0.00    +0.000 C 
ATOM     13  N   UNL     1       3.101   4.657  19.790  0.00  0.00    +0.000 NA
ATOM     14  H   UNL     1       3.517   5.362  20.399  0.00  0.00    +0.000 HD
ENDBRANCH   3   5
BRANCH   2  15
ATOM     15  C   UNL     1       6.619   4.834  14.327  0.00  0.00    +0.000 A 
ATOM     16  C   UNL     1       5.767   3.830  13.855  0.00  0.00    +0.000 A 
ATOM     17  C   UNL     1       5.897   3.352  12.554  0.00  0.00    +0.000 A 
ATOM     18  C   UNL     1       6.895   3.868  11.720  0.00  0.00    +0.000 A 
ATOM     19  C   UNL     1       7.760   4.852  12.191  0.00  0.00    +0.000 A 
ATOM     20  C   UNL     1       7.629   5.337  13.491  0.00  0.00    +0.000 A 
ENDBRANCH   2  15
TORSDOF 2
ENDMDL
MODEL 3
REMARK VINA RESULT:      -7.8      2.657      6.455
REMARK  Name = 
REMARK  2 active torsions:
REMARK  status: ('A' for Active; 'I' for Inactive)
REMARK    1  A    between atoms: C_2  and  C_13
REMARK    2  A    between atoms: N_3  and  C_4
REMARK                            x       y       z     vdW  Elec       q    Type
REMARK                         _______ _______ _______ _____ _____    ______ ____
ROOT
ATOM      1  O   UNL     1       7.395   6.004  16.286  0.00  0.00    +0.000 OA
ATOM      2  C   UNL     1       6.512   5.318  15.783  0.00  0.00    +0.000 C 
ATOM      3  N   UNL     1       5.345   4.960  16.441  0.00  0.00    +0.000 N 
ATOM      4  H   UNL     1       4.788   4.208  16.065  0.00  0.00    +0.000 HD
ENDROOT
BRANCH   3   5
ATOM      5  C   UNL     1       5.079   5.443  17.788  0.00  0.00    +0.000 C 
ATOM      6  C   UNL     1       3.746   6.189  17.883  0.00  0.00    +0.000 C 
ATOM      7  C   UNL     1       2.605   5.442  18.577  0.00  0.00    +0.000 C 
ATOM      8  C   UNL     1       1.866   4.433  17.691  0.00  0.00    +0.000 C 
ATOM      9  C   UNL     1       2.521   3.062  17.550  0.00  0.00    +0.000 C 
ATOM     10  C   UNL     1       3.383   2.637  18.734  0.00  0.00    +0.000 C 
ATOM     11  C   UNL     1       4.050   3.777  19.507  0.00  0.00    +0.000 C 
ATOM     12  C   UNL     1       5.306   4.359  18.851  0.00  0.00    +0.000 C 
ATOM     13  N   UNL     1       3.068   4.816  19.814  0.00  0.00    +0.000 NA
ATOM     14  H   UNL     1       3.494   5.520  20.418  0.00  0.00    +0.000 HD
ENDBRANCH   3   5
BRANCH   2  15
ATOM     15  C   UNL     1       6.668   4.814  14.399  0.00  0.00    +0.000 A 
ATOM     16  C   UNL     1       7.647   5.382  13.577  0.00  0.00    +0.000 A 
ATOM     17  C   UNL     1       7.799   4.949  12.264  0.00  0.00    +0.000 A 
ATOM     18  C   UNL     1       6.956   3.953  11.757  0.00  0.00    +0.000 A 
ATOM     19  C   UNL     1       5.965   3.400  12.563  0.00  0.00    +0.000 A 
ATOM     20  C   UNL     1       5.814   3.826  13.882  0.00  0.00    +0.000 A 
ENDBRANCH   2  15
TORSDOF 2
ENDMDL
MODEL 4
REMARK VINA RESULT:      -7.7      3.406      5.449
REMARK  Name = 
REMARK  2 active torsions:
REMARK  status: ('A' for Active; 'I' for Inactive)
REMARK    1  A    between atoms: C_2  and  C_13
REMARK    2  A    between atoms: N_3  and  C_4
REMARK                            x       y       z     vdW  Elec       q    Type
REMARK                         _______ _______ _______ _____ _____    ______ ____
ROOT
ATOM      1  O   UNL     1       4.062   7.225  17.406  0.00  0.00    +0.000 OA
ATOM      2  C   UNL     1       3.118   6.905  18.121  0.00  0.00    +0.000 C 
ATOM      3  N   UNL     1       2.810   5.593  18.447  0.00  0.00    +0.000 N 
ATOM      4  H   UNL     1       1.897   5.391  18.828  0.00  0.00    +0.000 HD
ENDROOT
BRANCH   3   5
ATOM      5  C   UNL     1       3.650   4.500  17.984  0.00  0.00    +0.000 C 
ATOM      6  C   UNL     1       4.551   3.953  19.094  0.00  0.00    +0.000 C 
ATOM      7  C   UNL     1       4.151   2.595  19.677  0.00  0.00    +0.000 C 
ATOM      8  C   UNL     1       3.045   2.654  20.737  0.00  0.00    +0.000 C 
ATOM      9  C   UNL     1       1.616   2.716  20.208  0.00  0.00    +0.000 C 
ATOM     10  C   UNL     1       1.408   2.074  18.840  0.00  0.00    +0.000 C 
ATOM     11  C   UNL     1       2.619   2.108  17.905  0.00  0.00    +0.000 C 
ATOM     12  C   UNL     1       2.856   3.447  17.199  0.00  0.00    +0.000 C 
ATOM     13  N   UNL     1       3.813   1.650  18.615  0.00  0.00    +0.000 NA
ATOM     14  H   UNL     1       4.591   1.576  17.959  0.00  0.00    +0.000 HD
ENDBRANCH   3   5
BRANCH   2  15
ATOM     15  C   UNL     1       2.228   7.949  18.679  0.00  0.00    +0.000 A 
ATOM     16  C   UNL     1       1.822   9.005  17.855  0.00  0.00    +0.000 A 
ATOM     17  C   UNL     1       1.009  10.016  18.360  0.00  0.00    +0.000 A 
ATOM     18  C   UNL     1       0.610   9.985  19.701  0.00  0.00    +0.000 A 
ATOM     19  C   UNL     1       1.029   8.948  20.530  0.00  0.00    +0.000 A 
ATOM     20  C   UNL     1       1.839   7.930  20.028  0.00  0.00    +0.000 A 
ENDBRANCH   2  15
TORSDOF 2
ENDMDL
MODEL 5
REMARK VINA RESULT:      -7.7      3.434      5.674
REMARK  Name = 
REMARK  2 active torsions:
REMARK  status: ('A' for Active; 'I' for Inactive)
REMARK    1  A    between atoms: C_2  and  C_13
REMARK    2  A    between atoms: N_3  and  C_4
REMARK                            x       y       z     vdW  Elec       q    Type
REMARK                         _______ _______ _______ _____ _____    ______ ____
ROOT
ATOM      1  O   UNL     1       3.971   7.200  17.400  0.00  0.00    +0.000 OA
ATOM      2  C   UNL     1       3.032   6.958  18.150  0.00  0.00    +0.000 C 
ATOM      3  N   UNL     1       2.670   5.679  18.544  0.00  0.00    +0.000 N 
ATOM      4  H   UNL     1       1.759   5.537  18.954  0.00  0.00    +0.000 HD
ENDROOT
BRANCH   3   5
ATOM      5  C   UNL     1       3.447   4.526  18.113  0.00  0.00    +0.000 C 
ATOM      6  C   UNL     1       4.261   3.917  19.257  0.00  0.00    +0.000 C 
ATOM      7  C   UNL     1       3.741   2.593  19.822  0.00  0.00    +0.000 C 
ATOM      8  C   UNL     1       2.602   2.734  20.837  0.00  0.00    +0.000 C 
ATOM      9  C   UNL     1       1.203   2.898  20.252  0.00  0.00    +0.000 C 
ATOM     10  C   UNL     1       1.003   2.271  18.877  0.00  0.00    +0.000 C 
ATOM     11  C   UNL     1       2.250   2.216  17.990  0.00  0.00    +0.000 C 
ATOM     12  C   UNL     1       2.611   3.533  17.296  0.00  0.00    +0.000 C 
ATOM     13  N   UNL     1       3.378   1.673  18.746  0.00  0.00    +0.000 NA
ATOM     14  H   UNL     1       4.174   1.542  18.121  0.00  0.00    +0.000 HD
ENDBRANCH   3   5
BRANCH   2  15
ATOM     15  C   UNL     1       2.206   8.068  18.679  0.00  0.00    +0.000 A 
ATOM     16  C   UNL     1       1.782   8.022  20.012  0.00  0.00    +0.000 A 
ATOM     17  C   UNL     1       0.982   9.037  20.529  0.00  0.00    +0.000 A 
ATOM     18  C   UNL     1       0.585  10.098  19.708  0.00  0.00    +0.000 A 
ATOM     19  C   UNL     1       0.986  10.137  18.376  0.00  0.00    +0.000 A 
ATOM     20  C   UNL     1       1.793   9.127  17.855  0.00  0.00    +0.000 A 
ENDBRANCH   2  15
TORSDOF 2
ENDMDL
MODEL 6
REMARK VINA RESULT:      -7.7      1.642      6.098
REMARK  Name = 
REMARK  2 active torsions:
REMARK  status: ('A' for Active; 'I' for Inactive)
REMARK    1  A    between atoms: C_2  and  C_13
REMARK    2  A    between atoms: N_3  and  C_4
REMARK                            x       y       z     vdW  Elec       q    Type
REMARK                         _______ _______ _______ _____ _____    ______ ____
ROOT
ATOM      1  O   UNL     1       5.024   4.496  15.914  0.00  0.00    +0.000 OA
ATOM      2  C   UNL     1       5.157   4.720  17.112  0.00  0.00    +0.000 C 
ATOM      3  N   UNL     1       4.345   4.172  18.093  0.00  0.00    +0.000 N 
ATOM      4  H   UNL     1       4.354   4.583  19.015  0.00  0.00    +0.000 HD
ENDROOT
BRANCH   3   5
ATOM      5  C   UNL     1       3.293   3.230  17.740  0.00  0.00    +0.000 C 
ATOM      6  C   UNL     1       3.357   1.951  18.579  0.00  0.00    +0.000 C 
ATOM      7  C   UNL     1       2.288   1.805  19.665  0.00  0.00    +0.000 C 
ATOM      8  C   UNL     1       2.590   2.557  20.966  0.00  0.00    +0.000 C 
ATOM      9  C   UNL     1       2.231   4.040  20.978  0.00  0.00    +0.000 C 
ATOM     10  C   UNL     1       1.088   4.433  20.050  0.00  0.00    +0.000 C 
ATOM     11  C   UNL     1       0.935   3.574  18.792  0.00  0.00    +0.000 C 
ATOM     12  C   UNL     1       1.915   3.899  17.660  0.00  0.00    +0.000 C 
ATOM     13  N   UNL     1       0.967   2.156  19.147  0.00  0.00    +0.000 NA
ATOM     14  H   UNL     1       0.760   1.594  18.322  0.00  0.00    +0.000 HD
ENDBRANCH   3   5
BRANCH   2  15
ATOM     15  C   UNL     1       6.228   5.632  17.577  0.00  0.00    +0.000 A 
ATOM     16  C   UNL     1       7.019   5.248  18.666  0.00  0.00    +0.000 A 
ATOM     17  C   UNL     1       8.014   6.096  19.143  0.00  0.00    +0.000 A 
ATOM     18  C   UNL     1       8.214   7.344  18.542  0.00  0.00    +0.000 A 
ATOM     19  C   UNL     1       7.414   7.740  17.473  0.00  0.00    +0.000 A 
ATOM     20  C   UNL     1       6.420   6.892  16.987  0.00  0.00    +0.000 A 
ENDBRANCH   2  15
TORSDOF 2
ENDMDL
MODEL 7
REMARK VINA RESULT:      -7.6      1.661      6.067
REMARK  Name = 
REMARK  2 active torsions:
REMARK  status: ('A' for Active; 'I' for Inactive)
REMARK    1  A    between atoms: C_2  and  C_13
REMARK    2  A    between atoms: N_3  and  C_4
REMARK                            x       y       z     vdW  Elec       q    Type
REMARK                         _______ _______ _______ _____ _____    ______ ____
ROOT
ATOM      1  O   UNL     1       4.887   4.640  15.982  0.00  0.00    +0.000 OA
ATOM      2  C   UNL     1       5.031   4.836  17.184  0.00  0.00    +0.000 C 
ATOM      3  N   UNL     1       4.212   4.285  18.158  0.00  0.00    +0.000 N 
ATOM      4  H   UNL     1       4.235   4.676  19.088  0.00  0.00    +0.000 HD
ENDROOT
BRANCH   3   5
ATOM      5  C   UNL     1       3.139   3.374  17.791  0.00  0.00    +0.000 C 
ATOM      6  C   UNL     1       3.216   2.051  18.558  0.00  0.00    +0.000 C 
ATOM      7  C   UNL     1       2.182   1.857  19.670  0.00  0.00    +0.000 C 
ATOM      8  C   UNL     1       2.536   2.535  20.998  0.00  0.00    +0.000 C 
ATOM      9  C   UNL     1       2.196   4.018  21.102  0.00  0.00    +0.000 C 
ATOM     10  C   UNL     1       1.026   4.471  20.236  0.00  0.00    +0.000 C 
ATOM     11  C   UNL     1       0.821   3.683  18.941  0.00  0.00    +0.000 C 
ATOM     12  C   UNL     1       1.766   4.059  17.795  0.00  0.00    +0.000 C 
ATOM     13  N   UNL     1       0.849   2.248  19.218  0.00  0.00    +0.000 NA
ATOM     14  H   UNL     1       0.607   1.733  18.371  0.00  0.00    +0.000 HD
ENDBRANCH   3   5
BRANCH   2  15
ATOM     15  C   UNL     1       6.124   5.714  17.662  0.00  0.00    +0.000 A 
ATOM     16  C   UNL     1       6.357   6.926  17.004  0.00  0.00    +0.000 A 
ATOM     17  C   UNL     1       7.395   7.758  17.413  0.00  0.00    +0.000 A 
ATOM     18  C   UNL     1       8.219   7.373  18.477  0.00  0.00    +0.000 A 
ATOM     19  C   UNL     1       8.005   6.158  19.121  0.00  0.00    +0.000 A 
ATOM     20  C   UNL     1       6.963   5.324  18.719  0.00  0.00    +0.000 A 
ENDBRANCH   2  15
TORSDOF 2
ENDMDL
MODEL 8
REMARK VINA RESULT:      -7.6      0.261      1.164
REMARK  Name = 
REMARK  2 active torsions:
REMARK  status: ('A' for Active; 'I' for Inactive)
REMARK    1  A    between atoms: C_2  and  C_13
REMARK    2  A    between atoms: N_3  and  C_4
REMARK                            x       y       z     vdW  Elec       q    Type
REMARK                         _______ _______ _______ _____ _____    ______ ____
ROOT
ATOM      1  O   UNL     1       2.116   3.619  16.832  0.00  0.00    +0.000 OA
ATOM      2  C   UNL     1       2.839   3.792  17.807  0.00  0.00    +0.000 C 
ATOM      3  N   UNL     1       4.118   4.322  17.732  0.00  0.00    +0.000 N 
ATOM      4  H   UNL     1       4.736   4.210  18.522  0.00  0.00    +0.000 HD
ENDROOT
BRANCH   3   5
ATOM      5  C   UNL     1       4.663   4.760  16.456  0.00  0.00    +0.000 C 
ATOM      6  C   UNL     1       4.908   6.271  16.420  0.00  0.00    +0.000 C 
ATOM      7  C   UNL     1       6.370   6.716  16.508  0.00  0.00    +0.000 C 
ATOM      8  C   UNL     1       6.944   6.754  17.929  0.00  0.00    +0.000 C 
ATOM      9  C   UNL     1       7.439   5.423  18.485  0.00  0.00    +0.000 C 
ATOM     10  C   UNL     1       7.914   4.424  17.436  0.00  0.00    +0.000 C 
ATOM     11  C   UNL     1       7.229   4.527  16.071  0.00  0.00    +0.000 C 
ATOM     12  C   UNL     1       5.838   3.889  15.993  0.00  0.00    +0.000 C 
ATOM     13  N   UNL     1       7.213   5.918  15.621  0.00  0.00    +0.000 NA
ATOM     14  H   UNL     1       6.851   5.963  14.668  0.00  0.00    +0.000 HD
ENDBRANCH   3   5
BRANCH   2  15
ATOM     15  C   UNL     1       2.359   3.419  19.157  0.00  0.00    +0.000 A 
ATOM     16  C   UNL     1       3.292   3.041  20.128  0.00  0.00    +0.000 A 
ATOM     17  C   UNL     1       2.869   2.658  21.397  0.00  0.00    +0.000 A 
ATOM     18  C   UNL     1       1.502   2.635  21.699  0.00  0.00    +0.000 A 
ATOM     19  C   UNL     1       0.568   2.990  20.730  0.00  0.00    +0.000 A 
ATOM     20  C   UNL     1       0.988   3.380  19.459  0.00  0.00    +0.000 A 
ENDBRANCH   2  15
TORSDOF 2
ENDMDL
MODEL 9
REMARK VINA RESULT:      -7.4      2.511      6.331
REMARK  Name = 
REMARK  2 active torsions:
REMARK  status: ('A' for Active; 'I' for Inactive)
REMARK    1  A    between atoms: C_2  and  C_13
REMARK    2  A    between atoms: N_3  and  C_4
REMARK                            x       y       z     vdW  Elec       q    Type
REMARK                         _______ _______ _______ _____ _____    ______ ____
ROOT
ATOM      1  O   UNL     1       7.582   5.087  17.050  0.00  0.00    +0.000 OA
ATOM      2  C   UNL     1       6.649   4.566  16.449  0.00  0.00    +0.000 C 
ATOM      3  N   UNL     1       5.509   4.079  17.070  0.00  0.00    +0.000 N 
ATOM      4  H   UNL     1       4.906   3.456  16.555  0.00  0.00    +0.000 HD
ENDROOT
BRANCH   3   5
ATOM      5  C   UNL     1       5.336   4.215  18.508  0.00  0.00    +0.000 C 
ATOM      6  C   UNL     1       4.786   5.590  18.897  0.00  0.00    +0.000 C 
ATOM      7  C   UNL     1       3.318   5.630  19.327  0.00  0.00    +0.000 C 
ATOM      8  C   UNL     1       2.312   5.662  18.171  0.00  0.00    +0.000 C 
ATOM      9  C   UNL     1       1.970   4.313  17.546  0.00  0.00    +0.000 C 
ATOM     10  C   UNL     1       2.105   3.118  18.481  0.00  0.00    +0.000 C 
ATOM     11  C   UNL     1       3.163   3.256  19.579  0.00  0.00    +0.000 C 
ATOM     12  C   UNL     1       4.606   3.014  19.123  0.00  0.00    +0.000 C 
ATOM     13  N   UNL     1       3.017   4.543  20.257  0.00  0.00    +0.000 NA
ATOM     14  H   UNL     1       3.654   4.583  21.052  0.00  0.00    +0.000 HD
ENDBRANCH   3   5
BRANCH   2  15
ATOM     15  C   UNL     1       6.710   4.421  14.976  0.00  0.00    +0.000 A 
ATOM     16  C   UNL     1       7.643   5.177  14.258  0.00  0.00    +0.000 A 
ATOM     17  C   UNL     1       7.704   5.083  12.871  0.00  0.00    +0.000 A 
ATOM     18  C   UNL     1       6.818   4.240  12.190  0.00  0.00    +0.000 A 
ATOM     19  C   UNL     1       5.874   3.502  12.898  0.00  0.00    +0.000 A 
ATOM     20  C   UNL     1       5.812   3.588  14.288  0.00  0.00    +0.000 A 
ENDBRANCH   2  15
TORSDOF 2
ENDMDL
