MODEL 1
REMARK VINA RESULT:      -8.1      0.000      0.000
REMARK  Name = 
REMARK  8 active torsions:
REMARK  status: ('A' for Active; 'I' for Inactive)
REMARK    1  A    between atoms: C_2  and  C_11
REMARK    2  A    between atoms: N_3  and  C_4
REMARK    3  A    between atoms: C_4  and  C_5
REMARK    4  A    between atoms: C_16  and  N_17
REMARK    5  A    between atoms: N_17  and  C_18
REMARK    6  A    between atoms: C_18  and  C_19
REMARK    7  A    between atoms: C_24  and  O_25
REMARK    8  A    between atoms: O_25  and  C_26
REMARK                            x       y       z     vdW  Elec       q    Type
REMARK                         _______ _______ _______ _____ _____    ______ ____
ROOT
ATOM      1  N   UNL     1       4.482   6.938  17.682  0.00  0.00    +0.000 N 
ATOM      2  H   UNL     1       4.905   7.137  18.592  0.00  0.00    +0.000 HD
ENDROOT
BRANCH   1   8
ATOM      3  C   UNL     1       5.802   4.904  17.277  0.00  0.00    +0.000 A 
ATOM      4  N   UNL     1       6.627   4.138  16.487  0.00  0.00    +0.000 NA
ATOM      5  C   UNL     1       6.862   4.633  15.255  0.00  0.00    +0.000 A 
ATOM      6  C   UNL     1       6.308   5.821  14.819  0.00  0.00    +0.000 A 
ATOM      7  N   UNL     1       5.511   6.584  15.602  0.00  0.00    +0.000 NA
ATOM      8  C   UNL     1       5.238   6.125  16.853  0.00  0.00    +0.000 A 
BRANCH   3  10
ATOM      9  O   UNL     1       5.783   4.990  19.683  0.00  0.00    +0.000 OA
ATOM     10  C   UNL     1       5.575   4.351  18.659  0.00  0.00    +0.000 C 
ATOM     11  N   UNL     1       5.079   3.058  18.684  0.00  0.00    +0.000 N 
ATOM     12  H   UNL     1       4.789   2.667  17.791  0.00  0.00    +0.000 HD
BRANCH  11  13
ATOM     13  C   UNL     1       4.681   2.429  19.920  0.00  0.00    +0.000 C 
BRANCH  13  14
ATOM     14  C   UNL     1       3.210   2.573  20.173  0.00  0.00    +0.000 A 
ATOM     15  C   UNL     1       2.704   2.744  21.466  0.00  0.00    +0.000 A 
ATOM     16  C   UNL     1       1.332   2.876  21.662  0.00  0.00    +0.000 A 
ATOM     17  C   UNL     1       0.506   2.838  20.551  0.00  0.00    +0.000 A 
ATOM     18  N   UNL     1       0.956   2.691  19.287  0.00  0.00    +0.000 NA
ATOM     19  C   UNL     1       2.294   2.567  19.127  0.00  0.00    +0.000 A 
ENDBRANCH  13  14
ENDBRANCH  11  13
ENDBRANCH   3  10
ENDBRANCH   1   8
BRANCH   1  20
ATOM     20  C   UNL     1       3.032   6.774  17.701  0.00  0.00    +0.000 C 
BRANCH  20  21
ATOM     21  C   UNL     1       2.500   6.858  19.140  0.00  0.00    +0.000 C 
ATOM     22  O   UNL     1       2.524   5.867  19.875  0.00  0.00    +0.000 OA
ATOM     23  N   UNL     1       1.966   8.075  19.558  0.00  0.00    +0.000 N 
ATOM     24  C   UNL     1       1.608   8.234  20.959  0.00  0.00    +0.000 C 
ATOM     25  C   UNL     1       0.154   8.655  21.077  0.00  0.00    +0.000 C 
ATOM     26  C   UNL     1      -0.114   9.966  20.324  0.00  0.00    +0.000 C 
ATOM     27  C   UNL     1       0.366   9.831  18.866  0.00  0.00    +0.000 C 
ATOM     28  C   UNL     1       1.787   9.275  18.741  0.00  0.00    +0.000 C 
BRANCH  26  29
ATOM     29  O   UNL     1       0.572  11.070  20.930  0.00  0.00    +0.000 OA
BRANCH  29  30
ATOM     30  C   UNL     1      -0.179  11.960  21.666  0.00  0.00    +0.000 A 
ATOM     31  C   UNL     1      -1.242  11.574  22.490  0.00  0.00    +0.000 A 
ATOM     32  C   UNL     1      -1.918  12.505  23.282  0.00  0.00    +0.000 A 
ATOM     33  C   UNL     1      -1.555  13.847  23.243  0.00  0.00    +0.000 A 
ATOM     34  C   UNL     1      -0.508  14.256  22.416  0.00  0.00    +0.000 A 
ATOM     35  C   UNL     1       0.181  13.316  21.639  0.00  0.00    +0.000 A 
ATOM     36 CL   UNL     1       1.464  13.888  20.630  0.00  0.00    +0.000 Cl
ENDBRANCH  29  30
ENDBRANCH  26  29
ENDBRANCH  20  21
ENDBRANCH   1  20
TORSDOF 8
ENDMDL
MODEL 2
REMARK VINA RESULT:      -8.0      1.073      1.284
REMARK  Name = 
REMARK  8 active torsions:
REMARK  status: ('A' for Active; 'I' for Inactive)
REMARK    1  A    between atoms: C_2  and  C_11
REMARK    2  A    between atoms: N_3  and  C_4
REMARK    3  A    between atoms: C_4  and  C_5
REMARK    4  A    between atoms: C_16  and  N_17
REMARK    5  A    between atoms: N_17  and  C_18
REMARK    6  A    between atoms: C_18  and  C_19
REMARK    7  A    between atoms: C_24  and  O_25
REMARK    8  A    between atoms: O_25  and  C_26
REMARK                            x       y       z     vdW  Elec       q    Type
REMARK                         _______ _______ _______ _____ _____    ______ ____
ROOT
ATOM      1  N   UNL     1       4.702   7.022  17.466  0.00  0.00    +0.000 N 
ATOM      2  H   UNL     1       5.089   7.084  18.411  0.00  0.00    +0.000 HD
ENDROOT
BRANCH   1   8
ATOM      3  C   UNL     1       5.772   4.840  17.096  0.00  0.00    +0.000 A 
ATOM      4  N   UNL     1       6.467   3.955  16.305  0.00  0.00    +0.000 NA
ATOM      5  C   UNL     1       6.688   4.369  15.041  0.00  0.00    +0.000 A 
ATOM      6  C   UNL     1       6.244   5.590  14.576  0.00  0.00    +0.000 A 
ATOM      7  N   UNL     1       5.576   6.469  15.358  0.00  0.00    +0.000 NA
ATOM      8  C   UNL     1       5.321   6.097  16.641  0.00  0.00    +0.000 A 
BRANCH   3  10
ATOM      9  O   UNL     1       5.772   5.078  19.491  0.00  0.00    +0.000 OA
ATOM     10  C   UNL     1       5.559   4.375  18.512  0.00  0.00    +0.000 C 
ATOM     11  N   UNL     1       5.072   3.083  18.623  0.00  0.00    +0.000 N 
ATOM     12  H   UNL     1       4.779   2.634  17.759  0.00  0.00    +0.000 HD
BRANCH  11  13
ATOM     13  C   UNL     1       4.689   2.531  19.900  0.00  0.00    +0.000 C 
BRANCH  13  14
ATOM     14  C   UNL     1       3.216   2.663  20.146  0.00  0.00    +0.000 A 
ATOM     15  C   UNL     1       2.697   2.773  21.441  0.00  0.00    +0.000 A 
ATOM     16  C   UNL     1       1.323   2.895  21.630  0.00  0.00    +0.000 A 
ATOM     17  C   UNL     1       0.507   2.907  20.511  0.00  0.00    +0.000 A 
ATOM     18  N   UNL     1       0.969   2.820  19.246  0.00  0.00    +0.000 NA
ATOM     19  C   UNL     1       2.309   2.704  19.093  0.00  0.00    +0.000 A 
ENDBRANCH  13  14
ENDBRANCH  11  13
ENDBRANCH   3  10
ENDBRANCH   1   8
BRANCH   1  20
ATOM     20  C   UNL     1       3.255   7.186  17.382  0.00  0.00    +0.000 C 
BRANCH  20  21
ATOM     21  C   UNL     1       2.628   7.152  18.784  0.00  0.00    +0.000 C 
ATOM     22  O   UNL     1       2.707   6.135  19.481  0.00  0.00    +0.000 OA
ATOM     23  N   UNL     1       1.948   8.290  19.212  0.00  0.00    +0.000 N 
ATOM     24  C   UNL     1       1.489   8.349  20.591  0.00  0.00    +0.000 C 
ATOM     25  C   UNL     1      -0.005   8.618  20.628  0.00  0.00    +0.000 C 
ATOM     26  C   UNL     1      -0.357   9.929  19.911  0.00  0.00    +0.000 C 
ATOM     27  C   UNL     1       0.224   9.908  18.484  0.00  0.00    +0.000 C 
ATOM     28  C   UNL     1       1.699   9.502  18.433  0.00  0.00    +0.000 C 
BRANCH  26  29
ATOM     29  O   UNL     1       0.173  11.066  20.603  0.00  0.00    +0.000 OA
BRANCH  29  30
ATOM     30  C   UNL     1      -0.725  11.980  21.109  0.00  0.00    +0.000 A 
ATOM     31  C   UNL     1      -1.166  13.101  20.398  0.00  0.00    +0.000 A 
ATOM     32  C   UNL     1      -2.142  13.953  20.922  0.00  0.00    +0.000 A 
ATOM     33  C   UNL     1      -2.675  13.708  22.183  0.00  0.00    +0.000 A 
ATOM     34  C   UNL     1      -2.237  12.604  22.916  0.00  0.00    +0.000 A 
ATOM     35  C   UNL     1      -1.274  11.742  22.378  0.00  0.00    +0.000 A 
ATOM     36 CL   UNL     1      -0.769  10.397  23.340  0.00  0.00    +0.000 Cl
ENDBRANCH  29  30
ENDBRANCH  26  29
ENDBRANCH  20  21
ENDBRANCH   1  20
TORSDOF 8
ENDMDL
MODEL 3
REMARK VINA RESULT:      -7.9      1.382      1.664
REMARK  Name = 
REMARK  8 active torsions:
REMARK  status: ('A' for Active; 'I' for Inactive)
REMARK    1  A    between atoms: C_2  and  C_11
REMARK    2  A    between atoms: N_3  and  C_4
REMARK    3  A    between atoms: C_4  and  C_5
REMARK    4  A    between atoms: C_16  and  N_17
REMARK    5  A    between atoms: N_17  and  C_18
REMARK    6  A    between atoms: C_18  and  C_19
REMARK    7  A    between atoms: C_24  and  O_25
REMARK    8  A    between atoms: O_25  and  C_26
REMARK                            x       y       z     vdW  Elec       q    Type
REMARK                         _______ _______ _______ _____ _____    ______ ____
ROOT
ATOM      1  N   UNL     1       4.552   6.503  17.801  0.00  0.00    +0.000 N 
ATOM      2  H   UNL     1       4.695   6.033  18.698  0.00  0.00    +0.000 HD
ENDROOT
BRANCH   1   8
ATOM      3  C   UNL     1       5.324   4.426  16.736  0.00  0.00    +0.000 A 
ATOM      4  N   UNL     1       5.854   3.743  15.666  0.00  0.00    +0.000 NA
ATOM      5  C   UNL     1       6.042   4.479  14.552  0.00  0.00    +0.000 A 
ATOM      6  C   UNL     1       5.719   5.821  14.491  0.00  0.00    +0.000 A 
ATOM      7  N   UNL     1       5.215   6.498  15.548  0.00  0.00    +0.000 NA
ATOM      8  C   UNL     1       5.001   5.799  16.695  0.00  0.00    +0.000 A 
BRANCH   3  10
ATOM      9  O   UNL     1       5.614   3.907  19.068  0.00  0.00    +0.000 OA
ATOM     10  C   UNL     1       5.148   3.596  17.980  0.00  0.00    +0.000 C 
ATOM     11  N   UNL     1       4.387   2.453  17.802  0.00  0.00    +0.000 N 
ATOM     12  H   UNL     1       3.914   2.359  16.906  0.00  0.00    +0.000 HD
BRANCH  11  13
ATOM     13  C   UNL     1       4.012   1.618  18.918  0.00  0.00    +0.000 C 
BRANCH  13  14
ATOM     14  C   UNL     1       2.951   2.257  19.762  0.00  0.00    +0.000 A 
ATOM     15  C   UNL     1       1.720   2.644  19.220  0.00  0.00    +0.000 A 
ATOM     16  C   UNL     1       0.759   3.234  20.036  0.00  0.00    +0.000 A 
ATOM     17  C   UNL     1       1.058   3.415  21.376  0.00  0.00    +0.000 A 
ATOM     18  N   UNL     1       2.226   3.041  21.940  0.00  0.00    +0.000 NA
ATOM     19  C   UNL     1       3.141   2.468  21.123  0.00  0.00    +0.000 A 
ENDBRANCH  13  14
ENDBRANCH  11  13
ENDBRANCH   3  10
ENDBRANCH   1   8
BRANCH   1  20
ATOM     20  C   UNL     1       3.314   7.267  17.697  0.00  0.00    +0.000 C 
BRANCH  20  21
ATOM     21  C   UNL     1       2.562   7.256  19.037  0.00  0.00    +0.000 C 
ATOM     22  O   UNL     1       2.591   6.259  19.763  0.00  0.00    +0.000 OA
ATOM     23  N   UNL     1       1.830   8.394  19.373  0.00  0.00    +0.000 N 
ATOM     24  C   UNL     1       1.247   8.479  20.702  0.00  0.00    +0.000 C 
ATOM     25  C   UNL     1      -0.248   8.725  20.596  0.00  0.00    +0.000 C 
ATOM     26  C   UNL     1      -0.551  10.012  19.816  0.00  0.00    +0.000 C 
ATOM     27  C   UNL     1       0.158   9.966  18.449  0.00  0.00    +0.000 C 
ATOM     28  C   UNL     1       1.638   9.583  18.543  0.00  0.00    +0.000 C 
BRANCH  26  29
ATOM     29  O   UNL     1      -0.102  11.174  20.525  0.00  0.00    +0.000 OA
BRANCH  29  30
ATOM     30  C   UNL     1      -1.060  11.986  21.091  0.00  0.00    +0.000 A 
ATOM     31  C   UNL     1      -1.683  13.035  20.407  0.00  0.00    +0.000 A 
ATOM     32  C   UNL     1      -2.710  13.776  20.997  0.00  0.00    +0.000 A 
ATOM     33  C   UNL     1      -3.113  13.493  22.297  0.00  0.00    +0.000 A 
ATOM     34  C   UNL     1      -2.494  12.461  23.004  0.00  0.00    +0.000 A 
ATOM     35  C   UNL     1      -1.479  11.708  22.401  0.00  0.00    +0.000 A 
ATOM     36 CL   UNL     1      -0.748  10.448  23.333  0.00  0.00    +0.000 Cl
ENDBRANCH  29  30
ENDBRANCH  26  29
ENDBRANCH  20  21
ENDBRANCH   1  20
TORSDOF 8
ENDMDL
MODEL 4
REMARK VINA RESULT:      -7.9      2.006      4.676
REMARK  Name = 
REMARK  8 active torsions:
REMARK  status: ('A' for Active; 'I' for Inactive)
REMARK    1  A    between atoms: C_2  and  C_11
REMARK    2  A    between atoms: N_3  and  C_4
REMARK    3  A    between atoms: C_4  and  C_5
REMARK    4  A    between atoms: C_16  and  N_17
REMARK    5  A    between atoms: N_17  and  C_18
REMARK    6  A    between atoms: C_18  and  C_19
REMARK    7  A    between atoms: C_24  and  O_25
REMARK    8  A    between atoms: O_25  and  C_26
REMARK                            x       y       z     vdW  Elec       q    Type
REMARK                         _______ _______ _______ _____ _____    ______ ____
ROOT
ATOM      1  N   UNL     1       2.637   5.992  20.214  0.00  0.00    +0.000 N 
ATOM      2  H   UNL     1       3.596   6.209  20.496  0.00  0.00    +0.000 HD
ENDROOT
BRANCH   1   8
ATOM      3  C   UNL     1       2.866   3.931  18.894  0.00  0.00    +0.000 A 
ATOM      4  N   UNL     1       2.539   2.619  18.638  0.00  0.00    +0.000 NA
ATOM      5  C   UNL     1       1.716   2.046  19.539  0.00  0.00    +0.000 A 
ATOM      6  C   UNL     1       1.241   2.729  20.642  0.00  0.00    +0.000 A 
ATOM      7  N   UNL     1       1.546   4.024  20.885  0.00  0.00    +0.000 NA
ATOM      8  C   UNL     1       2.379   4.646  20.008  0.00  0.00    +0.000 A 
BRANCH   3  10
ATOM      9  O   UNL     1       3.543   5.657  17.360  0.00  0.00    +0.000 OA
ATOM     10  C   UNL     1       3.761   4.562  17.862  0.00  0.00    +0.000 C 
ATOM     11  N   UNL     1       4.881   3.813  17.540  0.00  0.00    +0.000 N 
ATOM     12  H   UNL     1       5.060   2.995  18.118  0.00  0.00    +0.000 HD
BRANCH  11  13
ATOM     13  C   UNL     1       5.908   4.332  16.669  0.00  0.00    +0.000 C 
BRANCH  13  14
ATOM     14  C   UNL     1       6.726   5.393  17.341  0.00  0.00    +0.000 A 
ATOM     15  C   UNL     1       6.839   6.680  16.804  0.00  0.00    +0.000 A 
ATOM     16  C   UNL     1       7.607   7.639  17.457  0.00  0.00    +0.000 A 
ATOM     17  C   UNL     1       8.238   7.281  18.637  0.00  0.00    +0.000 A 
ATOM     18  N   UNL     1       8.142   6.056  19.196  0.00  0.00    +0.000 NA
ATOM     19  C   UNL     1       7.387   5.145  18.540  0.00  0.00    +0.000 A 
ENDBRANCH  13  14
ENDBRANCH  11  13
ENDBRANCH   3  10
ENDBRANCH   1   8
BRANCH   1  20
ATOM     20  C   UNL     1       1.610   6.820  20.836  0.00  0.00    +0.000 C 
BRANCH  20  21
ATOM     21  C   UNL     1       1.485   8.165  20.103  0.00  0.00    +0.000 C 
ATOM     22  O   UNL     1       2.201   8.415  19.128  0.00  0.00    +0.000 OA
ATOM     23  N   UNL     1       0.567   9.086  20.601  0.00  0.00    +0.000 N 
ATOM     24  C   UNL     1       0.308  10.295  19.834  0.00  0.00    +0.000 C 
ATOM     25  C   UNL     1       0.548  11.518  20.700  0.00  0.00    +0.000 C 
ATOM     26  C   UNL     1      -0.338  11.502  21.954  0.00  0.00    +0.000 C 
ATOM     27  C   UNL     1      -0.142  10.173  22.707  0.00  0.00    +0.000 C 
ATOM     28  C   UNL     1      -0.248   8.940  21.806  0.00  0.00    +0.000 C 
BRANCH  26  29
ATOM     29  O   UNL     1      -1.725  11.637  21.618  0.00  0.00    +0.000 OA
BRANCH  29  30
ATOM     30  C   UNL     1      -2.484  12.499  22.377  0.00  0.00    +0.000 A 
ATOM     31  C   UNL     1      -3.126  12.123  23.562  0.00  0.00    +0.000 A 
ATOM     32  C   UNL     1      -3.814  13.056  24.341  0.00  0.00    +0.000 A 
ATOM     33  C   UNL     1      -3.893  14.383  23.930  0.00  0.00    +0.000 A 
ATOM     34  C   UNL     1      -3.273  14.777  22.743  0.00  0.00    +0.000 A 
ATOM     35  C   UNL     1      -2.567  13.842  21.976  0.00  0.00    +0.000 A 
ATOM     36 CL   UNL     1      -1.829  14.392  20.513  0.00  0.00    +0.000 Cl
ENDBRANCH  29  30
ENDBRANCH  26  29
ENDBRANCH  20  21
ENDBRANCH   1  20
TORSDOF 8
ENDMDL
MODEL 5
REMARK VINA RESULT:      -7.7      2.441      4.857
REMARK  Name = 
REMARK  8 active torsions:
REMARK  status: ('A' for Active; 'I' for Inactive)
REMARK    1  A    between atoms: C_2  and  C_11
REMARK    2  A    between atoms: N_3  and  C_4
REMARK    3  A    between atoms: C_4  and  C_5
REMARK    4  A    between atoms: C_16  and  N_17
REMARK    5  A    between atoms: N_17  and  C_18
REMARK    6  A    between atoms: C_18  and  C_19
REMARK    7  A    between atoms: C_24  and  O_25
REMARK    8  A    between atoms: O_25  and  C_26
REMARK                            x       y       z     vdW  Elec       q    Type
REMARK                         _______ _______ _______ _____ _____    ______ ____
ROOT
ATOM      1  N   UNL     1       2.171   5.685  19.181  0.00  0.00    +0.000 N 
ATOM      2  H   UNL     1       2.561   5.668  18.235  0.00  0.00    +0.000 HD
ENDROOT
BRANCH   1   8
ATOM      3  C   UNL     1       3.521   3.684  19.644  0.00  0.00    +0.000 A 
ATOM      4  N   UNL     1       3.774   2.538  20.362  0.00  0.00    +0.000 NA
ATOM      5  C   UNL     1       2.952   2.326  21.410  0.00  0.00    +0.000 A 
ATOM      6  C   UNL     1       1.935   3.200  21.739  0.00  0.00    +0.000 A 
ATOM      7  N   UNL     1       1.674   4.318  21.023  0.00  0.00    +0.000 NA
ATOM      8  C   UNL     1       2.479   4.581  19.958  0.00  0.00    +0.000 A 
BRANCH   3  10
ATOM      9  O   UNL     1       4.020   4.039  17.316  0.00  0.00    +0.000 OA
ATOM     10  C   UNL     1       4.429   3.890  18.461  0.00  0.00    +0.000 C 
ATOM     11  N   UNL     1       5.777   3.927  18.774  0.00  0.00    +0.000 N 
ATOM     12  H   UNL     1       6.012   3.953  19.763  0.00  0.00    +0.000 HD
BRANCH  11  13
ATOM     13  C   UNL     1       6.771   4.248  17.778  0.00  0.00    +0.000 C 
BRANCH  13  14
ATOM     14  C   UNL     1       7.164   5.695  17.827  0.00  0.00    +0.000 A 
ATOM     15  C   UNL     1       8.037   6.183  18.804  0.00  0.00    +0.000 A 
ATOM     16  C   UNL     1       8.379   7.532  18.817  0.00  0.00    +0.000 A 
ATOM     17  C   UNL     1       7.838   8.354  17.842  0.00  0.00    +0.000 A 
ATOM     18  N   UNL     1       7.005   7.919  16.873  0.00  0.00    +0.000 NA
ATOM     19  C   UNL     1       6.692   6.602  16.885  0.00  0.00    +0.000 A 
ENDBRANCH  13  14
ENDBRANCH  11  13
ENDBRANCH   3  10
ENDBRANCH   1   8
BRANCH   1  20
ATOM     20  C   UNL     1       2.133   7.002  19.806  0.00  0.00    +0.000 C 
BRANCH  20  21
ATOM     21  C   UNL     1       2.376   8.102  18.761  0.00  0.00    +0.000 C 
ATOM     22  O   UNL     1       3.263   7.974  17.912  0.00  0.00    +0.000 OA
ATOM     23  N   UNL     1       1.584   9.246  18.835  0.00  0.00    +0.000 N 
ATOM     24  C   UNL     1       1.675  10.227  17.765  0.00  0.00    +0.000 C 
ATOM     25  C   UNL     1       2.011  11.591  18.341  0.00  0.00    +0.000 C 
ATOM     26  C   UNL     1       0.960  12.042  19.365  0.00  0.00    +0.000 C 
ATOM     27  C   UNL     1       0.787  10.951  20.441  0.00  0.00    +0.000 C 
ATOM     28  C   UNL     1       0.585   9.550  19.860  0.00  0.00    +0.000 C 
BRANCH  26  29
ATOM     29  O   UNL     1      -0.310  12.279  18.746  0.00  0.00    +0.000 OA
BRANCH  29  30
ATOM     30  C   UNL     1      -1.328  12.758  19.541  0.00  0.00    +0.000 A 
ATOM     31  C   UNL     1      -1.167  13.815  20.443  0.00  0.00    +0.000 A 
ATOM     32  C   UNL     1      -2.251  14.321  21.165  0.00  0.00    +0.000 A 
ATOM     33  C   UNL     1      -3.513  13.758  21.013  0.00  0.00    +0.000 A 
ATOM     34  C   UNL     1      -3.692  12.692  20.130  0.00  0.00    +0.000 A 
ATOM     35  C   UNL     1      -2.607  12.201  19.393  0.00  0.00    +0.000 A 
ATOM     36 CL   UNL     1      -2.894  10.875  18.321  0.00  0.00    +0.000 Cl
ENDBRANCH  29  30
ENDBRANCH  26  29
ENDBRANCH  20  21
ENDBRANCH   1  20
TORSDOF 8
ENDMDL
MODEL 6
REMARK VINA RESULT:      -7.7      2.029      4.430
REMARK  Name = 
REMARK  8 active torsions:
REMARK  status: ('A' for Active; 'I' for Inactive)
REMARK    1  A    between atoms: C_2  and  C_11
REMARK    2  A    between atoms: N_3  and  C_4
REMARK    3  A    between atoms: C_4  and  C_5
REMARK    4  A    between atoms: C_16  and  N_17
REMARK    5  A    between atoms: N_17  and  C_18
REMARK    6  A    between atoms: C_18  and  C_19
REMARK    7  A    between atoms: C_24  and  O_25
REMARK    8  A    between atoms: O_25  and  C_26
REMARK                            x       y       z     vdW  Elec       q    Type
REMARK                         _______ _______ _______ _____ _____    ______ ____
ROOT
ATOM      1  N   UNL     1       2.698   5.736  17.986  0.00  0.00    +0.000 N 
ATOM      2  H   UNL     1       3.277   5.834  17.148  0.00  0.00    +0.000 HD
ENDROOT
BRANCH   1   8
ATOM      3  C   UNL     1       3.560   3.601  18.845  0.00  0.00    +0.000 A 
ATOM      4  N   UNL     1       3.388   2.278  19.184  0.00  0.00    +0.000 NA
ATOM      5  C   UNL     1       2.124   1.820  19.083  0.00  0.00    +0.000 A 
ATOM      6  C   UNL     1       1.079   2.624  18.673  0.00  0.00    +0.000 A 
ATOM      7  N   UNL     1       1.249   3.919  18.322  0.00  0.00    +0.000 NA
ATOM      8  C   UNL     1       2.506   4.432  18.412  0.00  0.00    +0.000 A 
BRANCH   3  10
ATOM      9  O   UNL     1       5.513   4.423  19.986  0.00  0.00    +0.000 OA
ATOM     10  C   UNL     1       4.982   4.087  18.936  0.00  0.00    +0.000 C 
ATOM     11  N   UNL     1       5.660   4.099  17.728  0.00  0.00    +0.000 N 
ATOM     12  H   UNL     1       5.192   3.657  16.941  0.00  0.00    +0.000 HD
BRANCH  11  13
ATOM     13  C   UNL     1       7.068   4.410  17.660  0.00  0.00    +0.000 C 
BRANCH  13  14
ATOM     14  C   UNL     1       7.318   5.887  17.735  0.00  0.00    +0.000 A 
ATOM     15  C   UNL     1       8.200   6.433  18.674  0.00  0.00    +0.000 A 
ATOM     16  C   UNL     1       8.407   7.809  18.713  0.00  0.00    +0.000 A 
ATOM     17  C   UNL     1       7.725   8.599  17.803  0.00  0.00    +0.000 A 
ATOM     18  N   UNL     1       6.879   8.110  16.872  0.00  0.00    +0.000 NA
ATOM     19  C   UNL     1       6.699   6.769  16.857  0.00  0.00    +0.000 A 
ENDBRANCH  13  14
ENDBRANCH  11  13
ENDBRANCH   3  10
ENDBRANCH   1   8
BRANCH   1  20
ATOM     20  C   UNL     1       2.874   6.787  18.982  0.00  0.00    +0.000 C 
BRANCH  20  21
ATOM     21  C   UNL     1       2.273   8.110  18.481  0.00  0.00    +0.000 C 
ATOM     22  O   UNL     1       2.561   8.544  17.361  0.00  0.00    +0.000 OA
ATOM     23  N   UNL     1       1.430   8.801  19.347  0.00  0.00    +0.000 N 
ATOM     24  C   UNL     1       0.717   9.965  18.844  0.00  0.00    +0.000 C 
ATOM     25  C   UNL     1       1.017  11.172  19.716  0.00  0.00    +0.000 C 
ATOM     26  C   UNL     1       0.623  10.919  21.178  0.00  0.00    +0.000 C 
ATOM     27  C   UNL     1       1.294   9.625  21.676  0.00  0.00    +0.000 C 
ATOM     28  C   UNL     1       1.109   8.438  20.727  0.00  0.00    +0.000 C 
BRANCH  26  29
ATOM     29  O   UNL     1      -0.796  10.784  21.324  0.00  0.00    +0.000 OA
BRANCH  29  30
ATOM     30  C   UNL     1      -1.501  11.885  21.757  0.00  0.00    +0.000 A 
ATOM     31  C   UNL     1      -1.381  12.420  23.044  0.00  0.00    +0.000 A 
ATOM     32  C   UNL     1      -2.053  13.590  23.408  0.00  0.00    +0.000 A 
ATOM     33  C   UNL     1      -2.880  14.231  22.491  0.00  0.00    +0.000 A 
ATOM     34  C   UNL     1      -3.026  13.706  21.206  0.00  0.00    +0.000 A 
ATOM     35  C   UNL     1      -2.334  12.545  20.840  0.00  0.00    +0.000 A 
ATOM     36 CL   UNL     1      -2.564  11.941  19.236  0.00  0.00    +0.000 Cl
ENDBRANCH  29  30
ENDBRANCH  26  29
ENDBRANCH  20  21
ENDBRANCH   1  20
TORSDOF 8
ENDMDL
MODEL 7
REMARK VINA RESULT:      -7.6      1.504      1.834
REMARK  Name = 
REMARK  8 active torsions:
REMARK  status: ('A' for Active; 'I' for Inactive)
REMARK    1  A    between atoms: C_2  and  C_11
REMARK    2  A    between atoms: N_3  and  C_4
REMARK    3  A    between atoms: C_4  and  C_5
REMARK    4  A    between atoms: C_16  and  N_17
REMARK    5  A    between atoms: N_17  and  C_18
REMARK    6  A    between atoms: C_18  and  C_19
REMARK    7  A    between atoms: C_24  and  O_25
REMARK    8  A    between atoms: O_25  and  C_26
REMARK                            x       y       z     vdW  Elec       q    Type
REMARK                         _______ _______ _______ _____ _____    ______ ____
ROOT
ATOM      1  N   UNL     1       4.161   6.393  17.979  0.00  0.00    +0.000 N 
ATOM      2  H   UNL     1       4.683   6.351  18.858  0.00  0.00    +0.000 HD
ENDROOT
BRANCH   1   8
ATOM      3  C   UNL     1       5.327   4.533  16.874  0.00  0.00    +0.000 A 
ATOM      4  N   UNL     1       6.055   4.015  15.827  0.00  0.00    +0.000 NA
ATOM      5  C   UNL     1       6.243   4.856  14.790  0.00  0.00    +0.000 A 
ATOM      6  C   UNL     1       5.737   6.141  14.781  0.00  0.00    +0.000 A 
ATOM      7  N   UNL     1       5.037   6.657  15.817  0.00  0.00    +0.000 NA
ATOM      8  C   UNL     1       4.814   5.846  16.887  0.00  0.00    +0.000 A 
BRANCH   3  10
ATOM      9  O   UNL     1       5.635   3.788  19.142  0.00  0.00    +0.000 OA
ATOM     10  C   UNL     1       5.152   3.590  18.035  0.00  0.00    +0.000 C 
ATOM     11  N   UNL     1       4.368   2.482  17.759  0.00  0.00    +0.000 N 
ATOM     12  H   UNL     1       3.882   2.482  16.865  0.00  0.00    +0.000 HD
BRANCH  11  13
ATOM     13  C   UNL     1       3.991   1.551  18.795  0.00  0.00    +0.000 C 
BRANCH  13  14
ATOM     14  C   UNL     1       2.975   2.135  19.730  0.00  0.00    +0.000 A 
ATOM     15  C   UNL     1       1.698   2.499  19.287  0.00  0.00    +0.000 A 
ATOM     16  C   UNL     1       0.781   3.038  20.184  0.00  0.00    +0.000 A 
ATOM     17  C   UNL     1       1.170   3.193  21.505  0.00  0.00    +0.000 A 
ATOM     18  N   UNL     1       2.385   2.840  21.974  0.00  0.00    +0.000 NA
ATOM     19  C   UNL     1       3.255   2.317  21.079  0.00  0.00    +0.000 A 
ENDBRANCH  13  14
ENDBRANCH  11  13
ENDBRANCH   3  10
ENDBRANCH   1   8
BRANCH   1  20
ATOM     20  C   UNL     1       2.721   6.202  18.110  0.00  0.00    +0.000 C 
BRANCH  20  21
ATOM     21  C   UNL     1       2.206   6.854  19.402  0.00  0.00    +0.000 C 
ATOM     22  O   UNL     1       2.086   6.188  20.435  0.00  0.00    +0.000 OA
ATOM     23  N   UNL     1       1.856   8.201  19.347  0.00  0.00    +0.000 N 
ATOM     24  C   UNL     1       1.526   8.886  20.588  0.00  0.00    +0.000 C 
ATOM     25  C   UNL     1       0.149   9.516  20.479  0.00  0.00    +0.000 C 
ATOM     26  C   UNL     1       0.075  10.507  19.308  0.00  0.00    +0.000 C 
ATOM     27  C   UNL     1       0.530   9.807  18.012  0.00  0.00    +0.000 C 
ATOM     28  C   UNL     1       1.854   9.054  18.159  0.00  0.00    +0.000 C 
BRANCH  26  29
ATOM     29  O   UNL     1       0.914  11.647  19.530  0.00  0.00    +0.000 OA
BRANCH  29  30
ATOM     30  C   UNL     1       0.312  12.885  19.565  0.00  0.00    +0.000 A 
ATOM     31  C   UNL     1      -0.876  13.144  20.258  0.00  0.00    +0.000 A 
ATOM     32  C   UNL     1      -1.403  14.436  20.333  0.00  0.00    +0.000 A 
ATOM     33  C   UNL     1      -0.759  15.489  19.692  0.00  0.00    +0.000 A 
ATOM     34  C   UNL     1       0.419  15.250  18.982  0.00  0.00    +0.000 A 
ATOM     35  C   UNL     1       0.954  13.956  18.926  0.00  0.00    +0.000 A 
ATOM     36 CL   UNL     1       2.411  13.725  18.024  0.00  0.00    +0.000 Cl
ENDBRANCH  29  30
ENDBRANCH  26  29
ENDBRANCH  20  21
ENDBRANCH   1  20
TORSDOF 8
ENDMDL
MODEL 8
REMARK VINA RESULT:      -7.6      2.313      4.761
REMARK  Name = 
REMARK  8 active torsions:
REMARK  status: ('A' for Active; 'I' for Inactive)
REMARK    1  A    between atoms: C_2  and  C_11
REMARK    2  A    between atoms: N_3  and  C_4
REMARK    3  A    between atoms: C_4  and  C_5
REMARK    4  A    between atoms: C_16  and  N_17
REMARK    5  A    between atoms: N_17  and  C_18
REMARK    6  A    between atoms: C_18  and  C_19
REMARK    7  A    between atoms: C_24  and  O_25
REMARK    8  A    between atoms: O_25  and  C_26
REMARK                            x       y       z     vdW  Elec       q    Type
REMARK                         _______ _______ _______ _____ _____    ______ ____
ROOT
ATOM      1  N   UNL     1       2.840   5.574  20.345  0.00  0.00    +0.000 N 
ATOM      2  H   UNL     1       3.469   5.459  21.144  0.00  0.00    +0.000 HD
ENDROOT
BRANCH   1   8
ATOM      3  C   UNL     1       3.036   3.480  19.072  0.00  0.00    +0.000 A 
ATOM      4  N   UNL     1       2.483   2.355  18.506  0.00  0.00    +0.000 NA
ATOM      5  C   UNL     1       1.170   2.175  18.756  0.00  0.00    +0.000 A 
ATOM      6  C   UNL     1       0.438   3.055  19.528  0.00  0.00    +0.000 A 
ATOM      7  N   UNL     1       0.977   4.172  20.070  0.00  0.00    +0.000 NA
ATOM      8  C   UNL     1       2.301   4.396  19.853  0.00  0.00    +0.000 A 
BRANCH   3  10
ATOM      9  O   UNL     1       5.393   3.455  19.559  0.00  0.00    +0.000 OA
ATOM     10  C   UNL     1       4.495   3.681  18.759  0.00  0.00    +0.000 C 
ATOM     11  N   UNL     1       4.748   4.119  17.469  0.00  0.00    +0.000 N 
ATOM     12  H   UNL     1       3.957   4.128  16.830  0.00  0.00    +0.000 HD
BRANCH  11  13
ATOM     13  C   UNL     1       6.096   4.234  16.965  0.00  0.00    +0.000 C 
BRANCH  13  14
ATOM     14  C   UNL     1       6.757   5.499  17.422  0.00  0.00    +0.000 A 
ATOM     15  C   UNL     1       6.455   6.734  16.838  0.00  0.00    +0.000 A 
ATOM     16  C   UNL     1       7.089   7.888  17.289  0.00  0.00    +0.000 A 
ATOM     17  C   UNL     1       8.006   7.771  18.321  0.00  0.00    +0.000 A 
ATOM     18  N   UNL     1       8.312   6.602  18.921  0.00  0.00    +0.000 NA
ATOM     19  C   UNL     1       7.679   5.497  18.462  0.00  0.00    +0.000 A 
ENDBRANCH  13  14
ENDBRANCH  11  13
ENDBRANCH   3  10
ENDBRANCH   1   8
BRANCH   1  20
ATOM     20  C   UNL     1       2.006   6.770  20.385  0.00  0.00    +0.000 C 
BRANCH  20  21
ATOM     21  C   UNL     1       2.290   7.666  19.170  0.00  0.00    +0.000 C 
ATOM     22  O   UNL     1       3.147   7.343  18.341  0.00  0.00    +0.000 OA
ATOM     23  N   UNL     1       1.573   8.855  19.066  0.00  0.00    +0.000 N 
ATOM     24  C   UNL     1       1.699   9.640  17.848  0.00  0.00    +0.000 C 
ATOM     25  C   UNL     1       2.133  11.055  18.186  0.00  0.00    +0.000 C 
ATOM     26  C   UNL     1       1.138  11.735  19.137  0.00  0.00    +0.000 C 
ATOM     27  C   UNL     1       0.924  10.849  20.380  0.00  0.00    +0.000 C 
ATOM     28  C   UNL     1       0.621   9.387  20.041  0.00  0.00    +0.000 C 
BRANCH  26  29
ATOM     29  O   UNL     1      -0.131  11.950  18.506  0.00  0.00    +0.000 OA
BRANCH  29  30
ATOM     30  C   UNL     1      -1.139  12.494  19.269  0.00  0.00    +0.000 A 
ATOM     31  C   UNL     1      -0.973  13.630  20.069  0.00  0.00    +0.000 A 
ATOM     32  C   UNL     1      -2.049  14.194  20.759  0.00  0.00    +0.000 A 
ATOM     33  C   UNL     1      -3.310  13.611  20.679  0.00  0.00    +0.000 A 
ATOM     34  C   UNL     1      -3.494  12.468  19.900  0.00  0.00    +0.000 A 
ATOM     35  C   UNL     1      -2.417  11.918  19.194  0.00  0.00    +0.000 A 
ATOM     36 CL   UNL     1      -2.710  10.498  18.253  0.00  0.00    +0.000 Cl
ENDBRANCH  29  30
ENDBRANCH  26  29
ENDBRANCH  20  21
ENDBRANCH   1  20
TORSDOF 8
ENDMDL
MODEL 9
REMARK VINA RESULT:      -7.5      1.572      1.938
REMARK  Name = 
REMARK  8 active torsions:
REMARK  status: ('A' for Active; 'I' for Inactive)
REMARK    1  A    between atoms: C_2  and  C_11
REMARK    2  A    between atoms: N_3  and  C_4
REMARK    3  A    between atoms: C_4  and  C_5
REMARK    4  A    between atoms: C_16  and  N_17
REMARK    5  A    between atoms: N_17  and  C_18
REMARK    6  A    between atoms: C_18  and  C_19
REMARK    7  A    between atoms: C_24  and  O_25
REMARK    8  A    between atoms: O_25  and  C_26
REMARK                            x       y       z     vdW  Elec       q    Type
REMARK                         _______ _______ _______ _____ _____    ______ ____
ROOT
ATOM      1  N   UNL     1       4.493   6.578  17.975  0.00  0.00    +0.000 N 
ATOM      2  H   UNL     1       5.090   6.470  18.799  0.00  0.00    +0.000 HD
ENDROOT
BRANCH   1   8
ATOM      3  C   UNL     1       5.263   4.533  16.849  0.00  0.00    +0.000 A 
ATOM      4  N   UNL     1       5.781   3.879  15.755  0.00  0.00    +0.000 NA
ATOM      5  C   UNL     1       5.946   4.644  14.656  0.00  0.00    +0.000 A 
ATOM      6  C   UNL     1       5.614   5.984  14.632  0.00  0.00    +0.000 A 
ATOM      7  N   UNL     1       5.121   6.632  15.713  0.00  0.00    +0.000 NA
ATOM      8  C   UNL     1       4.929   5.903  16.846  0.00  0.00    +0.000 A 
BRANCH   3  10
ATOM      9  O   UNL     1       5.571   3.972  19.169  0.00  0.00    +0.000 OA
ATOM     10  C   UNL     1       5.112   3.672  18.074  0.00  0.00    +0.000 C 
ATOM     11  N   UNL     1       4.382   2.512  17.873  0.00  0.00    +0.000 N 
ATOM     12  H   UNL     1       3.910   2.424  16.976  0.00  0.00    +0.000 HD
BRANCH  11  13
ATOM     13  C   UNL     1       4.032   1.644  18.971  0.00  0.00    +0.000 C 
BRANCH  13  14
ATOM     14  C   UNL     1       2.957   2.236  19.831  0.00  0.00    +0.000 A 
ATOM     15  C   UNL     1       1.729   2.639  19.293  0.00  0.00    +0.000 A 
ATOM     16  C   UNL     1       0.754   3.184  20.123  0.00  0.00    +0.000 A 
ATOM     17  C   UNL     1       1.037   3.305  21.474  0.00  0.00    +0.000 A 
ATOM     18  N   UNL     1       2.201   2.913  22.033  0.00  0.00    +0.000 NA
ATOM     19  C   UNL     1       3.129   2.385  21.202  0.00  0.00    +0.000 A 
ENDBRANCH  13  14
ENDBRANCH  11  13
ENDBRANCH   3  10
ENDBRANCH   1   8
BRANCH   1  20
ATOM     20  C   UNL     1       3.063   6.635  18.255  0.00  0.00    +0.000 C 
BRANCH  20  21
ATOM     21  C   UNL     1       2.519   8.048  17.992  0.00  0.00    +0.000 C 
ATOM     22  O   UNL     1       2.850   8.668  16.976  0.00  0.00    +0.000 OA
ATOM     23  N   UNL     1       1.677   8.602  18.953  0.00  0.00    +0.000 N 
ATOM     24  C   UNL     1       1.016   9.864  18.657  0.00  0.00    +0.000 C 
ATOM     25  C   UNL     1       1.332  10.880  19.740  0.00  0.00    +0.000 C 
ATOM     26  C   UNL     1       0.893  10.381  21.124  0.00  0.00    +0.000 C 
ATOM     27  C   UNL     1       1.508   8.994  21.391  0.00  0.00    +0.000 C 
ATOM     28  C   UNL     1       1.309   8.006  20.238  0.00  0.00    +0.000 C 
BRANCH  26  29
ATOM     29  O   UNL     1      -0.533  10.274  21.215  0.00  0.00    +0.000 OA
BRANCH  29  30
ATOM     30  C   UNL     1      -1.232  11.389  21.620  0.00  0.00    +0.000 A 
ATOM     31  C   UNL     1      -1.161  11.916  22.914  0.00  0.00    +0.000 A 
ATOM     32  C   UNL     1      -1.822  13.099  23.252  0.00  0.00    +0.000 A 
ATOM     33  C   UNL     1      -2.590  13.763  22.301  0.00  0.00    +0.000 A 
ATOM     34  C   UNL     1      -2.688  13.246  21.009  0.00  0.00    +0.000 A 
ATOM     35  C   UNL     1      -2.006  12.071  20.669  0.00  0.00    +0.000 A 
ATOM     36 CL   UNL     1      -2.175  11.480  19.053  0.00  0.00    +0.000 Cl
ENDBRANCH  29  30
ENDBRANCH  26  29
ENDBRANCH  20  21
ENDBRANCH   1  20
TORSDOF 8
ENDMDL
