MODEL 1
REMARK VINA RESULT:      -9.0      0.000      0.000
REMARK  Name = 
REMARK  9 active torsions:
REMARK  status: ('A' for Active; 'I' for Inactive)
REMARK    1  A    between atoms: C_1  and  C_2
REMARK    2  A    between atoms: C_6  and  C_7
REMARK    3  A    between atoms: C_8  and  C_9
REMARK    4  A    between atoms: C_13  and  C_14
REMARK    5  A    between atoms: C_14  and  O_15
REMARK    6  A    between atoms: O_15  and  C_16
REMARK    7  A    between atoms: C_25  and  C_26
REMARK    8  A    between atoms: C_26  and  C_27
REMARK    9  A    between atoms: C_27  and  O_29
REMARK                            x       y       z     vdW  Elec       q    Type
REMARK                         _______ _______ _______ _____ _____    ______ ____
ROOT
ATOM      1  O   UNL     1       1.740   8.639  20.994  0.00  0.00    +0.000 OA
ENDROOT
BRANCH   1   2
ATOM      2  C   UNL     1       1.964   7.591  20.143  0.00  0.00    +0.000 A 
ATOM      3  C   UNL     1       2.438   7.596  18.836  0.00  0.00    +0.000 A 
ATOM      4  C   UNL     1       2.573   6.373  18.115  0.00  0.00    +0.000 A 
ATOM      5  C   UNL     1       2.242   5.119  18.681  0.00  0.00    +0.000 A 
ATOM      6  C   UNL     1       1.764   5.140  19.993  0.00  0.00    +0.000 A 
ATOM      7  C   UNL     1       1.637   6.360  20.697  0.00  0.00    +0.000 A 
ATOM      8  C   UNL     1       1.384   3.911  20.753  0.00  0.00    +0.000 C 
ATOM      9  C   UNL     1       1.132   2.648  19.959  0.00  0.00    +0.000 C 
ATOM     10  C   UNL     1       1.481   2.629  18.481  0.00  0.00    +0.000 C 
ATOM     11  C   UNL     1       2.237   3.827  17.859  0.00  0.00    +0.000 C 
BRANCH  11  12
ATOM     12  C   UNL     1       3.552   3.340  17.198  0.00  0.00    +0.000 C 
BRANCH  12  13
ATOM     13  C   UNL     1       4.849   3.664  17.909  0.00  0.00    +0.000 C 
ATOM     14  O   UNL     1       5.654   4.500  17.500  0.00  0.00    +0.000 OA
BRANCH  13  15
ATOM     15  O   UNL     1       5.026   2.988  19.062  0.00  0.00    +0.000 OA
ATOM     16  H   UNL     1       4.865   2.026  18.993  0.00  0.00    +0.000 HD
ENDBRANCH  13  15
ENDBRANCH  12  13
ENDBRANCH  11  12
ENDBRANCH   1   2
BRANCH   1  17
ATOM     17  C   UNL     1       0.413   9.119  21.192  0.00  0.00    +0.000 C 
BRANCH  17  22
ATOM     18  C   UNL     1      -1.708  11.487  18.937  0.00  0.00    +0.000 A 
ATOM     19  C   UNL     1      -0.720  12.457  18.689  0.00  0.00    +0.000 A 
ATOM     20  C   UNL     1       0.617  12.267  19.054  0.00  0.00    +0.000 A 
ATOM     21  C   UNL     1       0.989  11.151  19.801  0.00  0.00    +0.000 A 
ATOM     22  C   UNL     1       0.035  10.199  20.176  0.00  0.00    +0.000 A 
ATOM     23  C   UNL     1      -1.283  10.358  19.685  0.00  0.00    +0.000 A 
BRANCH  18  31
ATOM     24  C   UNL     1      -2.591  10.508  16.147  0.00  0.00    +0.000 C 
ATOM     25  C   UNL     1      -3.512  11.210  17.117  0.00  0.00    +0.000 A 
ATOM     26  C   UNL     1      -4.821  11.440  16.635  0.00  0.00    +0.000 A 
ATOM     27  C   UNL     1      -5.790  12.032  17.427  0.00  0.00    +0.000 A 
ATOM     28  C   UNL     1      -5.461  12.416  18.715  0.00  0.00    +0.000 A 
ATOM     29  C   UNL     1      -4.151  12.253  19.221  0.00  0.00    +0.000 A 
ATOM     30  C   UNL     1      -3.948  12.775  20.625  0.00  0.00    +0.000 C 
ATOM     31  C   UNL     1      -3.124  11.640  18.427  0.00  0.00    +0.000 A 
ENDBRANCH  18  31
ENDBRANCH  17  22
ENDBRANCH   1  17
TORSDOF 7
ENDMDL
MODEL 2
REMARK VINA RESULT:      -8.5      1.272      1.666
REMARK  Name = 
REMARK  9 active torsions:
REMARK  status: ('A' for Active; 'I' for Inactive)
REMARK    1  A    between atoms: C_1  and  C_2
REMARK    2  A    between atoms: C_6  and  C_7
REMARK    3  A    between atoms: C_8  and  C_9
REMARK    4  A    between atoms: C_13  and  C_14
REMARK    5  A    between atoms: C_14  and  O_15
REMARK    6  A    between atoms: O_15  and  C_16
REMARK    7  A    between atoms: C_25  and  C_26
REMARK    8  A    between atoms: C_26  and  C_27
REMARK    9  A    between atoms: C_27  and  O_29
REMARK                            x       y       z     vdW  Elec       q    Type
REMARK                         _______ _______ _______ _____ _____    ______ ____
ROOT
ATOM      1  O   UNL     1       0.968   8.297  20.436  0.00  0.00    +0.000 OA
ENDROOT
BRANCH   1   2
ATOM      2  C   UNL     1       1.878   7.700  19.605  0.00  0.00    +0.000 A 
ATOM      3  C   UNL     1       2.507   8.202  18.472  0.00  0.00    +0.000 A 
ATOM      4  C   UNL     1       3.415   7.388  17.733  0.00  0.00    +0.000 A 
ATOM      5  C   UNL     1       3.718   6.057  18.107  0.00  0.00    +0.000 A 
ATOM      6  C   UNL     1       3.070   5.574  19.246  0.00  0.00    +0.000 A 
ATOM      7  C   UNL     1       2.174   6.393  19.972  0.00  0.00    +0.000 A 
ATOM      8  C   UNL     1       3.283   4.201  19.796  0.00  0.00    +0.000 C 
ATOM      9  C   UNL     1       3.909   3.170  18.882  0.00  0.00    +0.000 C 
ATOM     10  C   UNL     1       4.480   3.623  17.549  0.00  0.00    +0.000 C 
ATOM     11  C   UNL     1       4.566   5.135  17.229  0.00  0.00    +0.000 C 
BRANCH  11  12
ATOM     12  C   UNL     1       6.031   5.526  16.905  0.00  0.00    +0.000 C 
BRANCH  12  13
ATOM     13  C   UNL     1       7.115   4.966  17.802  0.00  0.00    +0.000 C 
ATOM     14  O   UNL     1       7.150   5.151  19.018  0.00  0.00    +0.000 OA
BRANCH  13  15
ATOM     15  O   UNL     1       8.019   4.201  17.157  0.00  0.00    +0.000 OA
ATOM     16  H   UNL     1       7.983   4.270  16.182  0.00  0.00    +0.000 HD
ENDBRANCH  13  15
ENDBRANCH  12  13
ENDBRANCH  11  12
ENDBRANCH   1   2
BRANCH   1  17
ATOM     17  C   UNL     1       1.168   9.644  20.854  0.00  0.00    +0.000 C 
BRANCH  17  22
ATOM     18  C   UNL     1      -1.446  11.702  18.824  0.00  0.00    +0.000 A 
ATOM     19  C   UNL     1      -0.609  12.768  18.450  0.00  0.00    +0.000 A 
ATOM     20  C   UNL     1       0.774  12.736  18.662  0.00  0.00    +0.000 A 
ATOM     21  C   UNL     1       1.351  11.689  19.378  0.00  0.00    +0.000 A 
ATOM     22  C   UNL     1       0.558  10.648  19.873  0.00  0.00    +0.000 A 
ATOM     23  C   UNL     1      -0.815  10.647  19.534  0.00  0.00    +0.000 A 
BRANCH  18  31
ATOM     24  C   UNL     1      -2.521  10.555  16.168  0.00  0.00    +0.000 C 
ATOM     25  C   UNL     1      -3.400  11.177  17.227  0.00  0.00    +0.000 A 
ATOM     26  C   UNL     1      -4.773  11.247  16.895  0.00  0.00    +0.000 A 
ATOM     27  C   UNL     1      -5.707  11.750  17.784  0.00  0.00    +0.000 A 
ATOM     28  C   UNL     1      -5.282  12.203  19.020  0.00  0.00    +0.000 A 
ATOM     29  C   UNL     1      -3.913  12.200  19.375  0.00  0.00    +0.000 A 
ATOM     30  C   UNL     1      -3.614  12.780  20.738  0.00  0.00    +0.000 C 
ATOM     31  C   UNL     1      -2.919  11.683  18.477  0.00  0.00    +0.000 A 
ENDBRANCH  18  31
ENDBRANCH  17  22
ENDBRANCH   1  17
TORSDOF 7
ENDMDL
MODEL 3
REMARK VINA RESULT:      -8.5      1.327      2.351
REMARK  Name = 
REMARK  9 active torsions:
REMARK  status: ('A' for Active; 'I' for Inactive)
REMARK    1  A    between atoms: C_1  and  C_2
REMARK    2  A    between atoms: C_6  and  C_7
REMARK    3  A    between atoms: C_8  and  C_9
REMARK    4  A    between atoms: C_13  and  C_14
REMARK    5  A    between atoms: C_14  and  O_15
REMARK    6  A    between atoms: O_15  and  C_16
REMARK    7  A    between atoms: C_25  and  C_26
REMARK    8  A    between atoms: C_26  and  C_27
REMARK    9  A    between atoms: C_27  and  O_29
REMARK                            x       y       z     vdW  Elec       q    Type
REMARK                         _______ _______ _______ _____ _____    ______ ____
ROOT
ATOM      1  O   UNL     1       0.972   8.439  20.304  0.00  0.00    +0.000 OA
ENDROOT
BRANCH   1   2
ATOM      2  C   UNL     1       1.895   7.821  19.503  0.00  0.00    +0.000 A 
ATOM      3  C   UNL     1       2.537   8.293  18.364  0.00  0.00    +0.000 A 
ATOM      4  C   UNL     1       3.456   7.460  17.660  0.00  0.00    +0.000 A 
ATOM      5  C   UNL     1       3.759   6.143  18.078  0.00  0.00    +0.000 A 
ATOM      6  C   UNL     1       3.099   5.690  19.222  0.00  0.00    +0.000 A 
ATOM      7  C   UNL     1       2.191   6.527  19.912  0.00  0.00    +0.000 A 
ATOM      8  C   UNL     1       3.310   4.336  19.816  0.00  0.00    +0.000 C 
ATOM      9  C   UNL     1       3.951   3.281  18.941  0.00  0.00    +0.000 C 
ATOM     10  C   UNL     1       4.538   3.696  17.602  0.00  0.00    +0.000 C 
ATOM     11  C   UNL     1       4.622   5.198  17.238  0.00  0.00    +0.000 C 
BRANCH  11  12
ATOM     12  C   UNL     1       6.090   5.586  16.921  0.00  0.00    +0.000 C 
BRANCH  12  13
ATOM     13  C   UNL     1       7.175   4.950  17.765  0.00  0.00    +0.000 C 
ATOM     14  O   UNL     1       7.266   5.109  18.982  0.00  0.00    +0.000 OA
BRANCH  13  15
ATOM     15  O   UNL     1       8.010   4.151  17.072  0.00  0.00    +0.000 OA
ATOM     16  H   UNL     1       8.879   4.553  16.872  0.00  0.00    +0.000 HD
ENDBRANCH  13  15
ENDBRANCH  12  13
ENDBRANCH  11  12
ENDBRANCH   1   2
BRANCH   1  17
ATOM     17  C   UNL     1       1.189   9.781  20.730  0.00  0.00    +0.000 C 
BRANCH  17  22
ATOM     18  C   UNL     1      -1.495  11.840  18.793  0.00  0.00    +0.000 A 
ATOM     19  C   UNL     1      -0.682  12.927  18.427  0.00  0.00    +0.000 A 
ATOM     20  C   UNL     1       0.706  12.913  18.613  0.00  0.00    +0.000 A 
ATOM     21  C   UNL     1       1.312  11.861  19.295  0.00  0.00    +0.000 A 
ATOM     22  C   UNL     1       0.545  10.796  19.782  0.00  0.00    +0.000 A 
ATOM     23  C   UNL     1      -0.834  10.781  19.469  0.00  0.00    +0.000 A 
BRANCH  18  31
ATOM     24  C   UNL     1      -3.651  12.862  20.751  0.00  0.00    +0.000 C 
ATOM     25  C   UNL     1      -3.965  12.254  19.404  0.00  0.00    +0.000 A 
ATOM     26  C   UNL     1      -5.343  12.134  19.112  0.00  0.00    +0.000 A 
ATOM     27  C   UNL     1      -5.784  11.637  17.897  0.00  0.00    +0.000 A 
ATOM     28  C   UNL     1      -4.851  11.240  16.956  0.00  0.00    +0.000 A 
ATOM     29  C   UNL     1      -3.464  11.293  17.225  0.00  0.00    +0.000 A 
ATOM     30  C   UNL     1      -2.586  10.770  16.112  0.00  0.00    +0.000 C 
ATOM     31  C   UNL     1      -2.973  11.805  18.473  0.00  0.00    +0.000 A 
ENDBRANCH  18  31
ENDBRANCH  17  22
ENDBRANCH   1  17
TORSDOF 7
ENDMDL
MODEL 4
REMARK VINA RESULT:      -8.5      6.370      9.224
REMARK  Name = 
REMARK  9 active torsions:
REMARK  status: ('A' for Active; 'I' for Inactive)
REMARK    1  A    between atoms: C_1  and  C_2
REMARK    2  A    between atoms: C_6  and  C_7
REMARK    3  A    between atoms: C_8  and  C_9
REMARK    4  A    between atoms: C_13  and  C_14
REMARK    5  A    between atoms: C_14  and  O_15
REMARK    6  A    between atoms: O_15  and  C_16
REMARK    7  A    between atoms: C_25  and  C_26
REMARK    8  A    between atoms: C_26  and  C_27
REMARK    9  A    between atoms: C_27  and  O_29
REMARK                            x       y       z     vdW  Elec       q    Type
REMARK                         _______ _______ _______ _____ _____    ______ ____
ROOT
ATOM      1  O   UNL     1       7.795   7.804  17.145  0.00  0.00    +0.000 OA
ENDROOT
BRANCH   1   2
ATOM      2  C   UNL     1       6.949   6.727  17.172  0.00  0.00    +0.000 A 
ATOM      3  C   UNL     1       7.178   5.411  16.789  0.00  0.00    +0.000 A 
ATOM      4  C   UNL     1       6.134   4.444  16.878  0.00  0.00    +0.000 A 
ATOM      5  C   UNL     1       4.840   4.766  17.353  0.00  0.00    +0.000 A 
ATOM      6  C   UNL     1       4.633   6.096  17.726  0.00  0.00    +0.000 A 
ATOM      7  C   UNL     1       5.679   7.045  17.636  0.00  0.00    +0.000 A 
ATOM      8  C   UNL     1       3.339   6.610  18.266  0.00  0.00    +0.000 C 
ATOM      9  C   UNL     1       2.102   5.770  18.034  0.00  0.00    +0.000 C 
ATOM     10  C   UNL     1       2.262   4.370  17.467  0.00  0.00    +0.000 C 
ATOM     11  C   UNL     1       3.679   3.771  17.301  0.00  0.00    +0.000 C 
BRANCH  11  12
ATOM     12  C   UNL     1       3.785   2.435  18.080  0.00  0.00    +0.000 C 
BRANCH  12  13
ATOM     13  C   UNL     1       4.038   2.518  19.571  0.00  0.00    +0.000 C 
ATOM     14  O   UNL     1       5.162   2.480  20.070  0.00  0.00    +0.000 OA
BRANCH  13  15
ATOM     15  O   UNL     1       2.921   2.687  20.307  0.00  0.00    +0.000 OA
ATOM     16  H   UNL     1       2.551   3.591  20.276  0.00  0.00    +0.000 HD
ENDBRANCH  13  15
ENDBRANCH  12  13
ENDBRANCH  11  12
ENDBRANCH   1   2
BRANCH   1  17
ATOM     17  C   UNL     1       7.294   9.105  17.439  0.00  0.00    +0.000 C 
BRANCH  17  22
ATOM     18  C   UNL     1       9.400  12.237  18.411  0.00  0.00    +0.000 A 
ATOM     19  C   UNL     1       9.951  11.740  19.605  0.00  0.00    +0.000 A 
ATOM     20  C   UNL     1       9.821  10.398  19.981  0.00  0.00    +0.000 A 
ATOM     21  C   UNL     1       9.019   9.536  19.238  0.00  0.00    +0.000 A 
ATOM     22  C   UNL     1       8.353   9.994  18.096  0.00  0.00    +0.000 A 
ATOM     23  C   UNL     1       8.605  11.321  17.674  0.00  0.00    +0.000 A 
BRANCH  18  31
ATOM     24  C   UNL     1      11.910  13.044  16.806  0.00  0.00    +0.000 C 
ATOM     25  C   UNL     1      10.837  14.020  17.228  0.00  0.00    +0.000 A 
ATOM     26  C   UNL     1      11.087  15.367  16.875  0.00  0.00    +0.000 A 
ATOM     27  C   UNL     1      10.173  16.369  17.154  0.00  0.00    +0.000 A 
ATOM     28  C   UNL     1       8.995  16.041  17.803  0.00  0.00    +0.000 A 
ATOM     29  C   UNL     1       8.727  14.717  18.220  0.00  0.00    +0.000 A 
ATOM     30  C   UNL     1       7.422  14.542  18.962  0.00  0.00    +0.000 C 
ATOM     31  C   UNL     1       9.652  13.655  17.944  0.00  0.00    +0.000 A 
ENDBRANCH  18  31
ENDBRANCH  17  22
ENDBRANCH   1  17
TORSDOF 7
ENDMDL
MODEL 5
REMARK VINA RESULT:      -8.3      2.340      3.829
REMARK  Name = 
REMARK  9 active torsions:
REMARK  status: ('A' for Active; 'I' for Inactive)
REMARK    1  A    between atoms: C_1  and  C_2
REMARK    2  A    between atoms: C_6  and  C_7
REMARK    3  A    between atoms: C_8  and  C_9
REMARK    4  A    between atoms: C_13  and  C_14
REMARK    5  A    between atoms: C_14  and  O_15
REMARK    6  A    between atoms: O_15  and  C_16
REMARK    7  A    between atoms: C_25  and  C_26
REMARK    8  A    between atoms: C_26  and  C_27
REMARK    9  A    between atoms: C_27  and  O_29
REMARK                            x       y       z     vdW  Elec       q    Type
REMARK                         _______ _______ _______ _____ _____    ______ ____
ROOT
ATOM      1  O   UNL     1       1.616   8.665  21.027  0.00  0.00    +0.000 OA
ENDROOT
BRANCH   1   2
ATOM      2  C   UNL     1       1.885   7.632  20.170  0.00  0.00    +0.000 A 
ATOM      3  C   UNL     1       2.364   7.664  18.866  0.00  0.00    +0.000 A 
ATOM      4  C   UNL     1       2.550   6.452  18.137  0.00  0.00    +0.000 A 
ATOM      5  C   UNL     1       2.268   5.182  18.693  0.00  0.00    +0.000 A 
ATOM      6  C   UNL     1       1.784   5.175  20.004  0.00  0.00    +0.000 A 
ATOM      7  C   UNL     1       1.606   6.385  20.716  0.00  0.00    +0.000 A 
ATOM      8  C   UNL     1       1.452   3.927  20.755  0.00  0.00    +0.000 C 
ATOM      9  C   UNL     1       1.254   2.660  19.952  0.00  0.00    +0.000 C 
ATOM     10  C   UNL     1       1.608   2.665  18.474  0.00  0.00    +0.000 C 
ATOM     11  C   UNL     1       2.318   3.897  17.864  0.00  0.00    +0.000 C 
BRANCH  11  12
ATOM     12  C   UNL     1       3.654   3.468  17.204  0.00  0.00    +0.000 C 
BRANCH  12  13
ATOM     13  C   UNL     1       4.932   3.777  17.956  0.00  0.00    +0.000 C 
ATOM     14  O   UNL     1       5.712   4.670  17.626  0.00  0.00    +0.000 OA
BRANCH  13  15
ATOM     15  O   UNL     1       5.119   3.018  19.055  0.00  0.00    +0.000 OA
ATOM     16  H   UNL     1       6.005   3.106  19.459  0.00  0.00    +0.000 HD
ENDBRANCH  13  15
ENDBRANCH  12  13
ENDBRANCH  11  12
ENDBRANCH   1   2
BRANCH   1  17
ATOM     17  C   UNL     1       0.345   8.740  21.668  0.00  0.00    +0.000 C 
BRANCH  17  22
ATOM     18  C   UNL     1      -1.145  12.339  21.785  0.00  0.00    +0.000 A 
ATOM     19  C   UNL     1      -1.410  12.487  20.412  0.00  0.00    +0.000 A 
ATOM     20  C   UNL     1      -1.308  11.416  19.516  0.00  0.00    +0.000 A 
ATOM     21  C   UNL     1      -0.807  10.189  19.944  0.00  0.00    +0.000 A 
ATOM     22  C   UNL     1      -0.422  10.006  21.277  0.00  0.00    +0.000 A 
ATOM     23  C   UNL     1      -0.655  11.068  22.182  0.00  0.00    +0.000 A 
BRANCH  18  31
ATOM     24  C   UNL     1      -3.554  12.391  23.714  0.00  0.00    +0.000 C 
ATOM     25  C   UNL     1      -2.521  13.490  23.636  0.00  0.00    +0.000 A 
ATOM     26  C   UNL     1      -2.761  14.594  24.487  0.00  0.00    +0.000 A 
ATOM     27  C   UNL     1      -1.878  15.657  24.559  0.00  0.00    +0.000 A 
ATOM     28  C   UNL     1      -0.742  15.641  23.770  0.00  0.00    +0.000 A 
ATOM     29  C   UNL     1      -0.487  14.584  22.866  0.00  0.00    +0.000 A 
ATOM     30  C   UNL     1       0.768  14.748  22.041  0.00  0.00    +0.000 C 
ATOM     31  C   UNL     1      -1.382  13.465  22.769  0.00  0.00    +0.000 A 
ENDBRANCH  18  31
ENDBRANCH  17  22
ENDBRANCH   1  17
TORSDOF 7
ENDMDL
MODEL 6
REMARK VINA RESULT:      -8.3      7.119      9.813
REMARK  Name = 
REMARK  9 active torsions:
REMARK  status: ('A' for Active; 'I' for Inactive)
REMARK    1  A    between atoms: C_1  and  C_2
REMARK    2  A    between atoms: C_6  and  C_7
REMARK    3  A    between atoms: C_8  and  C_9
REMARK    4  A    between atoms: C_13  and  C_14
REMARK    5  A    between atoms: C_14  and  O_15
REMARK    6  A    between atoms: O_15  and  C_16
REMARK    7  A    between atoms: C_25  and  C_26
REMARK    8  A    between atoms: C_26  and  C_27
REMARK    9  A    between atoms: C_27  and  O_29
REMARK                            x       y       z     vdW  Elec       q    Type
REMARK                         _______ _______ _______ _____ _____    ______ ____
ROOT
ATOM      1  O   UNL     1       8.697   8.177  18.781  0.00  0.00    +0.000 OA
ENDROOT
BRANCH   1   2
ATOM      2  C   UNL     1       7.924   7.085  18.488  0.00  0.00    +0.000 A 
ATOM      3  C   UNL     1       7.758   5.901  19.197  0.00  0.00    +0.000 A 
ATOM      4  C   UNL     1       6.912   4.871  18.690  0.00  0.00    +0.000 A 
ATOM      5  C   UNL     1       6.211   5.000  17.467  0.00  0.00    +0.000 A 
ATOM      6  C   UNL     1       6.398   6.196  16.771  0.00  0.00    +0.000 A 
ATOM      7  C   UNL     1       7.238   7.210  17.287  0.00  0.00    +0.000 A 
ATOM      8  C   UNL     1       5.724   6.511  15.475  0.00  0.00    +0.000 C 
ATOM      9  C   UNL     1       5.135   5.356  14.695  0.00  0.00    +0.000 C 
ATOM     10  C   UNL     1       5.064   3.988  15.351  0.00  0.00    +0.000 C 
ATOM     11  C   UNL     1       5.431   3.838  16.847  0.00  0.00    +0.000 C 
BRANCH  11  12
ATOM     12  C   UNL     1       4.243   3.217  17.625  0.00  0.00    +0.000 C 
BRANCH  12  13
ATOM     13  C   UNL     1       2.897   3.900  17.502  0.00  0.00    +0.000 C 
ATOM     14  O   UNL     1       1.907   3.360  17.010  0.00  0.00    +0.000 OA
BRANCH  13  15
ATOM     15  O   UNL     1       2.863   5.143  18.024  0.00  0.00    +0.000 OA
ATOM     16  H   UNL     1       3.022   5.179  18.988  0.00  0.00    +0.000 HD
ENDBRANCH  13  15
ENDBRANCH  12  13
ENDBRANCH  11  12
ENDBRANCH   1   2
BRANCH   1  17
ATOM     17  C   UNL     1       8.444   9.418  18.128  0.00  0.00    +0.000 C 
BRANCH  17  22
ATOM     18  C   UNL     1       9.841  12.987  18.836  0.00  0.00    +0.000 A 
ATOM     19  C   UNL     1      10.126  12.819  20.203  0.00  0.00    +0.000 A 
ATOM     20  C   UNL     1      10.066  11.567  20.825  0.00  0.00    +0.000 A 
ATOM     21  C   UNL     1       9.589  10.459  20.129  0.00  0.00    +0.000 A 
ATOM     22  C   UNL     1       9.186  10.580  18.795  0.00  0.00    +0.000 A 
ATOM     23  C   UNL     1       9.376  11.829  18.159  0.00  0.00    +0.000 A 
BRANCH  18  31
ATOM     24  C   UNL     1      12.327  13.632  17.124  0.00  0.00    +0.000 C 
ATOM     25  C   UNL     1      11.206  14.613  17.373  0.00  0.00    +0.000 A 
ATOM     26  C   UNL     1      11.396  15.892  16.800  0.00  0.00    +0.000 A 
ATOM     27  C   UNL     1      10.434  16.881  16.905  0.00  0.00    +0.000 A 
ATOM     28  C   UNL     1       9.266  16.612  17.596  0.00  0.00    +0.000 A 
ATOM     29  C   UNL     1       9.056  15.365  18.229  0.00  0.00    +0.000 A 
ATOM     30  C   UNL     1       7.753  15.255  18.988  0.00  0.00    +0.000 C 
ATOM     31  C   UNL     1      10.032  14.317  18.138  0.00  0.00    +0.000 A 
ENDBRANCH  18  31
ENDBRANCH  17  22
ENDBRANCH   1  17
TORSDOF 7
ENDMDL
MODEL 7
REMARK VINA RESULT:      -8.2      1.806      3.551
REMARK  Name = 
REMARK  9 active torsions:
REMARK  status: ('A' for Active; 'I' for Inactive)
REMARK    1  A    between atoms: C_1  and  C_2
REMARK    2  A    between atoms: C_6  and  C_7
REMARK    3  A    between atoms: C_8  and  C_9
REMARK    4  A    between atoms: C_13  and  C_14
REMARK    5  A    between atoms: C_14  and  O_15
REMARK    6  A    between atoms: O_15  and  C_16
REMARK    7  A    between atoms: C_25  and  C_26
REMARK    8  A    between atoms: C_26  and  C_27
REMARK    9  A    between atoms: C_27  and  O_29
REMARK                            x       y       z     vdW  Elec       q    Type
REMARK                         _______ _______ _______ _____ _____    ______ ____
ROOT
ATOM      1  O   UNL     1       1.337   8.931  21.046  0.00  0.00    +0.000 OA
ENDROOT
BRANCH   1   2
ATOM      2  C   UNL     1       1.698   7.920  20.197  0.00  0.00    +0.000 A 
ATOM      3  C   UNL     1       2.210   7.985  18.907  0.00  0.00    +0.000 A 
ATOM      4  C   UNL     1       2.497   6.789  18.185  0.00  0.00    +0.000 A 
ATOM      5  C   UNL     1       2.282   5.503  18.733  0.00  0.00    +0.000 A 
ATOM      6  C   UNL     1       1.762   5.462  20.029  0.00  0.00    +0.000 A 
ATOM      7  C   UNL     1       1.485   6.656  20.735  0.00  0.00    +0.000 A 
ATOM      8  C   UNL     1       1.491   4.194  20.770  0.00  0.00    +0.000 C 
ATOM      9  C   UNL     1       1.399   2.918  19.962  0.00  0.00    +0.000 C 
ATOM     10  C   UNL     1       1.795   2.948  18.496  0.00  0.00    +0.000 C 
ATOM     11  C   UNL     1       2.440   4.225  17.905  0.00  0.00    +0.000 C 
BRANCH  11  12
ATOM     12  C   UNL     1       3.820   3.885  17.285  0.00  0.00    +0.000 C 
BRANCH  12  13
ATOM     13  C   UNL     1       5.045   4.123  18.142  0.00  0.00    +0.000 C 
ATOM     14  O   UNL     1       5.792   5.091  18.002  0.00  0.00    +0.000 OA
BRANCH  13  15
ATOM     15  O   UNL     1       5.223   3.202  19.111  0.00  0.00    +0.000 OA
ATOM     16  H   UNL     1       5.383   2.296  18.781  0.00  0.00    +0.000 HD
ENDBRANCH  13  15
ENDBRANCH  12  13
ENDBRANCH  11  12
ENDBRANCH   1   2
BRANCH   1  17
ATOM     17  C   UNL     1      -0.035   9.298  21.168  0.00  0.00    +0.000 C 
BRANCH  17  22
ATOM     18  C   UNL     1      -0.027  12.687  19.243  0.00  0.00    +0.000 A 
ATOM     19  C   UNL     1      -0.787  12.282  18.130  0.00  0.00    +0.000 A 
ATOM     20  C   UNL     1      -1.443  11.047  18.088  0.00  0.00    +0.000 A 
ATOM     21  C   UNL     1      -1.252  10.116  19.107  0.00  0.00    +0.000 A 
ATOM     22  C   UNL     1      -0.421  10.413  20.192  0.00  0.00    +0.000 A 
ATOM     23  C   UNL     1       0.127  11.715  20.266  0.00  0.00    +0.000 A 
BRANCH  18  31
ATOM     24  C   UNL     1       2.785  13.368  18.170  0.00  0.00    +0.000 C 
ATOM     25  C   UNL     1       1.891  14.367  18.865  0.00  0.00    +0.000 A 
ATOM     26  C   UNL     1       2.457  15.651  19.042  0.00  0.00    +0.000 A 
ATOM     27  C   UNL     1       1.741  16.683  19.622  0.00  0.00    +0.000 A 
ATOM     28  C   UNL     1       0.446  16.446  20.047  0.00  0.00    +0.000 A 
ATOM     29  C   UNL     1      -0.142  15.165  19.938  0.00  0.00    +0.000 A 
ATOM     30  C   UNL     1      -1.542  15.064  20.501  0.00  0.00    +0.000 C 
ATOM     31  C   UNL     1       0.572  14.073  19.339  0.00  0.00    +0.000 A 
ENDBRANCH  18  31
ENDBRANCH  17  22
ENDBRANCH   1  17
TORSDOF 7
ENDMDL
MODEL 8
REMARK VINA RESULT:      -8.2      2.089      3.459
REMARK  Name = 
REMARK  9 active torsions:
REMARK  status: ('A' for Active; 'I' for Inactive)
REMARK    1  A    between atoms: C_1  and  C_2
REMARK    2  A    between atoms: C_6  and  C_7
REMARK    3  A    between atoms: C_8  and  C_9
REMARK    4  A    between atoms: C_13  and  C_14
REMARK    5  A    between atoms: C_14  and  O_15
REMARK    6  A    between atoms: O_15  and  C_16
REMARK    7  A    between atoms: C_25  and  C_26
REMARK    8  A    between atoms: C_26  and  C_27
REMARK    9  A    between atoms: C_27  and  O_29
REMARK                            x       y       z     vdW  Elec       q    Type
REMARK                         _______ _______ _______ _____ _____    ______ ____
ROOT
ATOM      1  O   UNL     1       2.406   8.776  18.846  0.00  0.00    +0.000 OA
ENDROOT
BRANCH   1   2
ATOM      2  C   UNL     1       2.547   7.429  18.651  0.00  0.00    +0.000 A 
ATOM      3  C   UNL     1       3.179   6.744  17.619  0.00  0.00    +0.000 A 
ATOM      4  C   UNL     1       3.184   5.318  17.600  0.00  0.00    +0.000 A 
ATOM      5  C   UNL     1       2.565   4.543  18.610  0.00  0.00    +0.000 A 
ATOM      6  C   UNL     1       1.932   5.254  19.632  0.00  0.00    +0.000 A 
ATOM      7  C   UNL     1       1.936   6.668  19.640  0.00  0.00    +0.000 A 
ATOM      8  C   UNL     1       1.244   4.602  20.787  0.00  0.00    +0.000 C 
ATOM      9  C   UNL     1       0.875   3.141  20.648  0.00  0.00    +0.000 C 
ATOM     10  C   UNL     1       1.403   2.363  19.455  0.00  0.00    +0.000 C 
ATOM     11  C   UNL     1       2.435   3.022  18.508  0.00  0.00    +0.000 C 
BRANCH  11  12
ATOM     12  C   UNL     1       3.716   2.152  18.431  0.00  0.00    +0.000 C 
BRANCH  12  13
ATOM     13  C   UNL     1       4.809   2.432  19.440  0.00  0.00    +0.000 C 
ATOM     14  O   UNL     1       4.929   1.813  20.497  0.00  0.00    +0.000 OA
BRANCH  13  15
ATOM     15  O   UNL     1       5.675   3.392  19.057  0.00  0.00    +0.000 OA
ATOM     16  H   UNL     1       6.399   3.075  18.481  0.00  0.00    +0.000 HD
ENDBRANCH  13  15
ENDBRANCH  12  13
ENDBRANCH  11  12
ENDBRANCH   1   2
BRANCH   1  17
ATOM     17  C   UNL     1       1.713   9.563  17.881  0.00  0.00    +0.000 C 
BRANCH  17  22
ATOM     18  C   UNL     1      -0.803  11.832  19.807  0.00  0.00    +0.000 A 
ATOM     19  C   UNL     1      -1.965  11.484  19.095  0.00  0.00    +0.000 A 
ATOM     20  C   UNL     1      -1.987  10.427  18.178  0.00  0.00    +0.000 A 
ATOM     21  C   UNL     1      -0.808   9.765  17.843  0.00  0.00    +0.000 A 
ATOM     22  C   UNL     1       0.405  10.133  18.435  0.00  0.00    +0.000 A 
ATOM     23  C   UNL     1       0.371  11.120  19.448  0.00  0.00    +0.000 A 
BRANCH  18  31
ATOM     24  C   UNL     1      -0.369  14.831  19.218  0.00  0.00    +0.000 C 
ATOM     25  C   UNL     1      -0.582  14.273  20.606  0.00  0.00    +0.000 A 
ATOM     26  C   UNL     1      -0.518  15.227  21.648  0.00  0.00    +0.000 A 
ATOM     27  C   UNL     1      -0.739  14.873  22.968  0.00  0.00    +0.000 A 
ATOM     28  C   UNL     1      -1.016  13.552  23.271  0.00  0.00    +0.000 A 
ATOM     29  C   UNL     1      -1.038  12.555  22.268  0.00  0.00    +0.000 A 
ATOM     30  C   UNL     1      -1.302  11.156  22.776  0.00  0.00    +0.000 C 
ATOM     31  C   UNL     1      -0.817  12.889  20.890  0.00  0.00    +0.000 A 
ENDBRANCH  18  31
ENDBRANCH  17  22
ENDBRANCH   1  17
TORSDOF 7
ENDMDL
MODEL 9
REMARK VINA RESULT:      -8.1      1.375      1.600
REMARK  Name = 
REMARK  9 active torsions:
REMARK  status: ('A' for Active; 'I' for Inactive)
REMARK    1  A    between atoms: C_1  and  C_2
REMARK    2  A    between atoms: C_6  and  C_7
REMARK    3  A    between atoms: C_8  and  C_9
REMARK    4  A    between atoms: C_13  and  C_14
REMARK    5  A    between atoms: C_14  and  O_15
REMARK    6  A    between atoms: O_15  and  C_16
REMARK    7  A    between atoms: C_25  and  C_26
REMARK    8  A    between atoms: C_26  and  C_27
REMARK    9  A    between atoms: C_27  and  O_29
REMARK                            x       y       z     vdW  Elec       q    Type
REMARK                         _______ _______ _______ _____ _____    ______ ____
ROOT
ATOM      1  O   UNL     1       0.893   8.273  21.025  0.00  0.00    +0.000 OA
ENDROOT
BRANCH   1   2
ATOM      2  C   UNL     1       1.651   7.601  20.104  0.00  0.00    +0.000 A 
ATOM      3  C   UNL     1       2.146   8.034  18.880  0.00  0.00    +0.000 A 
ATOM      4  C   UNL     1       2.902   7.148  18.056  0.00  0.00    +0.000 A 
ATOM      5  C   UNL     1       3.183   5.814  18.435  0.00  0.00    +0.000 A 
ATOM      6  C   UNL     1       2.671   5.401  19.667  0.00  0.00    +0.000 A 
ATOM      7  C   UNL     1       1.925   6.291  20.475  0.00  0.00    +0.000 A 
ATOM      8  C   UNL     1       2.884   4.036  20.234  0.00  0.00    +0.000 C 
ATOM      9  C   UNL     1       3.327   2.945  19.283  0.00  0.00    +0.000 C 
ATOM     10  C   UNL     1       3.735   3.325  17.870  0.00  0.00    +0.000 C 
ATOM     11  C   UNL     1       3.856   4.820  17.487  0.00  0.00    +0.000 C 
BRANCH  11  12
ATOM     12  C   UNL     1       5.282   5.118  16.956  0.00  0.00    +0.000 C 
BRANCH  12  13
ATOM     13  C   UNL     1       5.400   5.661  15.548  0.00  0.00    +0.000 C 
ATOM     14  O   UNL     1       5.265   6.852  15.268  0.00  0.00    +0.000 OA
BRANCH  13  15
ATOM     15  O   UNL     1       5.717   4.729  14.626  0.00  0.00    +0.000 OA
ATOM     16  H   UNL     1       4.949   4.246  14.262  0.00  0.00    +0.000 HD
ENDBRANCH  13  15
ENDBRANCH  12  13
ENDBRANCH  11  12
ENDBRANCH   1   2
BRANCH   1  17
ATOM     17  C   UNL     1       1.171   9.642  21.308  0.00  0.00    +0.000 C 
BRANCH  17  22
ATOM     18  C   UNL     1      -1.321  11.571  19.014  0.00  0.00    +0.000 A 
ATOM     19  C   UNL     1      -0.451  12.594  18.597  0.00  0.00    +0.000 A 
ATOM     20  C   UNL     1       0.921  12.561  18.872  0.00  0.00    +0.000 A 
ATOM     21  C   UNL     1       1.449  11.565  19.689  0.00  0.00    +0.000 A 
ATOM     22  C   UNL     1       0.620  10.575  20.227  0.00  0.00    +0.000 A 
ATOM     23  C   UNL     1      -0.738  10.566  19.829  0.00  0.00    +0.000 A 
BRANCH  18  31
ATOM     24  C   UNL     1      -2.322  10.086  16.500  0.00  0.00    +0.000 C 
ATOM     25  C   UNL     1      -3.223  10.878  17.418  0.00  0.00    +0.000 A 
ATOM     26  C   UNL     1      -4.577  10.939  17.015  0.00  0.00    +0.000 A 
ATOM     27  C   UNL     1      -5.530  11.590  17.780  0.00  0.00    +0.000 A 
ATOM     28  C   UNL     1      -5.141  12.203  18.957  0.00  0.00    +0.000 A 
ATOM     29  C   UNL     1      -3.790  12.213  19.372  0.00  0.00    +0.000 A 
ATOM     30  C   UNL     1      -3.528  12.973  20.652  0.00  0.00    +0.000 C 
ATOM     31  C   UNL     1      -2.777  11.544  18.605  0.00  0.00    +0.000 A 
ENDBRANCH  18  31
ENDBRANCH  17  22
ENDBRANCH   1  17
TORSDOF 7
ENDMDL
