MODEL 1
REMARK VINA RESULT:      -5.7      0.000      0.000
REMARK  Name = 
REMARK  0 active torsions:
REMARK  status: ('A' for Active; 'I' for Inactive)
REMARK                            x       y       z     vdW  Elec       q    Type
REMARK                         _______ _______ _______ _____ _____    ______ ____
ROOT
ATOM      1  O   UNL     1       8.343   4.140  17.726  0.00  0.00    +0.000 OA
ATOM      2  C   UNL     1       7.218   4.605  17.805  0.00  0.00    +0.000 A 
ATOM      3  N   UNL     1       6.129   3.999  18.382  0.00  0.00    +0.000 N 
ATOM      4  C   UNL     1       4.938   4.731  18.355  0.00  0.00    +0.000 A 
ATOM      5  C   UNL     1       3.713   4.331  18.871  0.00  0.00    +0.000 A 
ATOM      6 CL   UNL     1       3.519   2.806  19.642  0.00  0.00    +0.000 Cl
ATOM      7  C   UNL     1       2.624   5.197  18.754  0.00  0.00    +0.000 A 
ATOM      8  C   UNL     1       2.771   6.445  18.125  0.00  0.00    +0.000 A 
ATOM      9  C   UNL     1       4.010   6.838  17.608  0.00  0.00    +0.000 A 
ATOM     10  C   UNL     1       5.081   5.969  17.732  0.00  0.00    +0.000 A 
ATOM     11  S   UNL     1       6.750   6.195  17.178  0.00  0.00    +0.000 S 
ATOM     12  H   UNL     1       6.206   3.081  18.795  0.00  0.00    +0.000 HD
ENDROOT
TORSDOF 0
ENDMDL
MODEL 2
REMARK VINA RESULT:      -5.7      1.116      1.116
REMARK  Name = 
REMARK  0 active torsions:
REMARK  status: ('A' for Active; 'I' for Inactive)
REMARK                            x       y       z     vdW  Elec       q    Type
REMARK                         _______ _______ _______ _____ _____    ______ ____
ROOT
ATOM      1  O   UNL     1       7.942   4.424  16.502  0.00  0.00    +0.000 OA
ATOM      2  C   UNL     1       6.811   4.733  16.836  0.00  0.00    +0.000 A 
ATOM      3  N   UNL     1       5.777   3.867  17.099  0.00  0.00    +0.000 N 
ATOM      4  C   UNL     1       4.565   4.457  17.468  0.00  0.00    +0.000 A 
ATOM      5  C   UNL     1       3.387   3.794  17.781  0.00  0.00    +0.000 A 
ATOM      6 CL   UNL     1       3.287   2.077  17.745  0.00  0.00    +0.000 Cl
ATOM      7  C   UNL     1       2.266   4.550  18.131  0.00  0.00    +0.000 A 
ATOM      8  C   UNL     1       2.337   5.953  18.162  0.00  0.00    +0.000 A 
ATOM      9  C   UNL     1       3.529   6.612  17.844  0.00  0.00    +0.000 A 
ATOM     10  C   UNL     1       4.632   5.848  17.500  0.00  0.00    +0.000 A 
ATOM     11  S   UNL     1       6.256   6.402  17.055  0.00  0.00    +0.000 S 
ATOM     12  H   UNL     1       5.907   2.868  17.025  0.00  0.00    +0.000 HD
ENDROOT
TORSDOF 0
ENDMDL
MODEL 3
REMARK VINA RESULT:      -5.6      3.046      3.466
REMARK  Name = 
REMARK  0 active torsions:
REMARK  status: ('A' for Active; 'I' for Inactive)
REMARK                            x       y       z     vdW  Elec       q    Type
REMARK                         _______ _______ _______ _____ _____    ______ ____
ROOT
ATOM      1  O   UNL     1       7.901   5.472  13.591  0.00  0.00    +0.000 OA
ATOM      2  C   UNL     1       7.224   5.159  14.555  0.00  0.00    +0.000 A 
ATOM      3  N   UNL     1       7.468   5.503  15.863  0.00  0.00    +0.000 N 
ATOM      4  C   UNL     1       6.547   5.027  16.801  0.00  0.00    +0.000 A 
ATOM      5  C   UNL     1       6.580   5.242  18.171  0.00  0.00    +0.000 A 
ATOM      6 CL   UNL     1       7.830   6.169  18.904  0.00  0.00    +0.000 Cl
ATOM      7  C   UNL     1       5.570   4.687  18.960  0.00  0.00    +0.000 A 
ATOM      8  C   UNL     1       4.545   3.927  18.372  0.00  0.00    +0.000 A 
ATOM      9  C   UNL     1       4.521   3.716  16.990  0.00  0.00    +0.000 A 
ATOM     10  C   UNL     1       5.529   4.273  16.220  0.00  0.00    +0.000 A 
ATOM     11  S   UNL     1       5.753   4.174  14.465  0.00  0.00    +0.000 S 
ATOM     12  H   UNL     1       8.268   6.067  16.109  0.00  0.00    +0.000 HD
ENDROOT
TORSDOF 0
ENDMDL
MODEL 4
REMARK VINA RESULT:      -5.5      1.551      1.812
REMARK  Name = 
REMARK  0 active torsions:
REMARK  status: ('A' for Active; 'I' for Inactive)
REMARK                            x       y       z     vdW  Elec       q    Type
REMARK                         _______ _______ _______ _____ _____    ______ ____
ROOT
ATOM      1  O   UNL     1       7.474   4.851  18.567  0.00  0.00    +0.000 OA
ATOM      2  C   UNL     1       6.269   4.742  18.419  0.00  0.00    +0.000 A 
ATOM      3  N   UNL     1       5.548   3.574  18.477  0.00  0.00    +0.000 N 
ATOM      4  C   UNL     1       4.170   3.696  18.277  0.00  0.00    +0.000 A 
ATOM      5  C   UNL     1       3.240   2.666  18.291  0.00  0.00    +0.000 A 
ATOM      6 CL   UNL     1       3.711   1.036  18.570  0.00  0.00    +0.000 Cl
ATOM      7  C   UNL     1       1.896   2.976  18.070  0.00  0.00    +0.000 A 
ATOM      8  C   UNL     1       1.501   4.305  17.840  0.00  0.00    +0.000 A 
ATOM      9  C   UNL     1       2.446   5.335  17.828  0.00  0.00    +0.000 A 
ATOM     10  C   UNL     1       3.775   5.013  18.049  0.00  0.00    +0.000 A 
ATOM     11  S   UNL     1       5.176   6.098  18.091  0.00  0.00    +0.000 S 
ATOM     12  H   UNL     1       6.006   2.691  18.657  0.00  0.00    +0.000 HD
ENDROOT
TORSDOF 0
ENDMDL
MODEL 5
REMARK VINA RESULT:      -5.4      1.144      1.392
REMARK  Name = 
REMARK  0 active torsions:
REMARK  status: ('A' for Active; 'I' for Inactive)
REMARK                            x       y       z     vdW  Elec       q    Type
REMARK                         _______ _______ _______ _____ _____    ______ ____
ROOT
ATOM      1  O   UNL     1       7.815   4.950  17.257  0.00  0.00    +0.000 OA
ATOM      2  C   UNL     1       6.633   4.869  17.543  0.00  0.00    +0.000 A 
ATOM      3  N   UNL     1       6.064   3.951  18.393  0.00  0.00    +0.000 N 
ATOM      4  C   UNL     1       4.682   4.056  18.570  0.00  0.00    +0.000 A 
ATOM      5  C   UNL     1       3.890   3.249  19.373  0.00  0.00    +0.000 A 
ATOM      6 CL   UNL     1       4.563   1.959  20.290  0.00  0.00    +0.000 Cl
ATOM      7  C   UNL     1       2.517   3.501  19.429  0.00  0.00    +0.000 A 
ATOM      8  C   UNL     1       1.957   4.552  18.683  0.00  0.00    +0.000 A 
ATOM      9  C   UNL     1       2.764   5.360  17.875  0.00  0.00    +0.000 A 
ATOM     10  C   UNL     1       4.123   5.098  17.831  0.00  0.00    +0.000 A 
ATOM     11  S   UNL     1       5.376   5.945  16.907  0.00  0.00    +0.000 S 
ATOM     12  H   UNL     1       6.630   3.252  18.853  0.00  0.00    +0.000 HD
ENDROOT
TORSDOF 0
ENDMDL
MODEL 6
REMARK VINA RESULT:      -5.4      3.249      3.815
REMARK  Name = 
REMARK  0 active torsions:
REMARK  status: ('A' for Active; 'I' for Inactive)
REMARK                            x       y       z     vdW  Elec       q    Type
REMARK                         _______ _______ _______ _____ _____    ______ ____
ROOT
ATOM      1  O   UNL     1       4.037   2.209  20.251  0.00  0.00    +0.000 OA
ATOM      2  C   UNL     1       4.447   2.867  19.309  0.00  0.00    +0.000 A 
ATOM      3  N   UNL     1       5.521   3.723  19.325  0.00  0.00    +0.000 N 
ATOM      4  C   UNL     1       5.804   4.369  18.118  0.00  0.00    +0.000 A 
ATOM      5  C   UNL     1       6.832   5.272  17.887  0.00  0.00    +0.000 A 
ATOM      6 CL   UNL     1       7.929   5.721  19.134  0.00  0.00    +0.000 Cl
ATOM      7  C   UNL     1       6.966   5.822  16.610  0.00  0.00    +0.000 A 
ATOM      8  C   UNL     1       6.074   5.463  15.585  0.00  0.00    +0.000 A 
ATOM      9  C   UNL     1       5.041   4.553  15.828  0.00  0.00    +0.000 A 
ATOM     10  C   UNL     1       4.922   4.015  17.099  0.00  0.00    +0.000 A 
ATOM     11  S   UNL     1       3.725   2.850  17.691  0.00  0.00    +0.000 S 
ATOM     12  H   UNL     1       6.060   3.862  20.167  0.00  0.00    +0.000 HD
ENDROOT
TORSDOF 0
ENDMDL
MODEL 7
REMARK VINA RESULT:      -5.4      2.786      3.297
REMARK  Name = 
REMARK  0 active torsions:
REMARK  status: ('A' for Active; 'I' for Inactive)
REMARK                            x       y       z     vdW  Elec       q    Type
REMARK                         _______ _______ _______ _____ _____    ______ ____
ROOT
ATOM      1  O   UNL     1       4.736   1.866  20.386  0.00  0.00    +0.000 OA
ATOM      2  C   UNL     1       4.585   2.911  19.777  0.00  0.00    +0.000 A 
ATOM      3  N   UNL     1       5.475   3.469  18.892  0.00  0.00    +0.000 N 
ATOM      4  C   UNL     1       5.081   4.678  18.311  0.00  0.00    +0.000 A 
ATOM      5  C   UNL     1       5.804   5.426  17.393  0.00  0.00    +0.000 A 
ATOM      6 CL   UNL     1       7.352   4.917  16.841  0.00  0.00    +0.000 Cl
ATOM      7  C   UNL     1       5.251   6.617  16.917  0.00  0.00    +0.000 A 
ATOM      8  C   UNL     1       3.988   7.043  17.362  0.00  0.00    +0.000 A 
ATOM      9  C   UNL     1       3.268   6.282  18.288  0.00  0.00    +0.000 A 
ATOM     10  C   UNL     1       3.829   5.103  18.751  0.00  0.00    +0.000 A 
ATOM     11  S   UNL     1       3.154   3.947  19.913  0.00  0.00    +0.000 S 
ATOM     12  H   UNL     1       6.354   3.016  18.686  0.00  0.00    +0.000 HD
ENDROOT
TORSDOF 0
ENDMDL
MODEL 8
REMARK VINA RESULT:      -5.4      3.356      4.222
REMARK  Name = 
REMARK  0 active torsions:
REMARK  status: ('A' for Active; 'I' for Inactive)
REMARK                            x       y       z     vdW  Elec       q    Type
REMARK                         _______ _______ _______ _____ _____    ______ ____
ROOT
ATOM      1  O   UNL     1       1.553   3.603  17.508  0.00  0.00    +0.000 OA
ATOM      2  C   UNL     1       2.709   3.937  17.701  0.00  0.00    +0.000 A 
ATOM      3  N   UNL     1       3.738   3.858  16.793  0.00  0.00    +0.000 N 
ATOM      4  C   UNL     1       4.984   4.306  17.243  0.00  0.00    +0.000 A 
ATOM      5  C   UNL     1       6.164   4.326  16.514  0.00  0.00    +0.000 A 
ATOM      6 CL   UNL     1       6.224   3.770  14.887  0.00  0.00    +0.000 Cl
ATOM      7  C   UNL     1       7.321   4.810  17.128  0.00  0.00    +0.000 A 
ATOM      8  C   UNL     1       7.284   5.265  18.457  0.00  0.00    +0.000 A 
ATOM      9  C   UNL     1       6.089   5.240  19.183  0.00  0.00    +0.000 A 
ATOM     10  C   UNL     1       4.950   4.758  18.560  0.00  0.00    +0.000 A 
ATOM     11  S   UNL     1       3.313   4.609  19.225  0.00  0.00    +0.000 S 
ATOM     12  H   UNL     1       3.581   3.498  15.863  0.00  0.00    +0.000 HD
ENDROOT
TORSDOF 0
ENDMDL
MODEL 9
REMARK VINA RESULT:      -5.3      2.891      3.366
REMARK  Name = 
REMARK  0 active torsions:
REMARK  status: ('A' for Active; 'I' for Inactive)
REMARK                            x       y       z     vdW  Elec       q    Type
REMARK                         _______ _______ _______ _____ _____    ______ ____
ROOT
ATOM      1  O   UNL     1       5.153   1.447  20.500  0.00  0.00    +0.000 OA
ATOM      2  C   UNL     1       4.638   2.437  20.009  0.00  0.00    +0.000 A 
ATOM      3  N   UNL     1       5.292   3.450  19.351  0.00  0.00    +0.000 N 
ATOM      4  C   UNL     1       4.487   4.486  18.871  0.00  0.00    +0.000 A 
ATOM      5  C   UNL     1       4.915   5.610  18.178  0.00  0.00    +0.000 A 
ATOM      6 CL   UNL     1       6.578   5.862  17.817  0.00  0.00    +0.000 Cl
ATOM      7  C   UNL     1       3.964   6.549  17.772  0.00  0.00    +0.000 A 
ATOM      8  C   UNL     1       2.603   6.353  18.064  0.00  0.00    +0.000 A 
ATOM      9  C   UNL     1       2.182   5.218  18.763  0.00  0.00    +0.000 A 
ATOM     10  C   UNL     1       3.137   4.296  19.158  0.00  0.00    +0.000 A 
ATOM     11  S   UNL     1       2.899   2.781  20.047  0.00  0.00    +0.000 S 
ATOM     12  H   UNL     1       6.295   3.426  19.231  0.00  0.00    +0.000 HD
ENDROOT
TORSDOF 0
ENDMDL
