MODEL 1
REMARK VINA RESULT:      -6.4      0.000      0.000
REMARK  Name = 
REMARK  14 active torsions:
REMARK  status: ('A' for Active; 'I' for Inactive)
REMARK    1  A    between atoms: C_1  and  C_2
REMARK    2  A    between atoms: C_2  and  N_3
REMARK    3  A    between atoms: N_3  and  N_4
REMARK    4  A    between atoms: C_5  and  C_7
REMARK    5  A    between atoms: C_8  and  C_9
REMARK    6  A    between atoms: C_11  and  O_12
REMARK    7  A    between atoms: O_12  and  C_13
REMARK    8  A    between atoms: C_14  and  O_15
REMARK    9  A    between atoms: O_15  and  C_16
REMARK   10  A    between atoms: C_17  and  O_18
REMARK   11  A    between atoms: O_18  and  C_19
REMARK   12  A    between atoms: C_27  and  O_28
REMARK   13  A    between atoms: C_29  and  C_30
REMARK   14  A    between atoms: C_30  and  O_31
REMARK                            x       y       z     vdW  Elec       q    Type
REMARK                         _______ _______ _______ _____ _____    ______ ____
ROOT
ATOM      1  C   UNL     1      -0.563  11.913  18.080  0.00  0.00    +0.000 C 
ATOM      2  C   UNL     1      -0.887  13.172  18.949  0.00  0.00    +0.000 C 
ATOM      3  C   UNL     1       0.375  13.986  19.246  0.00  0.00    +0.000 A 
ATOM      4  C   UNL     1       0.227  15.318  19.693  0.00  0.00    +0.000 A 
ATOM      5  C   UNL     1       1.334  15.968  20.184  0.00  0.00    +0.000 A 
ATOM      6  C   UNL     1       2.569  15.371  20.206  0.00  0.00    +0.000 A 
ATOM      7  C   UNL     1       2.765  14.091  19.731  0.00  0.00    +0.000 A 
ATOM      8  C   UNL     1       1.651  13.365  19.263  0.00  0.00    +0.000 A 
ATOM      9  C   UNL     1       1.867  11.955  18.757  0.00  0.00    +0.000 C 
ATOM     10  C   UNL     1       0.602  11.068  18.650  0.00  0.00    +0.000 C 
ATOM     11  O   UNL     1       3.518  16.172  20.761  0.00  0.00    +0.000 OA
ATOM     12  C   UNL     1       2.708  17.286  21.197  0.00  0.00    +0.000 C 
ATOM     13  O   UNL     1       1.346  17.213  20.730  0.00  0.00    +0.000 OA
ENDROOT
BRANCH   2  14
ATOM     14  C   UNL     1      -1.613  12.953  20.288  0.00  0.00    +0.000 A 
ATOM     15  C   UNL     1      -2.961  13.291  20.437  0.00  0.00    +0.000 A 
ATOM     16  C   UNL     1      -3.691  12.992  21.588  0.00  0.00    +0.000 A 
ATOM     17  C   UNL     1      -3.075  12.269  22.622  0.00  0.00    +0.000 A 
ATOM     18  C   UNL     1      -1.728  11.869  22.484  0.00  0.00    +0.000 A 
ATOM     19  C   UNL     1      -1.006  12.240  21.332  0.00  0.00    +0.000 A 
BRANCH  16  20
ATOM     20  O   UNL     1      -5.008  13.360  21.746  0.00  0.00    +0.000 OA
ATOM     21  C   UNL     1      -5.293  14.755  21.667  0.00  0.00    +0.000 C 
ENDBRANCH  16  20
BRANCH  17  22
ATOM     22  O   UNL     1      -3.850  12.068  23.743  0.00  0.00    +0.000 OA
ATOM     23  C   UNL     1      -3.789  13.065  24.755  0.00  0.00    +0.000 C 
ENDBRANCH  17  22
BRANCH  18  24
ATOM     24  O   UNL     1      -1.176  11.133  23.501  0.00  0.00    +0.000 OA
ATOM     25  C   UNL     1      -0.489   9.934  23.172  0.00  0.00    +0.000 C 
ENDBRANCH  18  24
ENDBRANCH   2  14
BRANCH   1  27
ATOM     26  N   UNL     1      -2.719  11.735  16.963  0.00  0.00    +0.000 N 
ATOM     27  C   UNL     1      -1.839  11.118  17.846  0.00  0.00    +0.000 C 
ATOM     28  O   UNL     1      -2.069  10.041  18.395  0.00  0.00    +0.000 OA
ATOM     29  H   UNL     1      -2.465  12.592  16.482  0.00  0.00    +0.000 HD
BRANCH  26  30
ATOM     30  N   UNL     1      -3.911  11.082  16.580  0.00  0.00    +0.000 NA
ATOM     31  H   UNL     1      -3.939  11.069  15.550  0.00  0.00    +0.000 HD
BRANCH  30  33
ATOM     32  C   UNL     1      -5.511  11.273  18.433  0.00  0.00    +0.000 C 
ATOM     33  C   UNL     1      -5.084  11.809  17.074  0.00  0.00    +0.000 C 
ENDBRANCH  30  33
ENDBRANCH  26  30
ENDBRANCH   1  27
BRANCH   9  34
ATOM     34  O   UNL     1       2.469  12.057  17.465  0.00  0.00    +0.000 OA
ATOM     35  H   UNL     1       2.920  11.218  17.265  0.00  0.00    +0.000 HD
ENDBRANCH   9  34
BRANCH  10  36
ATOM     36  C   UNL     1       0.942   9.789  17.855  0.00  0.00    +0.000 C 
BRANCH  36  37
ATOM     37  O   UNL     1       2.263   9.314  18.061  0.00  0.00    +0.000 OA
ATOM     38  H   UNL     1       2.620   8.950  17.224  0.00  0.00    +0.000 HD
ENDBRANCH  36  37
ENDBRANCH  10  36
TORSDOF 10
ENDMDL
MODEL 2
REMARK VINA RESULT:      -6.3      0.905      1.085
REMARK  Name = 
REMARK  14 active torsions:
REMARK  status: ('A' for Active; 'I' for Inactive)
REMARK    1  A    between atoms: C_1  and  C_2
REMARK    2  A    between atoms: C_2  and  N_3
REMARK    3  A    between atoms: N_3  and  N_4
REMARK    4  A    between atoms: C_5  and  C_7
REMARK    5  A    between atoms: C_8  and  C_9
REMARK    6  A    between atoms: C_11  and  O_12
REMARK    7  A    between atoms: O_12  and  C_13
REMARK    8  A    between atoms: C_14  and  O_15
REMARK    9  A    between atoms: O_15  and  C_16
REMARK   10  A    between atoms: C_17  and  O_18
REMARK   11  A    between atoms: O_18  and  C_19
REMARK   12  A    between atoms: C_27  and  O_28
REMARK   13  A    between atoms: C_29  and  C_30
REMARK   14  A    between atoms: C_30  and  O_31
REMARK                            x       y       z     vdW  Elec       q    Type
REMARK                         _______ _______ _______ _____ _____    ______ ____
ROOT
ATOM      1  C   UNL     1      -0.395  12.016  18.128  0.00  0.00    +0.000 C 
ATOM      2  C   UNL     1      -0.718  13.254  19.026  0.00  0.00    +0.000 C 
ATOM      3  C   UNL     1       0.551  14.035  19.377  0.00  0.00    +0.000 A 
ATOM      4  C   UNL     1       0.416  15.356  19.861  0.00  0.00    +0.000 A 
ATOM      5  C   UNL     1       1.523  15.970  20.397  0.00  0.00    +0.000 A 
ATOM      6  C   UNL     1       2.746  15.350  20.430  0.00  0.00    +0.000 A 
ATOM      7  C   UNL     1       2.930  14.082  19.921  0.00  0.00    +0.000 A 
ATOM      8  C   UNL     1       1.815  13.391  19.405  0.00  0.00    +0.000 A 
ATOM      9  C   UNL     1       2.017  11.992  18.862  0.00  0.00    +0.000 C 
ATOM     10  C   UNL     1       0.740  11.132  18.698  0.00  0.00    +0.000 C 
ATOM     11  O   UNL     1       3.696  16.117  21.030  0.00  0.00    +0.000 OA
ATOM     12  C   UNL     1       2.896  17.232  21.481  0.00  0.00    +0.000 C 
ATOM     13  O   UNL     1       1.544  17.198  20.980  0.00  0.00    +0.000 OA
ENDROOT
BRANCH   2  14
ATOM     14  C   UNL     1      -1.479  13.009  20.341  0.00  0.00    +0.000 A 
ATOM     15  C   UNL     1      -2.822  13.377  20.471  0.00  0.00    +0.000 A 
ATOM     16  C   UNL     1      -3.585  13.059  21.595  0.00  0.00    +0.000 A 
ATOM     17  C   UNL     1      -3.011  12.284  22.618  0.00  0.00    +0.000 A 
ATOM     18  C   UNL     1      -1.672  11.854  22.495  0.00  0.00    +0.000 A 
ATOM     19  C   UNL     1      -0.915  12.245  21.373  0.00  0.00    +0.000 A 
BRANCH  16  20
ATOM     20  O   UNL     1      -4.895  13.455  21.737  0.00  0.00    +0.000 OA
ATOM     21  C   UNL     1      -5.141  14.860  21.719  0.00  0.00    +0.000 C 
ENDBRANCH  16  20
BRANCH  17  22
ATOM     22  O   UNL     1      -3.816  12.066  23.714  0.00  0.00    +0.000 OA
ATOM     23  C   UNL     1      -3.776  13.042  24.746  0.00  0.00    +0.000 C 
ENDBRANCH  17  22
BRANCH  18  24
ATOM     24  O   UNL     1      -1.162  11.070  23.497  0.00  0.00    +0.000 OA
ATOM     25  C   UNL     1      -0.484   9.873  23.141  0.00  0.00    +0.000 C 
ENDBRANCH  18  24
ENDBRANCH   2  14
BRANCH   1  27
ATOM     26  N   UNL     1      -2.298  11.638  16.655  0.00  0.00    +0.000 N 
ATOM     27  C   UNL     1      -1.680  11.251  17.840  0.00  0.00    +0.000 C 
ATOM     28  O   UNL     1      -2.128  10.386  18.590  0.00  0.00    +0.000 OA
ATOM     29  H   UNL     1      -1.863  12.312  16.031  0.00  0.00    +0.000 HD
BRANCH  26  30
ATOM     30  N   UNL     1      -3.455  10.964  16.208  0.00  0.00    +0.000 NA
ATOM     31  H   UNL     1      -3.992  10.686  17.042  0.00  0.00    +0.000 HD
BRANCH  30  33
ATOM     32  C   UNL     1      -3.114  10.039  13.959  0.00  0.00    +0.000 C 
ATOM     33  C   UNL     1      -3.097   9.759  15.455  0.00  0.00    +0.000 C 
ENDBRANCH  30  33
ENDBRANCH  26  30
ENDBRANCH   1  27
BRANCH   9  34
ATOM     34  O   UNL     1       2.653  12.122  17.588  0.00  0.00    +0.000 OA
ATOM     35  H   UNL     1       2.161  11.588  16.940  0.00  0.00    +0.000 HD
ENDBRANCH   9  34
BRANCH  10  36
ATOM     36  C   UNL     1       1.076   9.872  17.873  0.00  0.00    +0.000 C 
BRANCH  36  37
ATOM     37  O   UNL     1       2.392   9.382  18.075  0.00  0.00    +0.000 OA
ATOM     38  H   UNL     1       2.691   8.893  17.281  0.00  0.00    +0.000 HD
ENDBRANCH  36  37
ENDBRANCH  10  36
TORSDOF 10
ENDMDL
MODEL 3
REMARK VINA RESULT:      -6.2      1.033      2.450
REMARK  Name = 
REMARK  14 active torsions:
REMARK  status: ('A' for Active; 'I' for Inactive)
REMARK    1  A    between atoms: C_1  and  C_2
REMARK    2  A    between atoms: C_2  and  N_3
REMARK    3  A    between atoms: N_3  and  N_4
REMARK    4  A    between atoms: C_5  and  C_7
REMARK    5  A    between atoms: C_8  and  C_9
REMARK    6  A    between atoms: C_11  and  O_12
REMARK    7  A    between atoms: O_12  and  C_13
REMARK    8  A    between atoms: C_14  and  O_15
REMARK    9  A    between atoms: O_15  and  C_16
REMARK   10  A    between atoms: C_17  and  O_18
REMARK   11  A    between atoms: O_18  and  C_19
REMARK   12  A    between atoms: C_27  and  O_28
REMARK   13  A    between atoms: C_29  and  C_30
REMARK   14  A    between atoms: C_30  and  O_31
REMARK                            x       y       z     vdW  Elec       q    Type
REMARK                         _______ _______ _______ _____ _____    ______ ____
ROOT
ATOM      1  C   UNL     1      -0.470  11.850  18.026  0.00  0.00    +0.000 C 
ATOM      2  C   UNL     1      -0.895  13.021  18.971  0.00  0.00    +0.000 C 
ATOM      3  C   UNL     1       0.317  13.835  19.430  0.00  0.00    +0.000 A 
ATOM      4  C   UNL     1       0.097  15.120  19.975  0.00  0.00    +0.000 A 
ATOM      5  C   UNL     1       1.146  15.751  20.602  0.00  0.00    +0.000 A 
ATOM      6  C   UNL     1       2.393  15.183  20.667  0.00  0.00    +0.000 A 
ATOM      7  C   UNL     1       2.661  13.955  20.102  0.00  0.00    +0.000 A 
ATOM      8  C   UNL     1       1.607  13.246  19.491  0.00  0.00    +0.000 A 
ATOM      9  C   UNL     1       1.901  11.890  18.886  0.00  0.00    +0.000 C 
ATOM     10  C   UNL     1       0.675  10.986  18.609  0.00  0.00    +0.000 C 
ATOM     11  O   UNL     1       3.274  15.956  21.357  0.00  0.00    +0.000 OA
ATOM     12  C   UNL     1       2.402  17.009  21.823  0.00  0.00    +0.000 C 
ATOM     13  O   UNL     1       1.080  16.944  21.250  0.00  0.00    +0.000 OA
ENDROOT
BRANCH   2  14
ATOM     14  C   UNL     1      -1.710  12.671  20.228  0.00  0.00    +0.000 A 
ATOM     15  C   UNL     1      -1.121  11.988  21.297  0.00  0.00    +0.000 A 
ATOM     16  C   UNL     1      -1.784  11.763  22.504  0.00  0.00    +0.000 A 
ATOM     17  C   UNL     1      -3.071  12.293  22.689  0.00  0.00    +0.000 A 
ATOM     18  C   UNL     1      -3.676  13.031  21.648  0.00  0.00    +0.000 A 
ATOM     19  C   UNL     1      -3.000  13.187  20.421  0.00  0.00    +0.000 A 
BRANCH  16  20
ATOM     20  O   UNL     1      -1.216  11.057  23.540  0.00  0.00    +0.000 OA
ATOM     21  C   UNL     1      -0.491   9.880  23.187  0.00  0.00    +0.000 C 
ENDBRANCH  16  20
BRANCH  17  22
ATOM     22  O   UNL     1      -3.673  11.975  23.887  0.00  0.00    +0.000 OA
ATOM     23  C   UNL     1      -3.867  13.038  24.811  0.00  0.00    +0.000 C 
ENDBRANCH  17  22
BRANCH  18  24
ATOM     24  O   UNL     1      -4.918  13.561  21.883  0.00  0.00    +0.000 OA
ATOM     25  C   UNL     1      -6.057  12.836  21.443  0.00  0.00    +0.000 C 
ENDBRANCH  18  24
ENDBRANCH   2  14
BRANCH   1  27
ATOM     26  N   UNL     1      -2.326  11.528  16.484  0.00  0.00    +0.000 N 
ATOM     27  C   UNL     1      -1.701  11.047  17.630  0.00  0.00    +0.000 C 
ATOM     28  O   UNL     1      -2.104  10.078  18.270  0.00  0.00    +0.000 OA
ATOM     29  H   UNL     1      -1.925  12.292  15.948  0.00  0.00    +0.000 HD
BRANCH  26  30
ATOM     30  N   UNL     1      -3.435  10.841  15.942  0.00  0.00    +0.000 NA
ATOM     31  H   UNL     1      -3.882  10.322  16.711  0.00  0.00    +0.000 HD
BRANCH  30  33
ATOM     32  C   UNL     1      -3.848  10.034  13.660  0.00  0.00    +0.000 C 
ATOM     33  C   UNL     1      -3.004   9.886  14.918  0.00  0.00    +0.000 C 
ENDBRANCH  30  33
ENDBRANCH  26  30
ENDBRANCH   1  27
BRANCH   9  34
ATOM     34  O   UNL     1       2.594  12.117  17.657  0.00  0.00    +0.000 OA
ATOM     35  H   UNL     1       3.549  12.027  17.817  0.00  0.00    +0.000 HD
ENDBRANCH   9  34
BRANCH  10  36
ATOM     36  C   UNL     1       1.111   9.789  17.737  0.00  0.00    +0.000 C 
BRANCH  36  37
ATOM     37  O   UNL     1       2.401   9.287  18.046  0.00  0.00    +0.000 OA
ATOM     38  H   UNL     1       2.861   9.902  18.654  0.00  0.00    +0.000 HD
ENDBRANCH  36  37
ENDBRANCH  10  36
TORSDOF 10
ENDMDL
MODEL 4
REMARK VINA RESULT:      -6.2      0.484      2.196
REMARK  Name = 
REMARK  14 active torsions:
REMARK  status: ('A' for Active; 'I' for Inactive)
REMARK    1  A    between atoms: C_1  and  C_2
REMARK    2  A    between atoms: C_2  and  N_3
REMARK    3  A    between atoms: N_3  and  N_4
REMARK    4  A    between atoms: C_5  and  C_7
REMARK    5  A    between atoms: C_8  and  C_9
REMARK    6  A    between atoms: C_11  and  O_12
REMARK    7  A    between atoms: O_12  and  C_13
REMARK    8  A    between atoms: C_14  and  O_15
REMARK    9  A    between atoms: O_15  and  C_16
REMARK   10  A    between atoms: C_17  and  O_18
REMARK   11  A    between atoms: O_18  and  C_19
REMARK   12  A    between atoms: C_27  and  O_28
REMARK   13  A    between atoms: C_29  and  C_30
REMARK   14  A    between atoms: C_30  and  O_31
REMARK                            x       y       z     vdW  Elec       q    Type
REMARK                         _______ _______ _______ _____ _____    ______ ____
ROOT
ATOM      1  C   UNL     1      -0.579  11.700  18.009  0.00  0.00    +0.000 C 
ATOM      2  C   UNL     1      -0.955  12.896  18.943  0.00  0.00    +0.000 C 
ATOM      3  C   UNL     1       0.285  13.693  19.356  0.00  0.00    +0.000 A 
ATOM      4  C   UNL     1       0.106  14.991  19.883  0.00  0.00    +0.000 A 
ATOM      5  C   UNL     1       1.183  15.611  20.471  0.00  0.00    +0.000 A 
ATOM      6  C   UNL     1       2.420  15.019  20.513  0.00  0.00    +0.000 A 
ATOM      7  C   UNL     1       2.648  13.775  19.963  0.00  0.00    +0.000 A 
ATOM      8  C   UNL     1       1.564  13.078  19.393  0.00  0.00    +0.000 A 
ATOM      9  C   UNL     1       1.814  11.706  18.804  0.00  0.00    +0.000 C 
ATOM     10  C   UNL     1       0.563  10.822  18.576  0.00  0.00    +0.000 C 
ATOM     11  O   UNL     1       3.335  15.785  21.165  0.00  0.00    +0.000 OA
ATOM     12  C   UNL     1       2.497  16.864  21.635  0.00  0.00    +0.000 C 
ATOM     13  O   UNL     1       1.160  16.816  21.099  0.00  0.00    +0.000 OA
ENDROOT
BRANCH   2  14
ATOM     14  C   UNL     1      -1.742  12.584  20.228  0.00  0.00    +0.000 A 
ATOM     15  C   UNL     1      -1.135  11.922  21.299  0.00  0.00    +0.000 A 
ATOM     16  C   UNL     1      -1.770  11.733  22.526  0.00  0.00    +0.000 A 
ATOM     17  C   UNL     1      -3.048  12.280  22.730  0.00  0.00    +0.000 A 
ATOM     18  C   UNL     1      -3.671  12.997  21.685  0.00  0.00    +0.000 A 
ATOM     19  C   UNL     1      -3.023  13.117  20.439  0.00  0.00    +0.000 A 
BRANCH  16  20
ATOM     20  O   UNL     1      -1.184  11.047  23.566  0.00  0.00    +0.000 OA
ATOM     21  C   UNL     1      -0.458   9.869  23.223  0.00  0.00    +0.000 C 
ENDBRANCH  16  20
BRANCH  17  22
ATOM     22  O   UNL     1      -3.623  11.997  23.949  0.00  0.00    +0.000 OA
ATOM     23  C   UNL     1      -3.795  13.086  24.847  0.00  0.00    +0.000 C 
ENDBRANCH  17  22
BRANCH  18  24
ATOM     24  O   UNL     1      -4.902  13.546  21.936  0.00  0.00    +0.000 OA
ATOM     25  C   UNL     1      -6.058  12.827  21.528  0.00  0.00    +0.000 C 
ENDBRANCH  18  24
ENDBRANCH   2  14
BRANCH   1  27
ATOM     26  N   UNL     1      -2.691  11.600  16.800  0.00  0.00    +0.000 N 
ATOM     27  C   UNL     1      -1.837  10.916  17.660  0.00  0.00    +0.000 C 
ATOM     28  O   UNL     1      -2.074   9.795  18.106  0.00  0.00    +0.000 OA
ATOM     29  H   UNL     1      -2.429  12.497  16.403  0.00  0.00    +0.000 HD
BRANCH  26  30
ATOM     30  N   UNL     1      -3.860  10.972  16.318  0.00  0.00    +0.000 NA
ATOM     31  H   UNL     1      -3.862  11.068  15.292  0.00  0.00    +0.000 HD
BRANCH  30  33
ATOM     32  C   UNL     1      -5.437  11.022  18.200  0.00  0.00    +0.000 C 
ATOM     33  C   UNL     1      -5.058  11.624  16.854  0.00  0.00    +0.000 C 
ENDBRANCH  30  33
ENDBRANCH  26  30
ENDBRANCH   1  27
BRANCH   9  34
ATOM     34  O   UNL     1       2.478  11.898  17.553  0.00  0.00    +0.000 OA
ATOM     35  H   UNL     1       2.296  12.801  17.240  0.00  0.00    +0.000 HD
ENDBRANCH   9  34
BRANCH  10  36
ATOM     36  C   UNL     1       0.951   9.602  17.714  0.00  0.00    +0.000 C 
BRANCH  36  37
ATOM     37  O   UNL     1       2.215   9.046  18.035  0.00  0.00    +0.000 OA
ATOM     38  H   UNL     1       2.464   8.375  17.365  0.00  0.00    +0.000 HD
ENDBRANCH  36  37
ENDBRANCH  10  36
TORSDOF 10
ENDMDL
MODEL 5
REMARK VINA RESULT:      -6.0      2.672      6.094
REMARK  Name = 
REMARK  14 active torsions:
REMARK  status: ('A' for Active; 'I' for Inactive)
REMARK    1  A    between atoms: C_1  and  C_2
REMARK    2  A    between atoms: C_2  and  N_3
REMARK    3  A    between atoms: N_3  and  N_4
REMARK    4  A    between atoms: C_5  and  C_7
REMARK    5  A    between atoms: C_8  and  C_9
REMARK    6  A    between atoms: C_11  and  O_12
REMARK    7  A    between atoms: O_12  and  C_13
REMARK    8  A    between atoms: C_14  and  O_15
REMARK    9  A    between atoms: O_15  and  C_16
REMARK   10  A    between atoms: C_17  and  O_18
REMARK   11  A    between atoms: O_18  and  C_19
REMARK   12  A    between atoms: C_27  and  O_28
REMARK   13  A    between atoms: C_29  and  C_30
REMARK   14  A    between atoms: C_30  and  O_31
REMARK                            x       y       z     vdW  Elec       q    Type
REMARK                         _______ _______ _______ _____ _____    ______ ____
ROOT
ATOM      1  C   UNL     1      -2.250  13.561  22.536  0.00  0.00    +0.000 C 
ATOM      2  C   UNL     1      -1.443  13.657  21.200  0.00  0.00    +0.000 C 
ATOM      3  C   UNL     1      -1.485  15.074  20.624  0.00  0.00    +0.000 A 
ATOM      4  C   UNL     1      -0.533  15.430  19.643  0.00  0.00    +0.000 A 
ATOM      5  C   UNL     1      -0.712  16.608  18.956  0.00  0.00    +0.000 A 
ATOM      6  C   UNL     1      -1.758  17.451  19.234  0.00  0.00    +0.000 A 
ATOM      7  C   UNL     1      -2.679  17.165  20.219  0.00  0.00    +0.000 A 
ATOM      8  C   UNL     1      -2.567  15.945  20.918  0.00  0.00    +0.000 A 
ATOM      9  C   UNL     1      -3.589  15.626  21.987  0.00  0.00    +0.000 C 
ATOM     10  C   UNL     1      -3.680  14.143  22.424  0.00  0.00    +0.000 C 
ATOM     11  O   UNL     1      -1.770  18.541  18.420  0.00  0.00    +0.000 OA
ATOM     12  C   UNL     1      -0.687  18.217  17.521  0.00  0.00    +0.000 C 
ATOM     13  O   UNL     1       0.059  17.053  17.929  0.00  0.00    +0.000 OA
ENDROOT
BRANCH   2  14
ATOM     14  C   UNL     1      -1.819  12.692  20.063  0.00  0.00    +0.000 A 
ATOM     15  C   UNL     1      -0.893  11.767  19.571  0.00  0.00    +0.000 A 
ATOM     16  C   UNL     1      -1.228  10.790  18.633  0.00  0.00    +0.000 A 
ATOM     17  C   UNL     1      -2.560  10.680  18.202  0.00  0.00    +0.000 A 
ATOM     18  C   UNL     1      -3.532  11.567  18.716  0.00  0.00    +0.000 A 
ATOM     19  C   UNL     1      -3.144  12.579  19.617  0.00  0.00    +0.000 A 
BRANCH  16  20
ATOM     20  O   UNL     1      -0.305   9.905  18.123  0.00  0.00    +0.000 OA
ATOM     21  C   UNL     1       1.055  10.118  18.497  0.00  0.00    +0.000 C 
ENDBRANCH  16  20
BRANCH  17  22
ATOM     22  O   UNL     1      -2.790   9.728  17.235  0.00  0.00    +0.000 OA
ATOM     23  C   UNL     1      -2.748  10.162  15.882  0.00  0.00    +0.000 C 
ENDBRANCH  17  22
BRANCH  18  24
ATOM     24  O   UNL     1      -4.827  11.403  18.297  0.00  0.00    +0.000 OA
ATOM     25  C   UNL     1      -5.870  11.556  19.249  0.00  0.00    +0.000 C 
ENDBRANCH  18  24
ENDBRANCH   2  14
BRANCH   1  27
ATOM     26  N   UNL     1      -0.949  11.548  22.970  0.00  0.00    +0.000 N 
ATOM     27  C   UNL     1      -2.212  12.127  23.048  0.00  0.00    +0.000 C 
ATOM     28  O   UNL     1      -3.205  11.542  23.476  0.00  0.00    +0.000 OA
ATOM     29  H   UNL     1      -0.142  12.086  22.670  0.00  0.00    +0.000 HD
BRANCH  26  30
ATOM     30  N   UNL     1      -0.734  10.250  23.482  0.00  0.00    +0.000 NA
ATOM     31  H   UNL     1      -0.396  10.352  24.450  0.00  0.00    +0.000 HD
BRANCH  30  33
ATOM     32  C   UNL     1      -0.369   8.655  21.651  0.00  0.00    +0.000 C 
ATOM     33  C   UNL     1       0.284   9.545  22.700  0.00  0.00    +0.000 C 
ENDBRANCH  30  33
ENDBRANCH  26  30
ENDBRANCH   1  27
BRANCH   9  34
ATOM     34  O   UNL     1      -3.269  16.425  23.129  0.00  0.00    +0.000 OA
ATOM     35  H   UNL     1      -3.040  17.321  22.827  0.00  0.00    +0.000 HD
ENDBRANCH   9  34
BRANCH  10  36
ATOM     36  C   UNL     1      -4.538  14.040  23.702  0.00  0.00    +0.000 C 
BRANCH  36  37
ATOM     37  O   UNL     1      -3.823  14.288  24.902  0.00  0.00    +0.000 OA
ATOM     38  H   UNL     1      -2.867  14.383  24.707  0.00  0.00    +0.000 HD
ENDBRANCH  36  37
ENDBRANCH  10  36
TORSDOF 10
ENDMDL
MODEL 6
REMARK VINA RESULT:      -5.9      0.912      1.019
REMARK  Name = 
REMARK  14 active torsions:
REMARK  status: ('A' for Active; 'I' for Inactive)
REMARK    1  A    between atoms: C_1  and  C_2
REMARK    2  A    between atoms: C_2  and  N_3
REMARK    3  A    between atoms: N_3  and  N_4
REMARK    4  A    between atoms: C_5  and  C_7
REMARK    5  A    between atoms: C_8  and  C_9
REMARK    6  A    between atoms: C_11  and  O_12
REMARK    7  A    between atoms: O_12  and  C_13
REMARK    8  A    between atoms: C_14  and  O_15
REMARK    9  A    between atoms: O_15  and  C_16
REMARK   10  A    between atoms: C_17  and  O_18
REMARK   11  A    between atoms: O_18  and  C_19
REMARK   12  A    between atoms: C_27  and  O_28
REMARK   13  A    between atoms: C_29  and  C_30
REMARK   14  A    between atoms: C_30  and  O_31
REMARK                            x       y       z     vdW  Elec       q    Type
REMARK                         _______ _______ _______ _____ _____    ______ ____
ROOT
ATOM      1  C   UNL     1      -0.083  11.951  18.306  0.00  0.00    +0.000 C 
ATOM      2  C   UNL     1      -0.807  13.195  18.916  0.00  0.00    +0.000 C 
ATOM      3  C   UNL     1       0.166  14.356  19.134  0.00  0.00    +0.000 A 
ATOM      4  C   UNL     1      -0.365  15.651  19.327  0.00  0.00    +0.000 A 
ATOM      5  C   UNL     1       0.482  16.646  19.756  0.00  0.00    +0.000 A 
ATOM      6  C   UNL     1       1.820  16.417  19.953  0.00  0.00    +0.000 A 
ATOM      7  C   UNL     1       2.386  15.180  19.726  0.00  0.00    +0.000 A 
ATOM      8  C   UNL     1       1.551  14.115  19.332  0.00  0.00    +0.000 A 
ATOM      9  C   UNL     1       2.172  12.755  19.099  0.00  0.00    +0.000 C 
ATOM     10  C   UNL     1       1.196  11.553  19.081  0.00  0.00    +0.000 C 
ATOM     11  O   UNL     1       2.470  17.523  20.408  0.00  0.00    +0.000 OA
ATOM     12  C   UNL     1       1.360  18.429  20.592  0.00  0.00    +0.000 C 
ATOM     13  O   UNL     1       0.117  17.917  20.070  0.00  0.00    +0.000 OA
ENDROOT
BRANCH   2  14
ATOM     14  C   UNL     1      -1.584  13.001  20.230  0.00  0.00    +0.000 A 
ATOM     15  C   UNL     1      -2.949  13.295  20.306  0.00  0.00    +0.000 A 
ATOM     16  C   UNL     1      -3.719  13.014  21.435  0.00  0.00    +0.000 A 
ATOM     17  C   UNL     1      -3.126  12.352  22.523  0.00  0.00    +0.000 A 
ATOM     18  C   UNL     1      -1.761  11.996  22.460  0.00  0.00    +0.000 A 
ATOM     19  C   UNL     1      -1.001  12.349  21.326  0.00  0.00    +0.000 A 
BRANCH  16  20
ATOM     20  O   UNL     1      -5.053  13.339  21.521  0.00  0.00    +0.000 OA
ATOM     21  C   UNL     1      -5.427  14.629  21.039  0.00  0.00    +0.000 C 
ENDBRANCH  16  20
BRANCH  17  22
ATOM     22  O   UNL     1      -3.942  12.166  23.616  0.00  0.00    +0.000 OA
ATOM     23  C   UNL     1      -3.926  13.180  24.612  0.00  0.00    +0.000 C 
ENDBRANCH  17  22
BRANCH  18  24
ATOM     24  O   UNL     1      -1.230  11.319  23.527  0.00  0.00    +0.000 OA
ATOM     25  C   UNL     1      -0.612  10.062  23.292  0.00  0.00    +0.000 C 
ENDBRANCH  18  24
ENDBRANCH   2  14
BRANCH   1  27
ATOM     26  N   UNL     1      -1.833  10.899  16.979  0.00  0.00    +0.000 N 
ATOM     27  C   UNL     1      -1.081  10.812  18.146  0.00  0.00    +0.000 C 
ATOM     28  O   UNL     1      -1.212   9.914  18.976  0.00  0.00    +0.000 OA
ATOM     29  H   UNL     1      -1.650  11.621  16.288  0.00  0.00    +0.000 HD
BRANCH  26  30
ATOM     30  N   UNL     1      -2.744   9.872  16.647  0.00  0.00    +0.000 NA
ATOM     31  H   UNL     1      -2.858   9.879  15.623  0.00  0.00    +0.000 HD
BRANCH  30  33
ATOM     32  C   UNL     1      -4.567  11.498  16.899  0.00  0.00    +0.000 C 
ATOM     33  C   UNL     1      -4.049  10.115  17.268  0.00  0.00    +0.000 C 
ENDBRANCH  30  33
ENDBRANCH  26  30
ENDBRANCH   1  27
BRANCH   9  34
ATOM     34  O   UNL     1       2.856  12.813  17.846  0.00  0.00    +0.000 OA
ATOM     35  H   UNL     1       3.355  11.986  17.726  0.00  0.00    +0.000 HD
ENDBRANCH   9  34
BRANCH  10  36
ATOM     36  C   UNL     1       1.933  10.306  18.547  0.00  0.00    +0.000 C 
BRANCH  36  37
ATOM     37  O   UNL     1       2.098  10.290  17.138  0.00  0.00    +0.000 OA
ATOM     38  H   UNL     1       2.520   9.450  16.861  0.00  0.00    +0.000 HD
ENDBRANCH  36  37
ENDBRANCH  10  36
TORSDOF 10
ENDMDL
MODEL 7
REMARK VINA RESULT:      -5.9      2.171      5.623
REMARK  Name = 
REMARK  14 active torsions:
REMARK  status: ('A' for Active; 'I' for Inactive)
REMARK    1  A    between atoms: C_1  and  C_2
REMARK    2  A    between atoms: C_2  and  N_3
REMARK    3  A    between atoms: N_3  and  N_4
REMARK    4  A    between atoms: C_5  and  C_7
REMARK    5  A    between atoms: C_8  and  C_9
REMARK    6  A    between atoms: C_11  and  O_12
REMARK    7  A    between atoms: O_12  and  C_13
REMARK    8  A    between atoms: C_14  and  O_15
REMARK    9  A    between atoms: O_15  and  C_16
REMARK   10  A    between atoms: C_17  and  O_18
REMARK   11  A    between atoms: O_18  and  C_19
REMARK   12  A    between atoms: C_27  and  O_28
REMARK   13  A    between atoms: C_29  and  C_30
REMARK   14  A    between atoms: C_30  and  O_31
REMARK                            x       y       z     vdW  Elec       q    Type
REMARK                         _______ _______ _______ _____ _____    ______ ____
ROOT
ATOM      1  C   UNL     1      -2.809  11.888  20.031  0.00  0.00    +0.000 C 
ATOM      2  C   UNL     1      -1.640  12.586  20.801  0.00  0.00    +0.000 C 
ATOM      3  C   UNL     1      -2.137  13.249  22.088  0.00  0.00    +0.000 A 
ATOM      4  C   UNL     1      -1.188  13.601  23.073  0.00  0.00    +0.000 A 
ATOM      5  C   UNL     1      -1.593  14.403  24.113  0.00  0.00    +0.000 A 
ATOM      6  C   UNL     1      -2.894  14.824  24.233  0.00  0.00    +0.000 A 
ATOM      7  C   UNL     1      -3.861  14.460  23.321  0.00  0.00    +0.000 A 
ATOM      8  C   UNL     1      -3.484  13.679  22.209  0.00  0.00    +0.000 A 
ATOM      9  C   UNL     1      -4.545  13.294  21.201  0.00  0.00    +0.000 C 
ATOM     10  C   UNL     1      -4.033  12.812  19.821  0.00  0.00    +0.000 C 
ATOM     11  O   UNL     1      -3.075  15.633  25.311  0.00  0.00    +0.000 OA
ATOM     12  C   UNL     1      -1.715  15.770  25.777  0.00  0.00    +0.000 C 
ATOM     13  O   UNL     1      -0.791  14.900  25.092  0.00  0.00    +0.000 OA
ENDROOT
BRANCH   2  14
ATOM     14  C   UNL     1      -0.805  13.633  20.043  0.00  0.00    +0.000 A 
ATOM     15  C   UNL     1      -1.331  14.894  19.749  0.00  0.00    +0.000 A 
ATOM     16  C   UNL     1      -0.569  15.915  19.180  0.00  0.00    +0.000 A 
ATOM     17  C   UNL     1       0.799  15.701  18.945  0.00  0.00    +0.000 A 
ATOM     18  C   UNL     1       1.375  14.455  19.277  0.00  0.00    +0.000 A 
ATOM     19  C   UNL     1       0.561  13.428  19.795  0.00  0.00    +0.000 A 
BRANCH  16  20
ATOM     20  O   UNL     1      -1.100  17.143  18.856  0.00  0.00    +0.000 OA
ATOM     21  C   UNL     1      -2.115  17.647  19.722  0.00  0.00    +0.000 C 
ENDBRANCH  16  20
BRANCH  17  22
ATOM     22  O   UNL     1       1.461  16.740  18.330  0.00  0.00    +0.000 OA
ATOM     23  C   UNL     1       1.990  17.755  19.173  0.00  0.00    +0.000 C 
ENDBRANCH  17  22
BRANCH  18  24
ATOM     24  O   UNL     1       2.720  14.300  19.066  0.00  0.00    +0.000 OA
ATOM     25  C   UNL     1       3.605  14.507  20.158  0.00  0.00    +0.000 C 
ENDBRANCH  18  24
ENDBRANCH   2  14
BRANCH   1  27
ATOM     26  N   UNL     1      -2.759  11.901  17.596  0.00  0.00    +0.000 N 
ATOM     27  C   UNL     1      -2.273  11.280  18.742  0.00  0.00    +0.000 C 
ATOM     28  O   UNL     1      -1.496  10.327  18.723  0.00  0.00    +0.000 OA
ATOM     29  H   UNL     1      -3.349  12.726  17.656  0.00  0.00    +0.000 HD
BRANCH  26  30
ATOM     30  N   UNL     1      -2.291  11.504  16.324  0.00  0.00    +0.000 NA
ATOM     31  H   UNL     1      -1.878  12.334  15.875  0.00  0.00    +0.000 HD
BRANCH  30  33
ATOM     32  C   UNL     1      -2.893  10.006  14.474  0.00  0.00    +0.000 C 
ATOM     33  C   UNL     1      -3.396  11.020  15.492  0.00  0.00    +0.000 C 
ENDBRANCH  30  33
ENDBRANCH  26  30
ENDBRANCH   1  27
BRANCH   9  34
ATOM     34  O   UNL     1      -5.331  12.256  21.790  0.00  0.00    +0.000 OA
ATOM     35  H   UNL     1      -6.053  12.028  21.179  0.00  0.00    +0.000 HD
ENDBRANCH   9  34
BRANCH  10  36
ATOM     36  C   UNL     1      -5.204  12.189  19.032  0.00  0.00    +0.000 C 
BRANCH  36  37
ATOM     37  O   UNL     1      -5.516  12.869  17.827  0.00  0.00    +0.000 OA
ATOM     38  H   UNL     1      -5.237  12.330  17.058  0.00  0.00    +0.000 HD
ENDBRANCH  36  37
ENDBRANCH  10  36
TORSDOF 10
ENDMDL
MODEL 8
REMARK VINA RESULT:      -5.9      0.764      2.269
REMARK  Name = 
REMARK  14 active torsions:
REMARK  status: ('A' for Active; 'I' for Inactive)
REMARK    1  A    between atoms: C_1  and  C_2
REMARK    2  A    between atoms: C_2  and  N_3
REMARK    3  A    between atoms: N_3  and  N_4
REMARK    4  A    between atoms: C_5  and  C_7
REMARK    5  A    between atoms: C_8  and  C_9
REMARK    6  A    between atoms: C_11  and  O_12
REMARK    7  A    between atoms: O_12  and  C_13
REMARK    8  A    between atoms: C_14  and  O_15
REMARK    9  A    between atoms: O_15  and  C_16
REMARK   10  A    between atoms: C_17  and  O_18
REMARK   11  A    between atoms: O_18  and  C_19
REMARK   12  A    between atoms: C_27  and  O_28
REMARK   13  A    between atoms: C_29  and  C_30
REMARK   14  A    between atoms: C_30  and  O_31
REMARK                            x       y       z     vdW  Elec       q    Type
REMARK                         _______ _______ _______ _____ _____    ______ ____
ROOT
ATOM      1  C   UNL     1      -0.589  11.924  18.080  0.00  0.00    +0.000 C 
ATOM      2  C   UNL     1      -0.846  13.256  18.856  0.00  0.00    +0.000 C 
ATOM      3  C   UNL     1       0.449  14.049  19.049  0.00  0.00    +0.000 A 
ATOM      4  C   UNL     1       0.356  15.416  19.394  0.00  0.00    +0.000 A 
ATOM      5  C   UNL     1       1.498  16.066  19.798  0.00  0.00    +0.000 A 
ATOM      6  C   UNL     1       2.715  15.432  19.828  0.00  0.00    +0.000 A 
ATOM      7  C   UNL     1       2.856  14.114  19.449  0.00  0.00    +0.000 A 
ATOM      8  C   UNL     1       1.706  13.390  19.074  0.00  0.00    +0.000 A 
ATOM      9  C   UNL     1       1.862  11.939  18.674  0.00  0.00    +0.000 C 
ATOM     10  C   UNL     1       0.568  11.087  18.677  0.00  0.00    +0.000 C 
ATOM     11  O   UNL     1       3.706  16.243  20.288  0.00  0.00    +0.000 OA
ATOM     12  C   UNL     1       2.945  17.413  20.660  0.00  0.00    +0.000 C 
ATOM     13  O   UNL     1       1.566  17.348  20.243  0.00  0.00    +0.000 OA
ENDROOT
BRANCH   2  14
ATOM     14  C   UNL     1      -1.532  13.166  20.230  0.00  0.00    +0.000 A 
ATOM     15  C   UNL     1      -1.048  12.303  21.218  0.00  0.00    +0.000 A 
ATOM     16  C   UNL     1      -1.558  12.282  22.517  0.00  0.00    +0.000 A 
ATOM     17  C   UNL     1      -2.556  13.202  22.878  0.00  0.00    +0.000 A 
ATOM     18  C   UNL     1      -3.033  14.121  21.918  0.00  0.00    +0.000 A 
ATOM     19  C   UNL     1      -2.536  14.074  20.600  0.00  0.00    +0.000 A 
BRANCH  16  20
ATOM     20  O   UNL     1      -1.105  11.405  23.476  0.00  0.00    +0.000 OA
ATOM     21  C   UNL     1      -0.586  10.161  23.008  0.00  0.00    +0.000 C 
ENDBRANCH  16  20
BRANCH  17  22
ATOM     22  O   UNL     1      -3.041  13.074  24.160  0.00  0.00    +0.000 OA
ATOM     23  C   UNL     1      -4.278  12.391  24.315  0.00  0.00    +0.000 C 
ENDBRANCH  17  22
BRANCH  18  24
ATOM     24  O   UNL     1      -3.981  15.026  22.320  0.00  0.00    +0.000 OA
ATOM     25  C   UNL     1      -3.630  16.403  22.356  0.00  0.00    +0.000 C 
ENDBRANCH  18  24
ENDBRANCH   2  14
BRANCH   1  27
ATOM     26  N   UNL     1      -2.806  11.757  17.086  0.00  0.00    +0.000 N 
ATOM     27  C   UNL     1      -1.896  11.154  17.949  0.00  0.00    +0.000 C 
ATOM     28  O   UNL     1      -2.123  10.109  18.557  0.00  0.00    +0.000 OA
ATOM     29  H   UNL     1      -2.556  12.585  16.554  0.00  0.00    +0.000 HD
BRANCH  26  30
ATOM     30  N   UNL     1      -4.033  11.121  16.796  0.00  0.00    +0.000 NA
ATOM     31  H   UNL     1      -4.054  10.938  15.782  0.00  0.00    +0.000 HD
BRANCH  30  33
ATOM     32  C   UNL     1      -5.283  12.133  18.652  0.00  0.00    +0.000 C 
ATOM     33  C   UNL     1      -5.162  11.989  17.141  0.00  0.00    +0.000 C 
ENDBRANCH  30  33
ENDBRANCH  26  30
ENDBRANCH   1  27
BRANCH   9  34
ATOM     34  O   UNL     1       2.423  11.921  17.360  0.00  0.00    +0.000 OA
ATOM     35  H   UNL     1       3.206  11.343  17.364  0.00  0.00    +0.000 HD
ENDBRANCH   9  34
BRANCH  10  36
ATOM     36  C   UNL     1       0.843   9.741  17.974  0.00  0.00    +0.000 C 
BRANCH  36  37
ATOM     37  O   UNL     1       2.149   9.230  18.191  0.00  0.00    +0.000 OA
ATOM     38  H   UNL     1       2.816   9.879  17.883  0.00  0.00    +0.000 HD
ENDBRANCH  36  37
ENDBRANCH  10  36
TORSDOF 10
ENDMDL
MODEL 9
REMARK VINA RESULT:      -5.8      1.502      2.313
REMARK  Name = 
REMARK  14 active torsions:
REMARK  status: ('A' for Active; 'I' for Inactive)
REMARK    1  A    between atoms: C_1  and  C_2
REMARK    2  A    between atoms: C_2  and  N_3
REMARK    3  A    between atoms: N_3  and  N_4
REMARK    4  A    between atoms: C_5  and  C_7
REMARK    5  A    between atoms: C_8  and  C_9
REMARK    6  A    between atoms: C_11  and  O_12
REMARK    7  A    between atoms: O_12  and  C_13
REMARK    8  A    between atoms: C_14  and  O_15
REMARK    9  A    between atoms: O_15  and  C_16
REMARK   10  A    between atoms: C_17  and  O_18
REMARK   11  A    between atoms: O_18  and  C_19
REMARK   12  A    between atoms: C_27  and  O_28
REMARK   13  A    between atoms: C_29  and  C_30
REMARK   14  A    between atoms: C_30  and  O_31
REMARK                            x       y       z     vdW  Elec       q    Type
REMARK                         _______ _______ _______ _____ _____    ______ ____
ROOT
ATOM      1  C   UNL     1      -0.271  11.936  18.328  0.00  0.00    +0.000 C 
ATOM      2  C   UNL     1      -0.937  13.275  18.788  0.00  0.00    +0.000 C 
ATOM      3  C   UNL     1       0.071  14.427  18.791  0.00  0.00    +0.000 A 
ATOM      4  C   UNL     1      -0.422  15.751  18.821  0.00  0.00    +0.000 A 
ATOM      5  C   UNL     1       0.467  16.772  19.062  0.00  0.00    +0.000 A 
ATOM      6  C   UNL     1       1.808  16.535  19.227  0.00  0.00    +0.000 A 
ATOM      7  C   UNL     1       2.335  15.264  19.153  0.00  0.00    +0.000 A 
ATOM      8  C   UNL     1       1.458  14.178  18.956  0.00  0.00    +0.000 A 
ATOM      9  C   UNL     1       2.038  12.781  18.891  0.00  0.00    +0.000 C 
ATOM     10  C   UNL     1       1.037  11.616  19.092  0.00  0.00    +0.000 C 
ATOM     11  O   UNL     1       2.503  17.676  19.488  0.00  0.00    +0.000 OA
ATOM     12  C   UNL     1       1.424  18.630  19.592  0.00  0.00    +0.000 C 
ATOM     13  O   UNL     1       0.146  18.085  19.208  0.00  0.00    +0.000 OA
ENDROOT
BRANCH   2  14
ATOM     14  C   UNL     1      -1.650  13.291  20.151  0.00  0.00    +0.000 A 
ATOM     15  C   UNL     1      -0.962  13.642  21.316  0.00  0.00    +0.000 A 
ATOM     16  C   UNL     1      -1.596  13.795  22.549  0.00  0.00    +0.000 A 
ATOM     17  C   UNL     1      -2.992  13.654  22.625  0.00  0.00    +0.000 A 
ATOM     18  C   UNL     1      -3.724  13.348  21.457  0.00  0.00    +0.000 A 
ATOM     19  C   UNL     1      -3.042  13.143  20.241  0.00  0.00    +0.000 A 
BRANCH  16  20
ATOM     20  O   UNL     1      -0.910  14.103  23.702  0.00  0.00    +0.000 OA
ATOM     21  C   UNL     1      -0.689  15.488  23.961  0.00  0.00    +0.000 C 
ENDBRANCH  16  20
BRANCH  17  22
ATOM     22  O   UNL     1      -3.528  13.765  23.889  0.00  0.00    +0.000 OA
ATOM     23  C   UNL     1      -3.983  12.566  24.503  0.00  0.00    +0.000 C 
ENDBRANCH  17  22
BRANCH  18  24
ATOM     24  O   UNL     1      -5.087  13.255  21.568  0.00  0.00    +0.000 OA
ATOM     25  C   UNL     1      -5.764  12.278  20.789  0.00  0.00    +0.000 C 
ENDBRANCH  18  24
ENDBRANCH   2  14
BRANCH   1  27
ATOM     26  N   UNL     1      -2.198  10.843  17.319  0.00  0.00    +0.000 N 
ATOM     27  C   UNL     1      -1.300  10.816  18.381  0.00  0.00    +0.000 C 
ATOM     28  O   UNL     1      -1.334   9.978  19.281  0.00  0.00    +0.000 OA
ATOM     29  H   UNL     1      -2.097  11.512  16.562  0.00  0.00    +0.000 HD
BRANCH  26  30
ATOM     30  N   UNL     1      -3.162   9.820  17.182  0.00  0.00    +0.000 NA
ATOM     31  H   UNL     1      -3.246   9.607  16.177  0.00  0.00    +0.000 HD
BRANCH  30  33
ATOM     32  C   UNL     1      -4.760  11.685  17.212  0.00  0.00    +0.000 C 
ATOM     33  C   UNL     1      -4.467  10.265  17.679  0.00  0.00    +0.000 C 
ENDBRANCH  30  33
ENDBRANCH  26  30
ENDBRANCH   1  27
BRANCH   9  34
ATOM     34  O   UNL     1       2.659  12.640  17.612  0.00  0.00    +0.000 OA
ATOM     35  H   UNL     1       3.406  13.262  17.559  0.00  0.00    +0.000 HD
ENDBRANCH   9  34
BRANCH  10  36
ATOM     36  C   UNL     1       1.719  10.286  18.708  0.00  0.00    +0.000 C 
BRANCH  36  37
ATOM     37  O   UNL     1       1.825  10.073  17.310  0.00  0.00    +0.000 OA
ATOM     38  H   UNL     1       1.557  10.882  16.827  0.00  0.00    +0.000 HD
ENDBRANCH  36  37
ENDBRANCH  10  36
TORSDOF 10
ENDMDL
