MODEL 1
REMARK VINA RESULT:      -7.0      0.000      0.000
REMARK  Name = 
REMARK  14 active torsions:
REMARK  status: ('A' for Active; 'I' for Inactive)
REMARK    1  A    between atoms: C_1  and  C_2
REMARK    2  A    between atoms: C_2  and  C_3
REMARK    3  A    between atoms: C_3  and  C_4
REMARK    4  A    between atoms: C_4  and  C_5
REMARK    5  A    between atoms: C_5  and  C_6
REMARK    6  A    between atoms: C_6  and  C_7
REMARK    7  A    between atoms: C_7  and  C_8
REMARK    8  A    between atoms: C_8  and  C_9
REMARK    9  A    between atoms: C_9  and  C_10
REMARK   10  A    between atoms: C_13  and  C_14
REMARK   11  A    between atoms: C_14  and  C_16
REMARK   12  A    between atoms: C_16  and  C_17
REMARK   13  A    between atoms: C_17  and  C_19
REMARK   14  A    between atoms: C_19  and  O_21
REMARK                            x       y       z     vdW  Elec       q    Type
REMARK                         _______ _______ _______ _____ _____    ______ ____
ROOT
ATOM      1  C   UNL     1       6.108   5.452  17.475  0.00  0.00    +0.000 A 
ATOM      2  C   UNL     1       5.141   6.407  17.132  0.00  0.00    +0.000 A 
ATOM      3  C   UNL     1       3.945   6.490  17.841  0.00  0.00    +0.000 A 
ATOM      4  C   UNL     1       3.696   5.614  18.902  0.00  0.00    +0.000 A 
ATOM      5  C   UNL     1       4.643   4.641  19.239  0.00  0.00    +0.000 A 
ATOM      6  C   UNL     1       5.844   4.565  18.526  0.00  0.00    +0.000 A 
ENDROOT
BRANCH   4   7
ATOM      7  C   UNL     1       2.406   5.756  19.632  0.00  0.00    +0.000 C 
ATOM      8  O   UNL     1       2.107   6.848  20.117  0.00  0.00    +0.000 OA
BRANCH   7   9
ATOM      9  C   UNL     1       1.486   4.575  19.761  0.00  0.00    +0.000 C 
BRANCH   9  10
ATOM     10  C   UNL     1       1.344   3.770  18.505  0.00  0.00    +0.000 C 
ATOM     11  O   UNL     1       0.980   4.176  17.406  0.00  0.00    +0.000 OA
BRANCH  10  12
ATOM     12  C   UNL     1       1.678   2.291  18.621  0.00  0.00    +0.000 C 
ATOM     13  O   UNL     1       1.345   1.609  19.567  0.00  0.00    +0.000 OA
BRANCH  12  14
ATOM     14  O   UNL     1       2.353   1.869  17.536  0.00  0.00    +0.000 OA
ATOM     15  H   UNL     1       2.348   0.882  17.510  0.00  0.00    +0.000 HD
ENDBRANCH  12  14
ENDBRANCH  10  12
ENDBRANCH   9  10
ENDBRANCH   7   9
ENDBRANCH   4   7
BRANCH   1  16
ATOM     16  C   UNL     1       7.407   5.377  16.712  0.00  0.00    +0.000 C 
BRANCH  16  17
ATOM     17  C   UNL     1       7.260   4.587  15.411  0.00  0.00    +0.000 C 
BRANCH  17  18
ATOM     18  C   UNL     1       6.096   5.115  14.579  0.00  0.00    +0.000 C 
BRANCH  18  19
ATOM     19  C   UNL     1       5.372   3.971  13.875  0.00  0.00    +0.000 C 
BRANCH  19  20
ATOM     20  C   UNL     1       6.199   3.442  12.709  0.00  0.00    +0.000 C 
BRANCH  20  21
ATOM     21  C   UNL     1       5.312   2.741  11.683  0.00  0.00    +0.000 C 
BRANCH  21  22
ATOM     22  C   UNL     1       3.952   3.428  11.585  0.00  0.00    +0.000 C 
BRANCH  22  24
ATOM     23  C   UNL     1       2.823   4.343   9.537  0.00  0.00    +0.000 C 
ATOM     24  C   UNL     1       3.256   3.086  10.270  0.00  0.00    +0.000 C 
ENDBRANCH  22  24
ENDBRANCH  21  22
ENDBRANCH  20  21
ENDBRANCH  19  20
ENDBRANCH  18  19
ENDBRANCH  17  18
ENDBRANCH  16  17
ENDBRANCH   1  16
TORSDOF 13
ENDMDL
MODEL 2
REMARK VINA RESULT:      -7.0      0.890      1.644
REMARK  Name = 
REMARK  14 active torsions:
REMARK  status: ('A' for Active; 'I' for Inactive)
REMARK    1  A    between atoms: C_1  and  C_2
REMARK    2  A    between atoms: C_2  and  C_3
REMARK    3  A    between atoms: C_3  and  C_4
REMARK    4  A    between atoms: C_4  and  C_5
REMARK    5  A    between atoms: C_5  and  C_6
REMARK    6  A    between atoms: C_6  and  C_7
REMARK    7  A    between atoms: C_7  and  C_8
REMARK    8  A    between atoms: C_8  and  C_9
REMARK    9  A    between atoms: C_9  and  C_10
REMARK   10  A    between atoms: C_13  and  C_14
REMARK   11  A    between atoms: C_14  and  C_16
REMARK   12  A    between atoms: C_16  and  C_17
REMARK   13  A    between atoms: C_17  and  C_19
REMARK   14  A    between atoms: C_19  and  O_21
REMARK                            x       y       z     vdW  Elec       q    Type
REMARK                         _______ _______ _______ _____ _____    ______ ____
ROOT
ATOM      1  C   UNL     1       5.656   5.977  17.647  0.00  0.00    +0.000 A 
ATOM      2  C   UNL     1       5.736   5.218  18.823  0.00  0.00    +0.000 A 
ATOM      3  C   UNL     1       4.615   5.043  19.630  0.00  0.00    +0.000 A 
ATOM      4  C   UNL     1       3.395   5.629  19.275  0.00  0.00    +0.000 A 
ATOM      5  C   UNL     1       3.308   6.407  18.116  0.00  0.00    +0.000 A 
ATOM      6  C   UNL     1       4.437   6.577  17.307  0.00  0.00    +0.000 A 
ENDROOT
BRANCH   4   7
ATOM      7  C   UNL     1       2.227   5.397  20.169  0.00  0.00    +0.000 C 
ATOM      8  O   UNL     1       1.553   6.358  20.537  0.00  0.00    +0.000 OA
BRANCH   7   9
ATOM      9  C   UNL     1       1.884   3.999  20.600  0.00  0.00    +0.000 C 
BRANCH   9  10
ATOM     10  C   UNL     1       2.128   2.957  19.552  0.00  0.00    +0.000 C 
ATOM     11  O   UNL     1       3.029   2.125  19.535  0.00  0.00    +0.000 OA
BRANCH  10  12
ATOM     12  C   UNL     1       1.155   2.948  18.383  0.00  0.00    +0.000 C 
ATOM     13  O   UNL     1       1.182   3.770  17.492  0.00  0.00    +0.000 OA
BRANCH  12  14
ATOM     14  O   UNL     1       0.307   1.907  18.478  0.00  0.00    +0.000 OA
ATOM     15  H   UNL     1      -0.579   2.230  18.771  0.00  0.00    +0.000 HD
ENDBRANCH  12  14
ENDBRANCH  10  12
ENDBRANCH   9  10
ENDBRANCH   7   9
ENDBRANCH   4   7
BRANCH   1  16
ATOM     16  C   UNL     1       6.870   6.151  16.770  0.00  0.00    +0.000 C 
BRANCH  16  17
ATOM     17  C   UNL     1       7.292   4.836  16.112  0.00  0.00    +0.000 C 
BRANCH  17  18
ATOM     18  C   UNL     1       7.051   4.875  14.606  0.00  0.00    +0.000 C 
BRANCH  18  19
ATOM     19  C   UNL     1       6.180   3.700  14.168  0.00  0.00    +0.000 C 
BRANCH  19  20
ATOM     20  C   UNL     1       6.206   3.542  12.653  0.00  0.00    +0.000 C 
BRANCH  20  21
ATOM     21  C   UNL     1       4.845   3.092  12.128  0.00  0.00    +0.000 C 
BRANCH  21  22
ATOM     22  C   UNL     1       4.332   4.053  11.058  0.00  0.00    +0.000 C 
BRANCH  22  24
ATOM     23  C   UNL     1       2.648   4.403   9.228  0.00  0.00    +0.000 C 
ATOM     24  C   UNL     1       3.127   3.469  10.326  0.00  0.00    +0.000 C 
ENDBRANCH  22  24
ENDBRANCH  21  22
ENDBRANCH  20  21
ENDBRANCH  19  20
ENDBRANCH  18  19
ENDBRANCH  17  18
ENDBRANCH  16  17
ENDBRANCH   1  16
TORSDOF 13
ENDMDL
MODEL 3
REMARK VINA RESULT:      -6.9      3.242      6.658
REMARK  Name = 
REMARK  14 active torsions:
REMARK  status: ('A' for Active; 'I' for Inactive)
REMARK    1  A    between atoms: C_1  and  C_2
REMARK    2  A    between atoms: C_2  and  C_3
REMARK    3  A    between atoms: C_3  and  C_4
REMARK    4  A    between atoms: C_4  and  C_5
REMARK    5  A    between atoms: C_5  and  C_6
REMARK    6  A    between atoms: C_6  and  C_7
REMARK    7  A    between atoms: C_7  and  C_8
REMARK    8  A    between atoms: C_8  and  C_9
REMARK    9  A    between atoms: C_9  and  C_10
REMARK   10  A    between atoms: C_13  and  C_14
REMARK   11  A    between atoms: C_14  and  C_16
REMARK   12  A    between atoms: C_16  and  C_17
REMARK   13  A    between atoms: C_17  and  C_19
REMARK   14  A    between atoms: C_19  and  O_21
REMARK                            x       y       z     vdW  Elec       q    Type
REMARK                         _______ _______ _______ _____ _____    ______ ____
ROOT
ATOM      1  C   UNL     1       3.514   6.089  18.815  0.00  0.00    +0.000 A 
ATOM      2  C   UNL     1       3.507   6.113  17.414  0.00  0.00    +0.000 A 
ATOM      3  C   UNL     1       4.562   5.559  16.691  0.00  0.00    +0.000 A 
ATOM      4  C   UNL     1       5.643   4.977  17.361  0.00  0.00    +0.000 A 
ATOM      5  C   UNL     1       5.672   4.968  18.759  0.00  0.00    +0.000 A 
ATOM      6  C   UNL     1       4.609   5.522  19.480  0.00  0.00    +0.000 A 
ENDROOT
BRANCH   4   7
ATOM      7  C   UNL     1       6.735   4.389  16.538  0.00  0.00    +0.000 C 
ATOM      8  O   UNL     1       7.902   4.511  16.912  0.00  0.00    +0.000 OA
BRANCH   7   9
ATOM      9  C   UNL     1       6.401   3.652  15.271  0.00  0.00    +0.000 C 
BRANCH   9  10
ATOM     10  C   UNL     1       6.759   4.394  14.019  0.00  0.00    +0.000 C 
ATOM     11  O   UNL     1       7.365   5.457  13.938  0.00  0.00    +0.000 OA
BRANCH  10  12
ATOM     12  C   UNL     1       6.304   3.756  12.716  0.00  0.00    +0.000 C 
ATOM     13  O   UNL     1       7.074   3.385  11.855  0.00  0.00    +0.000 OA
BRANCH  12  14
ATOM     14  O   UNL     1       4.963   3.649  12.680  0.00  0.00    +0.000 OA
ATOM     15  H   UNL     1       4.681   3.345  11.784  0.00  0.00    +0.000 HD
ENDBRANCH  12  14
ENDBRANCH  10  12
ENDBRANCH   9  10
ENDBRANCH   7   9
ENDBRANCH   4   7
BRANCH   1  16
ATOM     16  C   UNL     1       2.362   6.677  19.591  0.00  0.00    +0.000 C 
BRANCH  16  17
ATOM     17  C   UNL     1       2.295   6.126  21.017  0.00  0.00    +0.000 C 
BRANCH  17  18
ATOM     18  C   UNL     1       2.172   4.606  21.010  0.00  0.00    +0.000 C 
BRANCH  18  19
ATOM     19  C   UNL     1       0.893   4.171  20.299  0.00  0.00    +0.000 C 
BRANCH  19  20
ATOM     20  C   UNL     1       0.979   2.709  19.876  0.00  0.00    +0.000 C 
BRANCH  20  21
ATOM     21  C   UNL     1       1.151   2.588  18.364  0.00  0.00    +0.000 C 
BRANCH  21  22
ATOM     22  C   UNL     1       2.624   2.688  17.976  0.00  0.00    +0.000 C 
BRANCH  22  24
ATOM     23  C   UNL     1       4.315   1.904  19.660  0.00  0.00    +0.000 C 
ATOM     24  C   UNL     1       3.415   1.496  18.505  0.00  0.00    +0.000 C 
ENDBRANCH  22  24
ENDBRANCH  21  22
ENDBRANCH  20  21
ENDBRANCH  19  20
ENDBRANCH  18  19
ENDBRANCH  17  18
ENDBRANCH  16  17
ENDBRANCH   1  16
TORSDOF 13
ENDMDL
MODEL 4
REMARK VINA RESULT:      -6.8      3.748      6.991
REMARK  Name = 
REMARK  14 active torsions:
REMARK  status: ('A' for Active; 'I' for Inactive)
REMARK    1  A    between atoms: C_1  and  C_2
REMARK    2  A    between atoms: C_2  and  C_3
REMARK    3  A    between atoms: C_3  and  C_4
REMARK    4  A    between atoms: C_4  and  C_5
REMARK    5  A    between atoms: C_5  and  C_6
REMARK    6  A    between atoms: C_6  and  C_7
REMARK    7  A    between atoms: C_7  and  C_8
REMARK    8  A    between atoms: C_8  and  C_9
REMARK    9  A    between atoms: C_9  and  C_10
REMARK   10  A    between atoms: C_13  and  C_14
REMARK   11  A    between atoms: C_14  and  C_16
REMARK   12  A    between atoms: C_16  and  C_17
REMARK   13  A    between atoms: C_17  and  C_19
REMARK   14  A    between atoms: C_19  and  O_21
REMARK                            x       y       z     vdW  Elec       q    Type
REMARK                         _______ _______ _______ _____ _____    ______ ____
ROOT
ATOM      1  C   UNL     1       2.820   3.311  17.736  0.00  0.00    +0.000 A 
ATOM      2  C   UNL     1       3.984   2.692  17.260  0.00  0.00    +0.000 A 
ATOM      3  C   UNL     1       5.037   3.455  16.759  0.00  0.00    +0.000 A 
ATOM      4  C   UNL     1       4.939   4.849  16.722  0.00  0.00    +0.000 A 
ATOM      5  C   UNL     1       3.773   5.477  17.172  0.00  0.00    +0.000 A 
ATOM      6  C   UNL     1       2.719   4.707  17.678  0.00  0.00    +0.000 A 
ENDROOT
BRANCH   4   7
ATOM      7  C   UNL     1       6.099   5.613  16.188  0.00  0.00    +0.000 C 
ATOM      8  O   UNL     1       6.180   5.815  14.976  0.00  0.00    +0.000 OA
BRANCH   7   9
ATOM      9  C   UNL     1       7.148   6.133  17.130  0.00  0.00    +0.000 C 
BRANCH   9  10
ATOM     10  C   UNL     1       7.673   5.107  18.089  0.00  0.00    +0.000 C 
ATOM     11  O   UNL     1       8.354   4.124  17.817  0.00  0.00    +0.000 OA
BRANCH  10  12
ATOM     12  C   UNL     1       7.303   5.311  19.549  0.00  0.00    +0.000 C 
ATOM     13  O   UNL     1       8.107   5.640  20.397  0.00  0.00    +0.000 OA
BRANCH  12  14
ATOM     14  O   UNL     1       5.988   5.102  19.742  0.00  0.00    +0.000 OA
ATOM     15  H   UNL     1       5.763   4.174  19.492  0.00  0.00    +0.000 HD
ENDBRANCH  12  14
ENDBRANCH  10  12
ENDBRANCH   9  10
ENDBRANCH   7   9
ENDBRANCH   4   7
BRANCH   1  16
ATOM     16  C   UNL     1       1.689   2.481  18.290  0.00  0.00    +0.000 C 
BRANCH  16  17
ATOM     17  C   UNL     1       0.825   3.277  19.270  0.00  0.00    +0.000 C 
BRANCH  17  18
ATOM     18  C   UNL     1       1.278   3.050  20.708  0.00  0.00    +0.000 C 
BRANCH  18  19
ATOM     19  C   UNL     1       2.104   4.233  21.207  0.00  0.00    +0.000 C 
BRANCH  19  20
ATOM     20  C   UNL     1       1.421   5.552  20.868  0.00  0.00    +0.000 C 
BRANCH  20  21
ATOM     21  C   UNL     1       2.445   6.609  20.462  0.00  0.00    +0.000 C 
BRANCH  21  22
ATOM     22  C   UNL     1       1.751   7.895  20.019  0.00  0.00    +0.000 C 
BRANCH  22  24
ATOM     23  C   UNL     1       1.233   9.370  18.053  0.00  0.00    +0.000 C 
ATOM     24  C   UNL     1       2.111   8.247  18.578  0.00  0.00    +0.000 C 
ENDBRANCH  22  24
ENDBRANCH  21  22
ENDBRANCH  20  21
ENDBRANCH  19  20
ENDBRANCH  18  19
ENDBRANCH  17  18
ENDBRANCH  16  17
ENDBRANCH   1  16
TORSDOF 13
ENDMDL
MODEL 5
REMARK VINA RESULT:      -6.8      4.526      7.599
REMARK  Name = 
REMARK  14 active torsions:
REMARK  status: ('A' for Active; 'I' for Inactive)
REMARK    1  A    between atoms: C_1  and  C_2
REMARK    2  A    between atoms: C_2  and  C_3
REMARK    3  A    between atoms: C_3  and  C_4
REMARK    4  A    between atoms: C_4  and  C_5
REMARK    5  A    between atoms: C_5  and  C_6
REMARK    6  A    between atoms: C_6  and  C_7
REMARK    7  A    between atoms: C_7  and  C_8
REMARK    8  A    between atoms: C_8  and  C_9
REMARK    9  A    between atoms: C_9  and  C_10
REMARK   10  A    between atoms: C_13  and  C_14
REMARK   11  A    between atoms: C_14  and  C_16
REMARK   12  A    between atoms: C_16  and  C_17
REMARK   13  A    between atoms: C_17  and  C_19
REMARK   14  A    between atoms: C_19  and  O_21
REMARK                            x       y       z     vdW  Elec       q    Type
REMARK                         _______ _______ _______ _____ _____    ______ ____
ROOT
ATOM      1  C   UNL     1       3.053   6.883  18.805  0.00  0.00    +0.000 A 
ATOM      2  C   UNL     1       2.271   7.129  19.941  0.00  0.00    +0.000 A 
ATOM      3  C   UNL     1       1.442   8.247  20.001  0.00  0.00    +0.000 A 
ATOM      4  C   UNL     1       1.386   9.138  18.925  0.00  0.00    +0.000 A 
ATOM      5  C   UNL     1       2.179   8.916  17.795  0.00  0.00    +0.000 A 
ATOM      6  C   UNL     1       3.008   7.790  17.738  0.00  0.00    +0.000 A 
ENDROOT
BRANCH   4   7
ATOM      7  C   UNL     1       0.472  10.308  19.040  0.00  0.00    +0.000 C 
ATOM      8  O   UNL     1      -0.692  10.201  18.655  0.00  0.00    +0.000 OA
BRANCH   7   9
ATOM      9  C   UNL     1       0.978  11.595  19.627  0.00  0.00    +0.000 C 
BRANCH   9  10
ATOM     10  C   UNL     1       1.011  12.739  18.660  0.00  0.00    +0.000 C 
ATOM     11  O   UNL     1       1.979  13.138  18.022  0.00  0.00    +0.000 OA
BRANCH  10  12
ATOM     12  C   UNL     1      -0.300  13.485  18.467  0.00  0.00    +0.000 C 
ATOM     13  O   UNL     1      -0.610  14.460  19.120  0.00  0.00    +0.000 OA
BRANCH  12  14
ATOM     14  O   UNL     1      -1.023  12.929  17.477  0.00  0.00    +0.000 OA
ATOM     15  H   UNL     1      -0.996  13.515  16.683  0.00  0.00    +0.000 HD
ENDBRANCH  12  14
ENDBRANCH  10  12
ENDBRANCH   9  10
ENDBRANCH   7   9
ENDBRANCH   4   7
BRANCH   1  16
ATOM     16  C   UNL     1       3.938   5.663  18.740  0.00  0.00    +0.000 C 
BRANCH  16  17
ATOM     17  C   UNL     1       4.313   5.306  17.301  0.00  0.00    +0.000 C 
BRANCH  17  18
ATOM     18  C   UNL     1       3.916   3.871  16.972  0.00  0.00    +0.000 C 
BRANCH  18  19
ATOM     19  C   UNL     1       2.439   3.635  17.279  0.00  0.00    +0.000 C 
BRANCH  19  20
ATOM     20  C   UNL     1       2.260   2.417  18.178  0.00  0.00    +0.000 C 
BRANCH  20  21
ATOM     21  C   UNL     1       0.911   2.459  18.891  0.00  0.00    +0.000 C 
BRANCH  21  22
ATOM     22  C   UNL     1       0.832   3.660  19.830  0.00  0.00    +0.000 C 
BRANCH  22  24
ATOM     23  C   UNL     1       1.569   2.471  21.916  0.00  0.00    +0.000 C 
ATOM     24  C   UNL     1       1.892   3.575  20.924  0.00  0.00    +0.000 C 
ENDBRANCH  22  24
ENDBRANCH  21  22
ENDBRANCH  20  21
ENDBRANCH  19  20
ENDBRANCH  18  19
ENDBRANCH  17  18
ENDBRANCH  16  17
ENDBRANCH   1  16
TORSDOF 13
ENDMDL
MODEL 6
REMARK VINA RESULT:      -6.7      4.689      7.114
REMARK  Name = 
REMARK  14 active torsions:
REMARK  status: ('A' for Active; 'I' for Inactive)
REMARK    1  A    between atoms: C_1  and  C_2
REMARK    2  A    between atoms: C_2  and  C_3
REMARK    3  A    between atoms: C_3  and  C_4
REMARK    4  A    between atoms: C_4  and  C_5
REMARK    5  A    between atoms: C_5  and  C_6
REMARK    6  A    between atoms: C_6  and  C_7
REMARK    7  A    between atoms: C_7  and  C_8
REMARK    8  A    between atoms: C_8  and  C_9
REMARK    9  A    between atoms: C_9  and  C_10
REMARK   10  A    between atoms: C_13  and  C_14
REMARK   11  A    between atoms: C_14  and  C_16
REMARK   12  A    between atoms: C_16  and  C_17
REMARK   13  A    between atoms: C_17  and  C_19
REMARK   14  A    between atoms: C_19  and  O_21
REMARK                            x       y       z     vdW  Elec       q    Type
REMARK                         _______ _______ _______ _____ _____    ______ ____
ROOT
ATOM      1  C   UNL     1       3.039   6.739  18.857  0.00  0.00    +0.000 A 
ATOM      2  C   UNL     1       2.268   7.086  19.974  0.00  0.00    +0.000 A 
ATOM      3  C   UNL     1       1.499   8.249  19.970  0.00  0.00    +0.000 A 
ATOM      4  C   UNL     1       1.496   9.084  18.848  0.00  0.00    +0.000 A 
ATOM      5  C   UNL     1       2.280   8.760  17.737  0.00  0.00    +0.000 A 
ATOM      6  C   UNL     1       3.047   7.590  17.744  0.00  0.00    +0.000 A 
ENDROOT
BRANCH   4   7
ATOM      7  C   UNL     1       0.646  10.306  18.895  0.00  0.00    +0.000 C 
ATOM      8  O   UNL     1       1.134  11.390  18.576  0.00  0.00    +0.000 OA
BRANCH   7   9
ATOM      9  C   UNL     1      -0.791  10.200  19.322  0.00  0.00    +0.000 C 
BRANCH   9  10
ATOM     10  C   UNL     1      -1.712  11.146  18.614  0.00  0.00    +0.000 C 
ATOM     11  O   UNL     1      -2.190  12.183  19.061  0.00  0.00    +0.000 OA
BRANCH  10  12
ATOM     12  C   UNL     1      -2.097  10.763  17.194  0.00  0.00    +0.000 C 
ATOM     13  O   UNL     1      -2.365   9.627  16.864  0.00  0.00    +0.000 OA
BRANCH  12  14
ATOM     14  O   UNL     1      -2.117  11.847  16.396  0.00  0.00    +0.000 OA
ATOM     15  H   UNL     1      -2.702  12.535  16.793  0.00  0.00    +0.000 HD
ENDBRANCH  12  14
ENDBRANCH  10  12
ENDBRANCH   9  10
ENDBRANCH   7   9
ENDBRANCH   4   7
BRANCH   1  16
ATOM     16  C   UNL     1       3.858   5.472  18.862  0.00  0.00    +0.000 C 
BRANCH  16  17
ATOM     17  C   UNL     1       4.115   4.954  17.446  0.00  0.00    +0.000 C 
BRANCH  17  18
ATOM     18  C   UNL     1       3.125   3.854  17.077  0.00  0.00    +0.000 C 
BRANCH  18  19
ATOM     19  C   UNL     1       3.534   2.526  17.708  0.00  0.00    +0.000 C 
BRANCH  19  20
ATOM     20  C   UNL     1       2.518   2.087  18.755  0.00  0.00    +0.000 C 
BRANCH  20  21
ATOM     21  C   UNL     1       1.195   2.826  18.575  0.00  0.00    +0.000 C 
BRANCH  21  22
ATOM     22  C   UNL     1       0.777   3.513  19.873  0.00  0.00    +0.000 C 
BRANCH  22  24
ATOM     23  C   UNL     1       1.465   2.490  22.061  0.00  0.00    +0.000 C 
ATOM     24  C   UNL     1       1.875   3.414  20.927  0.00  0.00    +0.000 C 
ENDBRANCH  22  24
ENDBRANCH  21  22
ENDBRANCH  20  21
ENDBRANCH  19  20
ENDBRANCH  18  19
ENDBRANCH  17  18
ENDBRANCH  16  17
ENDBRANCH   1  16
TORSDOF 13
ENDMDL
MODEL 7
REMARK VINA RESULT:      -6.7      4.346      7.479
REMARK  Name = 
REMARK  14 active torsions:
REMARK  status: ('A' for Active; 'I' for Inactive)
REMARK    1  A    between atoms: C_1  and  C_2
REMARK    2  A    between atoms: C_2  and  C_3
REMARK    3  A    between atoms: C_3  and  C_4
REMARK    4  A    between atoms: C_4  and  C_5
REMARK    5  A    between atoms: C_5  and  C_6
REMARK    6  A    between atoms: C_6  and  C_7
REMARK    7  A    between atoms: C_7  and  C_8
REMARK    8  A    between atoms: C_8  and  C_9
REMARK    9  A    between atoms: C_9  and  C_10
REMARK   10  A    between atoms: C_13  and  C_14
REMARK   11  A    between atoms: C_14  and  C_16
REMARK   12  A    between atoms: C_16  and  C_17
REMARK   13  A    between atoms: C_17  and  C_19
REMARK   14  A    between atoms: C_19  and  O_21
REMARK                            x       y       z     vdW  Elec       q    Type
REMARK                         _______ _______ _______ _____ _____    ______ ____
ROOT
ATOM      1  C   UNL     1       1.791   7.339  20.329  0.00  0.00    +0.000 A 
ATOM      2  C   UNL     1       2.289   7.621  19.050  0.00  0.00    +0.000 A 
ATOM      3  C   UNL     1       2.634   6.587  18.182  0.00  0.00    +0.000 A 
ATOM      4  C   UNL     1       2.491   5.255  18.583  0.00  0.00    +0.000 A 
ATOM      5  C   UNL     1       2.017   4.962  19.866  0.00  0.00    +0.000 A 
ATOM      6  C   UNL     1       1.668   6.004  20.733  0.00  0.00    +0.000 A 
ENDROOT
BRANCH   4   7
ATOM      7  C   UNL     1       2.863   4.192  17.610  0.00  0.00    +0.000 C 
ATOM      8  O   UNL     1       1.990   3.438  17.180  0.00  0.00    +0.000 OA
BRANCH   7   9
ATOM      9  C   UNL     1       4.291   4.059  17.160  0.00  0.00    +0.000 C 
BRANCH   9  10
ATOM     10  C   UNL     1       5.285   4.017  18.281  0.00  0.00    +0.000 C 
ATOM     11  O   UNL     1       5.200   3.368  19.318  0.00  0.00    +0.000 OA
BRANCH  10  12
ATOM     12  C   UNL     1       6.520   4.886  18.108  0.00  0.00    +0.000 C 
ATOM     13  O   UNL     1       7.640   4.510  18.385  0.00  0.00    +0.000 OA
BRANCH  12  14
ATOM     14  O   UNL     1       6.191   6.085  17.593  0.00  0.00    +0.000 OA
ATOM     15  H   UNL     1       5.228   6.095  17.375  0.00  0.00    +0.000 HD
ENDBRANCH  12  14
ENDBRANCH  10  12
ENDBRANCH   9  10
ENDBRANCH   7   9
ENDBRANCH   4   7
BRANCH   1  16
ATOM     16  C   UNL     1       1.405   8.463  21.259  0.00  0.00    +0.000 C 
BRANCH  16  17
ATOM     17  C   UNL     1      -0.109   8.677  21.296  0.00  0.00    +0.000 C 
BRANCH  17  18
ATOM     18  C   UNL     1      -0.464  10.127  20.983  0.00  0.00    +0.000 C 
BRANCH  18  19
ATOM     19  C   UNL     1       0.403  10.662  19.847  0.00  0.00    +0.000 C 
BRANCH  19  20
ATOM     20  C   UNL     1      -0.197  10.305  18.492  0.00  0.00    +0.000 C 
BRANCH  20  21
ATOM     21  C   UNL     1      -1.715  10.461  18.510  0.00  0.00    +0.000 C 
BRANCH  21  22
ATOM     22  C   UNL     1      -2.213  11.058  17.195  0.00  0.00    +0.000 C 
BRANCH  22  24
ATOM     23  C   UNL     1      -2.901  10.070  14.991  0.00  0.00    +0.000 C 
ATOM     24  C   UNL     1      -3.171  10.105  16.486  0.00  0.00    +0.000 C 
ENDBRANCH  22  24
ENDBRANCH  21  22
ENDBRANCH  20  21
ENDBRANCH  19  20
ENDBRANCH  18  19
ENDBRANCH  17  18
ENDBRANCH  16  17
ENDBRANCH   1  16
TORSDOF 13
ENDMDL
MODEL 8
REMARK VINA RESULT:      -6.7      3.184      6.196
REMARK  Name = 
REMARK  14 active torsions:
REMARK  status: ('A' for Active; 'I' for Inactive)
REMARK    1  A    between atoms: C_1  and  C_2
REMARK    2  A    between atoms: C_2  and  C_3
REMARK    3  A    between atoms: C_3  and  C_4
REMARK    4  A    between atoms: C_4  and  C_5
REMARK    5  A    between atoms: C_5  and  C_6
REMARK    6  A    between atoms: C_6  and  C_7
REMARK    7  A    between atoms: C_7  and  C_8
REMARK    8  A    between atoms: C_8  and  C_9
REMARK    9  A    between atoms: C_9  and  C_10
REMARK   10  A    between atoms: C_13  and  C_14
REMARK   11  A    between atoms: C_14  and  C_16
REMARK   12  A    between atoms: C_16  and  C_17
REMARK   13  A    between atoms: C_17  and  C_19
REMARK   14  A    between atoms: C_19  and  O_21
REMARK                            x       y       z     vdW  Elec       q    Type
REMARK                         _______ _______ _______ _____ _____    ______ ____
ROOT
ATOM      1  C   UNL     1       3.074   6.034  19.455  0.00  0.00    +0.000 A 
ATOM      2  C   UNL     1       3.059   6.916  18.367  0.00  0.00    +0.000 A 
ATOM      3  C   UNL     1       4.203   7.105  17.593  0.00  0.00    +0.000 A 
ATOM      4  C   UNL     1       5.380   6.416  17.901  0.00  0.00    +0.000 A 
ATOM      5  C   UNL     1       5.414   5.551  18.999  0.00  0.00    +0.000 A 
ATOM      6  C   UNL     1       4.262   5.362  19.771  0.00  0.00    +0.000 A 
ENDROOT
BRANCH   4   7
ATOM      7  C   UNL     1       6.567   6.647  17.033  0.00  0.00    +0.000 C 
ATOM      8  O   UNL     1       7.149   7.731  17.086  0.00  0.00    +0.000 OA
BRANCH   7   9
ATOM      9  C   UNL     1       7.043   5.558  16.114  0.00  0.00    +0.000 C 
BRANCH   9  10
ATOM     10  C   UNL     1       6.116   5.270  14.972  0.00  0.00    +0.000 C 
ATOM     11  O   UNL     1       5.345   6.057  14.432  0.00  0.00    +0.000 OA
BRANCH  10  12
ATOM     12  C   UNL     1       6.132   3.845  14.444  0.00  0.00    +0.000 C 
ATOM     13  O   UNL     1       6.097   3.575  13.262  0.00  0.00    +0.000 OA
BRANCH  12  14
ATOM     14  O   UNL     1       6.214   2.963  15.457  0.00  0.00    +0.000 OA
ATOM     15  H   UNL     1       5.359   2.948  15.950  0.00  0.00    +0.000 HD
ENDBRANCH  12  14
ENDBRANCH  10  12
ENDBRANCH   9  10
ENDBRANCH   7   9
ENDBRANCH   4   7
BRANCH   1  16
ATOM     16  C   UNL     1       1.828   5.823  20.280  0.00  0.00    +0.000 C 
BRANCH  16  17
ATOM     17  C   UNL     1       1.154   4.487  19.963  0.00  0.00    +0.000 C 
BRANCH  17  18
ATOM     18  C   UNL     1       1.217   3.544  21.160  0.00  0.00    +0.000 C 
BRANCH  18  19
ATOM     19  C   UNL     1       1.894   2.230  20.777  0.00  0.00    +0.000 C 
BRANCH  19  20
ATOM     20  C   UNL     1       3.364   2.241  21.179  0.00  0.00    +0.000 C 
BRANCH  20  21
ATOM     21  C   UNL     1       4.267   2.142  19.952  0.00  0.00    +0.000 C 
BRANCH  21  22
ATOM     22  C   UNL     1       3.479   1.653  18.738  0.00  0.00    +0.000 C 
BRANCH  22  24
ATOM     23  C   UNL     1       2.561   3.333  17.113  0.00  0.00    +0.000 C 
ATOM     24  C   UNL     1       3.773   2.509  17.510  0.00  0.00    +0.000 C 
ENDBRANCH  22  24
ENDBRANCH  21  22
ENDBRANCH  20  21
ENDBRANCH  19  20
ENDBRANCH  18  19
ENDBRANCH  17  18
ENDBRANCH  16  17
ENDBRANCH   1  16
TORSDOF 13
ENDMDL
MODEL 9
REMARK VINA RESULT:      -6.7      4.375      7.270
REMARK  Name = 
REMARK  14 active torsions:
REMARK  status: ('A' for Active; 'I' for Inactive)
REMARK    1  A    between atoms: C_1  and  C_2
REMARK    2  A    between atoms: C_2  and  C_3
REMARK    3  A    between atoms: C_3  and  C_4
REMARK    4  A    between atoms: C_4  and  C_5
REMARK    5  A    between atoms: C_5  and  C_6
REMARK    6  A    between atoms: C_6  and  C_7
REMARK    7  A    between atoms: C_7  and  C_8
REMARK    8  A    between atoms: C_8  and  C_9
REMARK    9  A    between atoms: C_9  and  C_10
REMARK   10  A    between atoms: C_13  and  C_14
REMARK   11  A    between atoms: C_14  and  C_16
REMARK   12  A    between atoms: C_16  and  C_17
REMARK   13  A    between atoms: C_17  and  C_19
REMARK   14  A    between atoms: C_19  and  O_21
REMARK                            x       y       z     vdW  Elec       q    Type
REMARK                         _______ _______ _______ _____ _____    ______ ____
ROOT
ATOM      1  C   UNL     1       6.462   6.068  17.962  0.00  0.00    +0.000 A 
ATOM      2  C   UNL     1       5.310   6.799  17.645  0.00  0.00    +0.000 A 
ATOM      3  C   UNL     1       4.073   6.164  17.549  0.00  0.00    +0.000 A 
ATOM      4  C   UNL     1       3.972   4.786  17.765  0.00  0.00    +0.000 A 
ATOM      5  C   UNL     1       5.120   4.042  18.059  0.00  0.00    +0.000 A 
ATOM      6  C   UNL     1       6.359   4.685  18.158  0.00  0.00    +0.000 A 
ENDROOT
BRANCH   4   7
ATOM      7  C   UNL     1       2.624   4.164  17.662  0.00  0.00    +0.000 C 
ATOM      8  O   UNL     1       2.429   3.289  16.818  0.00  0.00    +0.000 OA
BRANCH   7   9
ATOM      9  C   UNL     1       1.526   4.603  18.590  0.00  0.00    +0.000 C 
BRANCH   9  10
ATOM     10  C   UNL     1       1.272   3.661  19.727  0.00  0.00    +0.000 C 
ATOM     11  O   UNL     1       0.381   2.822  19.804  0.00  0.00    +0.000 OA
BRANCH  10  12
ATOM     12  C   UNL     1       2.218   3.777  20.911  0.00  0.00    +0.000 C 
ATOM     13  O   UNL     1       2.713   2.815  21.460  0.00  0.00    +0.000 OA
BRANCH  12  14
ATOM     14  O   UNL     1       2.431   5.068  21.226  0.00  0.00    +0.000 OA
ATOM     15  H   UNL     1       2.108   5.642  20.491  0.00  0.00    +0.000 HD
ENDBRANCH  12  14
ENDBRANCH  10  12
ENDBRANCH   9  10
ENDBRANCH   7   9
ENDBRANCH   4   7
BRANCH   1  16
ATOM     16  C   UNL     1       7.796   6.763  18.079  0.00  0.00    +0.000 C 
BRANCH  16  17
ATOM     17  C   UNL     1       7.726   8.215  17.601  0.00  0.00    +0.000 C 
BRANCH  17  18
ATOM     18  C   UNL     1       8.589   9.120  18.473  0.00  0.00    +0.000 C 
BRANCH  18  19
ATOM     19  C   UNL     1       8.721  10.506  17.847  0.00  0.00    +0.000 C 
BRANCH  19  20
ATOM     20  C   UNL     1       9.948  11.230  18.389  0.00  0.00    +0.000 C 
BRANCH  20  21
ATOM     21  C   UNL     1       9.893  11.334  19.911  0.00  0.00    +0.000 C 
BRANCH  21  22
ATOM     22  C   UNL     1      11.152  12.006  20.455  0.00  0.00    +0.000 C 
BRANCH  22  24
ATOM     23  C   UNL     1      12.231  14.017  19.408  0.00  0.00    +0.000 C 
ATOM     24  C   UNL     1      12.038  12.513  19.321  0.00  0.00    +0.000 C 
ENDBRANCH  22  24
ENDBRANCH  21  22
ENDBRANCH  20  21
ENDBRANCH  19  20
ENDBRANCH  18  19
ENDBRANCH  17  18
ENDBRANCH  16  17
ENDBRANCH   1  16
TORSDOF 13
ENDMDL
