MODEL 1
REMARK VINA RESULT:      -8.6      0.000      0.000
REMARK  Name = 
REMARK  9 active torsions:
REMARK  status: ('A' for Active; 'I' for Inactive)
REMARK    1  A    between atoms: C_1  and  C_2
REMARK    2  A    between atoms: C_5  and  N_6
REMARK    3  A    between atoms: N_9  and  S_10
REMARK    4  A    between atoms: S_10  and  C_13
REMARK    5  A    between atoms: C_16  and  C_17
REMARK    6  A    between atoms: C_17  and  C_18
REMARK    7  A    between atoms: C_18  and  N_19
REMARK    8  A    between atoms: N_19  and  S_20
REMARK    9  A    between atoms: S_20  and  C_23
REMARK                            x       y       z     vdW  Elec       q    Type
REMARK                         _______ _______ _______ _____ _____    ______ ____
ROOT
ATOM      1  C   UNL     1       5.744   5.872  18.133  0.00  0.00    +0.000 A 
ATOM      2  C   UNL     1       4.774   6.611  17.449  0.00  0.00    +0.000 A 
ATOM      3  C   UNL     1       3.444   6.585  17.884  0.00  0.00    +0.000 A 
ATOM      4  C   UNL     1       3.068   5.804  18.985  0.00  0.00    +0.000 A 
ATOM      5  C   UNL     1       4.056   5.071  19.664  0.00  0.00    +0.000 A 
ATOM      6  C   UNL     1       5.385   5.094  19.235  0.00  0.00    +0.000 A 
ENDROOT
BRANCH   1   7
ATOM      7  S   UNL     1       7.418   5.822  17.533  0.00  0.00    +0.000 S 
ATOM      8  O   UNL     1       7.440   6.254  16.154  0.00  0.00    +0.000 OA
ATOM      9  O   UNL     1       7.973   4.534  17.907  0.00  0.00    +0.000 OA
BRANCH   7  13
ATOM     10  N   UNL     1       9.029   8.993  19.103  0.00  0.00    +0.000 N 
ATOM     11  C   UNL     1       8.197   8.289  18.280  0.00  0.00    +0.000 C 
ATOM     12  O   UNL     1       7.488   8.817  17.436  0.00  0.00    +0.000 OA
ATOM     13  N   UNL     1       8.216   6.925  18.496  0.00  0.00    +0.000 N 
ATOM     14  H   UNL     1       9.470   8.523  19.878  0.00  0.00    +0.000 HD
ATOM     15  H   UNL     1       8.835   6.493  19.167  0.00  0.00    +0.000 HD
BRANCH  10  20
ATOM     16  C   UNL     1      10.512  14.577  19.058  0.00  0.00    +0.000 C 
ATOM     17  C   UNL     1      10.501  13.055  19.194  0.00  0.00    +0.000 C 
ATOM     18  C   UNL     1       9.485  12.609  20.256  0.00  0.00    +0.000 C 
ATOM     19  C   UNL     1       9.405  11.086  20.363  0.00  0.00    +0.000 C 
ATOM     20  C   UNL     1       9.111  10.443  19.001  0.00  0.00    +0.000 C 
ATOM     21  C   UNL     1      10.148  10.872  17.960  0.00  0.00    +0.000 C 
ATOM     22  C   UNL     1      10.203  12.395  17.841  0.00  0.00    +0.000 C 
ENDBRANCH  10  20
ENDBRANCH   7  13
ENDBRANCH   1   7
BRANCH   4  23
ATOM     23  C   UNL     1       1.620   5.723  19.420  0.00  0.00    +0.000 C 
BRANCH  23  24
ATOM     24  C   UNL     1       1.434   6.227  20.857  0.00  0.00    +0.000 C 
BRANCH  24  25
ATOM     25  N   UNL     1       1.865   7.633  20.989  0.00  0.00    +0.000 NA
ATOM     26  H   UNL     1       2.219   8.076  20.139  0.00  0.00    +0.000 HD
BRANCH  25  27
ATOM     27  S   UNL     1       0.753   8.684  21.724  0.00  0.00    +0.000 S 
ATOM     28  O   UNL     1      -0.452   7.917  21.950  0.00  0.00    +0.000 OA
ATOM     29  O   UNL     1       1.446   9.338  22.811  0.00  0.00    +0.000 OA
BRANCH  27  30
ATOM     30  C   UNL     1       0.417   9.876  20.455  0.00  0.00    +0.000 A 
ATOM     31  C   UNL     1       1.032   9.749  19.207  0.00  0.00    +0.000 A 
ATOM     32  C   UNL     1       0.762  10.694  18.214  0.00  0.00    +0.000 A 
ATOM     33  C   UNL     1      -0.118  11.748  18.469  0.00  0.00    +0.000 A 
ATOM     34  C   UNL     1      -0.736  11.863  19.714  0.00  0.00    +0.000 A 
ATOM     35  C   UNL     1      -0.471  10.925  20.712  0.00  0.00    +0.000 A 
ENDBRANCH  27  30
ENDBRANCH  25  27
ENDBRANCH  24  25
ENDBRANCH  23  24
ENDBRANCH   4  23
TORSDOF 8
ENDMDL
MODEL 2
REMARK VINA RESULT:      -8.4      3.030      4.522
REMARK  Name = 
REMARK  9 active torsions:
REMARK  status: ('A' for Active; 'I' for Inactive)
REMARK    1  A    between atoms: C_1  and  C_2
REMARK    2  A    between atoms: C_5  and  N_6
REMARK    3  A    between atoms: N_9  and  S_10
REMARK    4  A    between atoms: S_10  and  C_13
REMARK    5  A    between atoms: C_16  and  C_17
REMARK    6  A    between atoms: C_17  and  C_18
REMARK    7  A    between atoms: C_18  and  N_19
REMARK    8  A    between atoms: N_19  and  S_20
REMARK    9  A    between atoms: S_20  and  C_23
REMARK                            x       y       z     vdW  Elec       q    Type
REMARK                         _______ _______ _______ _____ _____    ______ ____
ROOT
ATOM      1  C   UNL     1       5.780   6.015  18.132  0.00  0.00    +0.000 A 
ATOM      2  C   UNL     1       5.485   5.336  19.317  0.00  0.00    +0.000 A 
ATOM      3  C   UNL     1       4.205   5.433  19.875  0.00  0.00    +0.000 A 
ATOM      4  C   UNL     1       3.221   6.227  19.271  0.00  0.00    +0.000 A 
ATOM      5  C   UNL     1       3.533   6.898  18.077  0.00  0.00    +0.000 A 
ATOM      6  C   UNL     1       4.807   6.804  17.515  0.00  0.00    +0.000 A 
ENDROOT
BRANCH   1   7
ATOM      7  S   UNL     1       7.429   5.976  17.465  0.00  0.00    +0.000 S 
ATOM      8  O   UNL     1       7.400   6.458  16.103  0.00  0.00    +0.000 OA
ATOM      9  O   UNL     1       7.988   4.672  17.769  0.00  0.00    +0.000 OA
BRANCH   7  13
ATOM     10  N   UNL     1       9.102   9.082  19.100  0.00  0.00    +0.000 N 
ATOM     11  C   UNL     1       8.228   8.411  18.292  0.00  0.00    +0.000 C 
ATOM     12  O   UNL     1       7.465   8.972  17.520  0.00  0.00    +0.000 OA
ATOM     13  N   UNL     1       8.273   7.038  18.435  0.00  0.00    +0.000 N 
ATOM     14  H   UNL     1       9.593   8.578  19.821  0.00  0.00    +0.000 HD
ATOM     15  H   UNL     1       8.935   6.579  19.044  0.00  0.00    +0.000 HD
BRANCH  10  20
ATOM     16  C   UNL     1      10.517  14.681  19.296  0.00  0.00    +0.000 C 
ATOM     17  C   UNL     1      10.527  13.153  19.355  0.00  0.00    +0.000 C 
ATOM     18  C   UNL     1       9.547  12.641  20.421  0.00  0.00    +0.000 C 
ATOM     19  C   UNL     1       9.488  11.113  20.453  0.00  0.00    +0.000 C 
ATOM     20  C   UNL     1       9.164  10.536  19.069  0.00  0.00    +0.000 C 
ATOM     21  C   UNL     1      10.165  11.030  18.022  0.00  0.00    +0.000 C 
ATOM     22  C   UNL     1      10.199  12.558  17.979  0.00  0.00    +0.000 C 
ENDBRANCH  10  20
ENDBRANCH   7  13
ENDBRANCH   1   7
BRANCH   4  23
ATOM     23  C   UNL     1       1.854   6.385  19.904  0.00  0.00    +0.000 C 
BRANCH  23  24
ATOM     24  C   UNL     1       1.490   5.172  20.770  0.00  0.00    +0.000 C 
BRANCH  24  25
ATOM     25  N   UNL     1       0.534   4.288  20.074  0.00  0.00    +0.000 NA
ATOM     26  H   UNL     1       0.163   4.637  19.188  0.00  0.00    +0.000 HD
BRANCH  25  27
ATOM     27  S   UNL     1       1.033   2.680  19.857  0.00  0.00    +0.000 S 
ATOM     28  O   UNL     1       1.642   2.266  21.101  0.00  0.00    +0.000 OA
ATOM     29  O   UNL     1      -0.087   1.964  19.290  0.00  0.00    +0.000 OA
BRANCH  27  30
ATOM     30  C   UNL     1       2.312   2.811  18.635  0.00  0.00    +0.000 A 
ATOM     31  C   UNL     1       3.521   2.138  18.825  0.00  0.00    +0.000 A 
ATOM     32  C   UNL     1       4.523   2.248  17.857  0.00  0.00    +0.000 A 
ATOM     33  C   UNL     1       4.310   3.019  16.712  0.00  0.00    +0.000 A 
ATOM     34  C   UNL     1       3.097   3.682  16.525  0.00  0.00    +0.000 A 
ATOM     35  C   UNL     1       2.092   3.578  17.487  0.00  0.00    +0.000 A 
ENDBRANCH  27  30
ENDBRANCH  25  27
ENDBRANCH  24  25
ENDBRANCH  23  24
ENDBRANCH   4  23
TORSDOF 8
ENDMDL
MODEL 3
REMARK VINA RESULT:      -8.2      0.814      1.255
REMARK  Name = 
REMARK  9 active torsions:
REMARK  status: ('A' for Active; 'I' for Inactive)
REMARK    1  A    between atoms: C_1  and  C_2
REMARK    2  A    between atoms: C_5  and  N_6
REMARK    3  A    between atoms: N_9  and  S_10
REMARK    4  A    between atoms: S_10  and  C_13
REMARK    5  A    between atoms: C_16  and  C_17
REMARK    6  A    between atoms: C_17  and  C_18
REMARK    7  A    between atoms: C_18  and  N_19
REMARK    8  A    between atoms: N_19  and  S_20
REMARK    9  A    between atoms: S_20  and  C_23
REMARK                            x       y       z     vdW  Elec       q    Type
REMARK                         _______ _______ _______ _____ _____    ______ ____
ROOT
ATOM      1  C   UNL     1       5.694   5.910  18.058  0.00  0.00    +0.000 A 
ATOM      2  C   UNL     1       5.304   5.296  19.251  0.00  0.00    +0.000 A 
ATOM      3  C   UNL     1       4.007   5.484  19.740  0.00  0.00    +0.000 A 
ATOM      4  C   UNL     1       3.099   6.306  19.058  0.00  0.00    +0.000 A 
ATOM      5  C   UNL     1       3.505   6.912  17.858  0.00  0.00    +0.000 A 
ATOM      6  C   UNL     1       4.798   6.727  17.365  0.00  0.00    +0.000 A 
ENDROOT
BRANCH   1   7
ATOM      7  S   UNL     1       7.368   5.755  17.477  0.00  0.00    +0.000 S 
ATOM      8  O   UNL     1       7.424   6.146  16.086  0.00  0.00    +0.000 OA
ATOM      9  O   UNL     1       7.851   4.451  17.891  0.00  0.00    +0.000 OA
BRANCH   7  13
ATOM     10  N   UNL     1       9.050   8.901  19.022  0.00  0.00    +0.000 N 
ATOM     11  C   UNL     1       8.174   8.210  18.234  0.00  0.00    +0.000 C 
ATOM     12  O   UNL     1       7.412   8.751  17.447  0.00  0.00    +0.000 OA
ATOM     13  N   UNL     1       8.215   6.841  18.415  0.00  0.00    +0.000 N 
ATOM     14  H   UNL     1       9.540   8.416  19.757  0.00  0.00    +0.000 HD
ATOM     15  H   UNL     1       8.877   6.398  19.037  0.00  0.00    +0.000 HD
BRANCH  10  20
ATOM     16  C   UNL     1      10.466  14.502  19.109  0.00  0.00    +0.000 C 
ATOM     17  C   UNL     1      10.471  12.977  19.214  0.00  0.00    +0.000 C 
ATOM     18  C   UNL     1       9.448  12.498  20.254  0.00  0.00    +0.000 C 
ATOM     19  C   UNL     1       9.384  10.972  20.329  0.00  0.00    +0.000 C 
ATOM     20  C   UNL     1       9.116  10.354  18.951  0.00  0.00    +0.000 C 
ATOM     21  C   UNL     1      10.160  10.815  17.931  0.00  0.00    +0.000 C 
ATOM     22  C   UNL     1      10.198  12.341  17.844  0.00  0.00    +0.000 C 
ENDBRANCH  10  20
ENDBRANCH   7  13
ENDBRANCH   1   7
BRANCH   4  23
ATOM     23  C   UNL     1       1.714   6.563  19.616  0.00  0.00    +0.000 C 
BRANCH  23  24
ATOM     24  C   UNL     1       1.608   7.960  20.241  0.00  0.00    +0.000 C 
BRANCH  24  25
ATOM     25  N   UNL     1       0.545   8.007  21.264  0.00  0.00    +0.000 NA
ATOM     26  H   UNL     1       0.526   7.232  21.929  0.00  0.00    +0.000 HD
BRANCH  25  27
ATOM     27  S   UNL     1       0.408   9.463  22.125  0.00  0.00    +0.000 S 
ATOM     28  O   UNL     1      -0.822   9.382  22.881  0.00  0.00    +0.000 OA
ATOM     29  O   UNL     1       1.680   9.689  22.775  0.00  0.00    +0.000 OA
BRANCH  27  30
ATOM     30  C   UNL     1       0.190  10.674  20.848  0.00  0.00    +0.000 A 
ATOM     31  C   UNL     1       1.094  11.734  20.738  0.00  0.00    +0.000 A 
ATOM     32  C   UNL     1       0.913  12.683  19.730  0.00  0.00    +0.000 A 
ATOM     33  C   UNL     1      -0.158  12.567  18.841  0.00  0.00    +0.000 A 
ATOM     34  C   UNL     1      -1.052  11.502  18.951  0.00  0.00    +0.000 A 
ATOM     35  C   UNL     1      -0.879  10.550  19.956  0.00  0.00    +0.000 A 
ENDBRANCH  27  30
ENDBRANCH  25  27
ENDBRANCH  24  25
ENDBRANCH  23  24
ENDBRANCH   4  23
TORSDOF 8
ENDMDL
MODEL 4
REMARK VINA RESULT:      -8.2      3.253      3.869
REMARK  Name = 
REMARK  9 active torsions:
REMARK  status: ('A' for Active; 'I' for Inactive)
REMARK    1  A    between atoms: C_1  and  C_2
REMARK    2  A    between atoms: C_5  and  N_6
REMARK    3  A    between atoms: N_9  and  S_10
REMARK    4  A    between atoms: S_10  and  C_13
REMARK    5  A    between atoms: C_16  and  C_17
REMARK    6  A    between atoms: C_17  and  C_18
REMARK    7  A    between atoms: C_18  and  N_19
REMARK    8  A    between atoms: N_19  and  S_20
REMARK    9  A    between atoms: S_20  and  C_23
REMARK                            x       y       z     vdW  Elec       q    Type
REMARK                         _______ _______ _______ _____ _____    ______ ____
ROOT
ATOM      1  C   UNL     1       6.014   5.501  17.605  0.00  0.00    +0.000 A 
ATOM      2  C   UNL     1       5.545   4.390  16.900  0.00  0.00    +0.000 A 
ATOM      3  C   UNL     1       4.956   3.325  17.591  0.00  0.00    +0.000 A 
ATOM      4  C   UNL     1       4.854   3.349  18.989  0.00  0.00    +0.000 A 
ATOM      5  C   UNL     1       5.325   4.477  19.681  0.00  0.00    +0.000 A 
ATOM      6  C   UNL     1       5.913   5.543  18.997  0.00  0.00    +0.000 A 
ENDROOT
BRANCH   1   7
ATOM      7  S   UNL     1       6.850   6.818  16.748  0.00  0.00    +0.000 S 
ATOM      8  O   UNL     1       5.870   7.764  16.265  0.00  0.00    +0.000 OA
ATOM      9  O   UNL     1       7.792   6.206  15.829  0.00  0.00    +0.000 OA
BRANCH   7  13
ATOM     10  N   UNL     1       8.937   9.222  18.979  0.00  0.00    +0.000 N 
ATOM     11  C   UNL     1       8.020   8.878  18.027  0.00  0.00    +0.000 C 
ATOM     12  O   UNL     1       7.438   9.697  17.332  0.00  0.00    +0.000 OA
ATOM     13  N   UNL     1       7.798   7.518  17.927  0.00  0.00    +0.000 N 
ATOM     14  H   UNL     1       9.268   8.519  19.621  0.00  0.00    +0.000 HD
ATOM     15  H   UNL     1       8.313   6.845  18.475  0.00  0.00    +0.000 HD
BRANCH  10  20
ATOM     16  C   UNL     1      11.355  14.323  20.209  0.00  0.00    +0.000 C 
ATOM     17  C   UNL     1      11.076  12.835  19.997  0.00  0.00    +0.000 C 
ATOM     18  C   UNL     1       9.950  12.353  20.923  0.00  0.00    +0.000 C 
ATOM     19  C   UNL     1       9.605  10.883  20.682  0.00  0.00    +0.000 C 
ATOM     20  C   UNL     1       9.271  10.620  19.208  0.00  0.00    +0.000 C 
ATOM     21  C   UNL     1      10.414  11.077  18.298  0.00  0.00    +0.000 C 
ATOM     22  C   UNL     1      10.735  12.555  18.528  0.00  0.00    +0.000 C 
ENDBRANCH  10  20
ENDBRANCH   7  13
ENDBRANCH   1   7
BRANCH   4  23
ATOM     23  C   UNL     1       4.274   2.173  19.746  0.00  0.00    +0.000 C 
BRANCH  23  24
ATOM     24  C   UNL     1       3.511   1.223  18.814  0.00  0.00    +0.000 C 
BRANCH  24  25
ATOM     25  N   UNL     1       2.391   1.917  18.147  0.00  0.00    +0.000 NA
ATOM     26  H   UNL     1       1.912   1.393  17.412  0.00  0.00    +0.000 HD
BRANCH  25  27
ATOM     27  S   UNL     1       1.225   2.601  19.174  0.00  0.00    +0.000 S 
ATOM     28  O   UNL     1      -0.046   2.474  18.496  0.00  0.00    +0.000 OA
ATOM     29  O   UNL     1       1.439   2.038  20.488  0.00  0.00    +0.000 OA
BRANCH  27  30
ATOM     30  C   UNL     1       1.664   4.319  19.204  0.00  0.00    +0.000 A 
ATOM     31  C   UNL     1       1.941   4.983  18.007  0.00  0.00    +0.000 A 
ATOM     32  C   UNL     1       2.286   6.336  18.041  0.00  0.00    +0.000 A 
ATOM     33  C   UNL     1       2.348   7.014  19.261  0.00  0.00    +0.000 A 
ATOM     34  C   UNL     1       2.062   6.346  20.452  0.00  0.00    +0.000 A 
ATOM     35  C   UNL     1       1.717   4.995  20.427  0.00  0.00    +0.000 A 
ENDBRANCH  27  30
ENDBRANCH  25  27
ENDBRANCH  24  25
ENDBRANCH  23  24
ENDBRANCH   4  23
TORSDOF 8
ENDMDL
MODEL 5
REMARK VINA RESULT:      -8.1      4.471      8.758
REMARK  Name = 
REMARK  9 active torsions:
REMARK  status: ('A' for Active; 'I' for Inactive)
REMARK    1  A    between atoms: C_1  and  C_2
REMARK    2  A    between atoms: C_5  and  N_6
REMARK    3  A    between atoms: N_9  and  S_10
REMARK    4  A    between atoms: S_10  and  C_13
REMARK    5  A    between atoms: C_16  and  C_17
REMARK    6  A    between atoms: C_17  and  C_18
REMARK    7  A    between atoms: C_18  and  N_19
REMARK    8  A    between atoms: N_19  and  S_20
REMARK    9  A    between atoms: S_20  and  C_23
REMARK                            x       y       z     vdW  Elec       q    Type
REMARK                         _______ _______ _______ _____ _____    ______ ____
ROOT
ATOM      1  C   UNL     1       1.715   7.621  20.207  0.00  0.00    +0.000 A 
ATOM      2  C   UNL     1       1.782   6.300  20.655  0.00  0.00    +0.000 A 
ATOM      3  C   UNL     1       2.347   5.314  19.837  0.00  0.00    +0.000 A 
ATOM      4  C   UNL     1       2.825   5.635  18.559  0.00  0.00    +0.000 A 
ATOM      5  C   UNL     1       2.756   6.970  18.126  0.00  0.00    +0.000 A 
ATOM      6  C   UNL     1       2.194   7.957  18.938  0.00  0.00    +0.000 A 
ENDROOT
BRANCH   1   7
ATOM      7  S   UNL     1       0.914   8.863  21.198  0.00  0.00    +0.000 S 
ATOM      8  O   UNL     1       1.813   9.280  22.250  0.00  0.00    +0.000 OA
ATOM      9  O   UNL     1      -0.412   8.371  21.519  0.00  0.00    +0.000 OA
BRANCH   7  13
ATOM     10  N   UNL     1       0.363  12.307  19.481  0.00  0.00    +0.000 N 
ATOM     11  C   UNL     1       0.750  11.451  20.472  0.00  0.00    +0.000 C 
ATOM     12  O   UNL     1       1.154  11.828  21.562  0.00  0.00    +0.000 OA
ATOM     13  N   UNL     1       0.656  10.116  20.129  0.00  0.00    +0.000 N 
ATOM     14  H   UNL     1       0.188  11.945  18.557  0.00  0.00    +0.000 HD
ATOM     15  H   UNL     1       0.282   9.812  19.242  0.00  0.00    +0.000 HD
BRANCH  10  20
ATOM     16  C   UNL     1       0.095  18.072  19.186  0.00  0.00    +0.000 C 
ATOM     17  C   UNL     1       0.017  16.574  18.891  0.00  0.00    +0.000 C 
ATOM     18  C   UNL     1       1.414  15.938  18.913  0.00  0.00    +0.000 C 
ATOM     19  C   UNL     1       1.357  14.427  18.689  0.00  0.00    +0.000 C 
ATOM     20  C   UNL     1       0.415  13.747  19.691  0.00  0.00    +0.000 C 
ATOM     21  C   UNL     1      -0.983  14.369  19.637  0.00  0.00    +0.000 C 
ATOM     22  C   UNL     1      -0.918  15.876  19.888  0.00  0.00    +0.000 C 
ENDBRANCH  10  20
ENDBRANCH   7  13
ENDBRANCH   1   7
BRANCH   4  23
ATOM     23  C   UNL     1       3.380   4.562  17.646  0.00  0.00    +0.000 C 
BRANCH  23  24
ATOM     24  C   UNL     1       4.718   4.018  18.163  0.00  0.00    +0.000 C 
BRANCH  24  25
ATOM     25  N   UNL     1       5.600   3.624  17.047  0.00  0.00    +0.000 NA
ATOM     26  H   UNL     1       5.136   3.232  16.225  0.00  0.00    +0.000 HD
BRANCH  25  27
ATOM     27  S   UNL     1       6.714   4.797  16.532  0.00  0.00    +0.000 S 
ATOM     28  O   UNL     1       6.111   6.083  16.799  0.00  0.00    +0.000 OA
ATOM     29  O   UNL     1       7.997   4.434  17.092  0.00  0.00    +0.000 OA
BRANCH  27  30
ATOM     30  C   UNL     1       6.767   4.568  14.775  0.00  0.00    +0.000 A 
ATOM     31  C   UNL     1       5.846   3.714  14.161  0.00  0.00    +0.000 A 
ATOM     32  C   UNL     1       5.896   3.540  12.776  0.00  0.00    +0.000 A 
ATOM     33  C   UNL     1       6.854   4.217  12.017  0.00  0.00    +0.000 A 
ATOM     34  C   UNL     1       7.765   5.074  12.636  0.00  0.00    +0.000 A 
ATOM     35  C   UNL     1       7.722   5.253  14.019  0.00  0.00    +0.000 A 
ENDBRANCH  27  30
ENDBRANCH  25  27
ENDBRANCH  24  25
ENDBRANCH  23  24
ENDBRANCH   4  23
TORSDOF 8
ENDMDL
MODEL 6
REMARK VINA RESULT:      -8.1      3.578      9.278
REMARK  Name = 
REMARK  9 active torsions:
REMARK  status: ('A' for Active; 'I' for Inactive)
REMARK    1  A    between atoms: C_1  and  C_2
REMARK    2  A    between atoms: C_5  and  N_6
REMARK    3  A    between atoms: N_9  and  S_10
REMARK    4  A    between atoms: S_10  and  C_13
REMARK    5  A    between atoms: C_16  and  C_17
REMARK    6  A    between atoms: C_17  and  C_18
REMARK    7  A    between atoms: C_18  and  N_19
REMARK    8  A    between atoms: N_19  and  S_20
REMARK    9  A    between atoms: S_20  and  C_23
REMARK                            x       y       z     vdW  Elec       q    Type
REMARK                         _______ _______ _______ _____ _____    ______ ____
ROOT
ATOM      1  C   UNL     1       1.679   8.740  18.903  0.00  0.00    +0.000 A 
ATOM      2  C   UNL     1       1.620   8.017  20.097  0.00  0.00    +0.000 A 
ATOM      3  C   UNL     1       2.299   6.798  20.208  0.00  0.00    +0.000 A 
ATOM      4  C   UNL     1       3.020   6.281  19.122  0.00  0.00    +0.000 A 
ATOM      5  C   UNL     1       3.073   7.024  17.931  0.00  0.00    +0.000 A 
ATOM      6  C   UNL     1       2.398   8.241  17.815  0.00  0.00    +0.000 A 
ENDROOT
BRANCH   1   7
ATOM      7  S   UNL     1       0.743  10.242  18.719  0.00  0.00    +0.000 S 
ATOM      8  O   UNL     1      -0.306  10.029  17.748  0.00  0.00    +0.000 OA
ATOM      9  O   UNL     1       1.693  11.325  18.546  0.00  0.00    +0.000 OA
BRANCH   7  13
ATOM     10  N   UNL     1      -0.980  11.662  21.901  0.00  0.00    +0.000 N 
ATOM     11  C   UNL     1      -0.661  11.597  20.575  0.00  0.00    +0.000 C 
ATOM     12  O   UNL     1      -1.013  12.436  19.759  0.00  0.00    +0.000 OA
ATOM     13  N   UNL     1       0.088  10.488  20.232  0.00  0.00    +0.000 N 
ATOM     14  H   UNL     1      -0.795  10.868  22.493  0.00  0.00    +0.000 HD
ATOM     15  H   UNL     1       0.411   9.821  20.918  0.00  0.00    +0.000 HD
BRANCH  10  20
ATOM     16  C   UNL     1      -3.677  15.715  25.014  0.00  0.00    +0.000 C 
ATOM     17  C   UNL     1      -2.824  14.533  24.553  0.00  0.00    +0.000 C 
ATOM     18  C   UNL     1      -3.698  13.446  23.912  0.00  0.00    +0.000 C 
ATOM     19  C   UNL     1      -2.861  12.282  23.380  0.00  0.00    +0.000 C 
ATOM     20  C   UNL     1      -1.775  12.770  22.413  0.00  0.00    +0.000 C 
ATOM     21  C   UNL     1      -0.892  13.832  23.073  0.00  0.00    +0.000 C 
ATOM     22  C   UNL     1      -1.734  15.003  23.579  0.00  0.00    +0.000 C 
ENDBRANCH  10  20
ENDBRANCH   7  13
ENDBRANCH   1   7
BRANCH   4  23
ATOM     23  C   UNL     1       3.704   4.934  19.216  0.00  0.00    +0.000 C 
BRANCH  23  24
ATOM     24  C   UNL     1       3.600   4.155  17.899  0.00  0.00    +0.000 C 
BRANCH  24  25
ATOM     25  N   UNL     1       4.914   3.620  17.491  0.00  0.00    +0.000 NA
ATOM     26  H   UNL     1       4.937   2.631  17.235  0.00  0.00    +0.000 HD
BRANCH  25  27
ATOM     27  S   UNL     1       5.738   4.506  16.300  0.00  0.00    +0.000 S 
ATOM     28  O   UNL     1       6.624   3.578  15.635  0.00  0.00    +0.000 OA
ATOM     29  O   UNL     1       4.742   5.256  15.568  0.00  0.00    +0.000 OA
BRANCH  27  30
ATOM     30  C   UNL     1       6.731   5.633  17.244  0.00  0.00    +0.000 A 
ATOM     31  C   UNL     1       6.900   6.946  16.797  0.00  0.00    +0.000 A 
ATOM     32  C   UNL     1       7.684   7.826  17.547  0.00  0.00    +0.000 A 
ATOM     33  C   UNL     1       8.286   7.395  18.731  0.00  0.00    +0.000 A 
ATOM     34  C   UNL     1       8.106   6.085  19.176  0.00  0.00    +0.000 A 
ATOM     35  C   UNL     1       7.325   5.199  18.433  0.00  0.00    +0.000 A 
ENDBRANCH  27  30
ENDBRANCH  25  27
ENDBRANCH  24  25
ENDBRANCH  23  24
ENDBRANCH   4  23
TORSDOF 8
ENDMDL
MODEL 7
REMARK VINA RESULT:      -8.0      3.334      8.024
REMARK  Name = 
REMARK  9 active torsions:
REMARK  status: ('A' for Active; 'I' for Inactive)
REMARK    1  A    between atoms: C_1  and  C_2
REMARK    2  A    between atoms: C_5  and  N_6
REMARK    3  A    between atoms: N_9  and  S_10
REMARK    4  A    between atoms: S_10  and  C_13
REMARK    5  A    between atoms: C_16  and  C_17
REMARK    6  A    between atoms: C_17  and  C_18
REMARK    7  A    between atoms: C_18  and  N_19
REMARK    8  A    between atoms: N_19  and  S_20
REMARK    9  A    between atoms: S_20  and  C_23
REMARK                            x       y       z     vdW  Elec       q    Type
REMARK                         _______ _______ _______ _____ _____    ______ ____
ROOT
ATOM      1  C   UNL     1       1.736   7.173  20.447  0.00  0.00    +0.000 A 
ATOM      2  C   UNL     1       1.558   5.891  20.972  0.00  0.00    +0.000 A 
ATOM      3  C   UNL     1       2.080   4.782  20.296  0.00  0.00    +0.000 A 
ATOM      4  C   UNL     1       2.759   4.942  19.080  0.00  0.00    +0.000 A 
ATOM      5  C   UNL     1       2.934   6.239  18.569  0.00  0.00    +0.000 A 
ATOM      6  C   UNL     1       2.416   7.348  19.240  0.00  0.00    +0.000 A 
ENDROOT
BRANCH   1   7
ATOM      7  S   UNL     1       0.996   8.579  21.247  0.00  0.00    +0.000 S 
ATOM      8  O   UNL     1       1.780   8.928  22.411  0.00  0.00    +0.000 OA
ATOM      9  O   UNL     1      -0.423   8.307  21.375  0.00  0.00    +0.000 OA
BRANCH   7  13
ATOM     10  N   UNL     1       1.002  11.942  19.296  0.00  0.00    +0.000 N 
ATOM     11  C   UNL     1       1.040  11.134  20.397  0.00  0.00    +0.000 C 
ATOM     12  O   UNL     1       1.035  11.562  21.541  0.00  0.00    +0.000 OA
ATOM     13  N   UNL     1       1.098   9.785  20.101  0.00  0.00    +0.000 N 
ATOM     14  H   UNL     1       1.163  11.543  18.385  0.00  0.00    +0.000 HD
ATOM     15  H   UNL     1       1.059   9.438  19.154  0.00  0.00    +0.000 HD
BRANCH  10  20
ATOM     16  C   UNL     1       1.018  17.689  18.695  0.00  0.00    +0.000 C 
ATOM     17  C   UNL     1       1.095  16.180  18.459  0.00  0.00    +0.000 C 
ATOM     18  C   UNL     1       2.240  15.558  19.272  0.00  0.00    +0.000 C 
ATOM     19  C   UNL     1       2.295  14.039  19.107  0.00  0.00    +0.000 C 
ATOM     20  C   UNL     1       0.948  13.389  19.448  0.00  0.00    +0.000 C 
ATOM     21  C   UNL     1      -0.179  13.996  18.609  0.00  0.00    +0.000 C 
ATOM     22  C   UNL     1      -0.243  15.512  18.800  0.00  0.00    +0.000 C 
ENDBRANCH  10  20
ENDBRANCH   7  13
ENDBRANCH   1   7
BRANCH   4  23
ATOM     23  C   UNL     1       3.271   3.740  18.314  0.00  0.00    +0.000 C 
BRANCH  23  24
ATOM     24  C   UNL     1       3.698   4.119  16.890  0.00  0.00    +0.000 C 
BRANCH  24  25
ATOM     25  N   UNL     1       5.100   3.733  16.634  0.00  0.00    +0.000 NA
ATOM     26  H   UNL     1       5.244   2.801  16.242  0.00  0.00    +0.000 HD
BRANCH  25  27
ATOM     27  S   UNL     1       6.024   4.844  15.743  0.00  0.00    +0.000 S 
ATOM     28  O   UNL     1       6.983   4.070  14.987  0.00  0.00    +0.000 OA
ATOM     29  O   UNL     1       5.094   5.738  15.090  0.00  0.00    +0.000 OA
BRANCH  27  30
ATOM     30  C   UNL     1       6.904   5.741  16.994  0.00  0.00    +0.000 A 
ATOM     31  C   UNL     1       7.150   7.105  16.823  0.00  0.00    +0.000 A 
ATOM     32  C   UNL     1       7.845   7.803  17.815  0.00  0.00    +0.000 A 
ATOM     33  C   UNL     1       8.282   7.140  18.964  0.00  0.00    +0.000 A 
ATOM     34  C   UNL     1       8.025   5.779  19.132  0.00  0.00    +0.000 A 
ATOM     35  C   UNL     1       7.332   5.075  18.146  0.00  0.00    +0.000 A 
ENDBRANCH  27  30
ENDBRANCH  25  27
ENDBRANCH  24  25
ENDBRANCH  23  24
ENDBRANCH   4  23
TORSDOF 8
ENDMDL
MODEL 8
REMARK VINA RESULT:      -7.9      4.360      8.580
REMARK  Name = 
REMARK  9 active torsions:
REMARK  status: ('A' for Active; 'I' for Inactive)
REMARK    1  A    between atoms: C_1  and  C_2
REMARK    2  A    between atoms: C_5  and  N_6
REMARK    3  A    between atoms: N_9  and  S_10
REMARK    4  A    between atoms: S_10  and  C_13
REMARK    5  A    between atoms: C_16  and  C_17
REMARK    6  A    between atoms: C_17  and  C_18
REMARK    7  A    between atoms: C_18  and  N_19
REMARK    8  A    between atoms: N_19  and  S_20
REMARK    9  A    between atoms: S_20  and  C_23
REMARK                            x       y       z     vdW  Elec       q    Type
REMARK                         _______ _______ _______ _____ _____    ______ ____
ROOT
ATOM      1  C   UNL     1       1.632   7.477  20.385  0.00  0.00    +0.000 A 
ATOM      2  C   UNL     1       2.348   7.635  19.195  0.00  0.00    +0.000 A 
ATOM      3  C   UNL     1       2.916   6.519  18.570  0.00  0.00    +0.000 A 
ATOM      4  C   UNL     1       2.797   5.244  19.140  0.00  0.00    +0.000 A 
ATOM      5  C   UNL     1       2.070   5.102  20.333  0.00  0.00    +0.000 A 
ATOM      6  C   UNL     1       1.500   6.211  20.960  0.00  0.00    +0.000 A 
ENDROOT
BRANCH   1   7
ATOM      7  S   UNL     1       0.987   8.899  21.237  0.00  0.00    +0.000 S 
ATOM      8  O   UNL     1       1.828   9.188  22.377  0.00  0.00    +0.000 OA
ATOM      9  O   UNL     1      -0.438   8.689  21.412  0.00  0.00    +0.000 OA
BRANCH   7  13
ATOM     10  N   UNL     1       0.972  12.283  19.324  0.00  0.00    +0.000 N 
ATOM     11  C   UNL     1       0.985  11.463  20.417  0.00  0.00    +0.000 C 
ATOM     12  O   UNL     1       0.911  11.877  21.564  0.00  0.00    +0.000 OA
ATOM     13  N   UNL     1       1.102  10.122  20.110  0.00  0.00    +0.000 N 
ATOM     14  H   UNL     1       1.190  11.901  18.418  0.00  0.00    +0.000 HD
ATOM     15  H   UNL     1       1.121   9.785  19.158  0.00  0.00    +0.000 HD
BRANCH  10  20
ATOM     16  C   UNL     1       0.242  17.990  18.787  0.00  0.00    +0.000 C 
ATOM     17  C   UNL     1       0.343  16.485  18.537  0.00  0.00    +0.000 C 
ATOM     18  C   UNL     1       1.771  15.983  18.793  0.00  0.00    +0.000 C 
ATOM     19  C   UNL     1       1.883  14.469  18.616  0.00  0.00    +0.000 C 
ATOM     20  C   UNL     1       0.863  13.726  19.488  0.00  0.00    +0.000 C 
ATOM     21  C   UNL     1      -0.559  14.214  19.202  0.00  0.00    +0.000 C 
ATOM     22  C   UNL     1      -0.668  15.725  19.406  0.00  0.00    +0.000 C 
ENDBRANCH  10  20
ENDBRANCH   7  13
ENDBRANCH   1   7
BRANCH   4  23
ATOM     23  C   UNL     1       3.463   4.043  18.500  0.00  0.00    +0.000 C 
BRANCH  23  24
ATOM     24  C   UNL     1       4.965   4.274  18.296  0.00  0.00    +0.000 C 
BRANCH  24  25
ATOM     25  N   UNL     1       5.340   4.123  16.876  0.00  0.00    +0.000 NA
ATOM     26  H   UNL     1       4.568   3.994  16.219  0.00  0.00    +0.000 HD
BRANCH  25  27
ATOM     27  S   UNL     1       6.386   5.307  16.255  0.00  0.00    +0.000 S 
ATOM     28  O   UNL     1       5.651   6.552  16.263  0.00  0.00    +0.000 OA
ATOM     29  O   UNL     1       7.643   5.168  16.956  0.00  0.00    +0.000 OA
BRANCH  27  30
ATOM     30  C   UNL     1       6.609   4.811  14.567  0.00  0.00    +0.000 A 
ATOM     31  C   UNL     1       7.609   5.409  13.796  0.00  0.00    +0.000 A 
ATOM     32  C   UNL     1       7.775   5.011  12.468  0.00  0.00    +0.000 A 
ATOM     33  C   UNL     1       6.952   4.024  11.922  0.00  0.00    +0.000 A 
ATOM     34  C   UNL     1       5.961   3.424  12.700  0.00  0.00    +0.000 A 
ATOM     35  C   UNL     1       5.788   3.815  14.028  0.00  0.00    +0.000 A 
ENDBRANCH  27  30
ENDBRANCH  25  27
ENDBRANCH  24  25
ENDBRANCH  23  24
ENDBRANCH   4  23
TORSDOF 8
ENDMDL
MODEL 9
REMARK VINA RESULT:      -7.8      1.517      2.249
REMARK  Name = 
REMARK  9 active torsions:
REMARK  status: ('A' for Active; 'I' for Inactive)
REMARK    1  A    between atoms: C_1  and  C_2
REMARK    2  A    between atoms: C_5  and  N_6
REMARK    3  A    between atoms: N_9  and  S_10
REMARK    4  A    between atoms: S_10  and  C_13
REMARK    5  A    between atoms: C_16  and  C_17
REMARK    6  A    between atoms: C_17  and  C_18
REMARK    7  A    between atoms: C_18  and  N_19
REMARK    8  A    between atoms: N_19  and  S_20
REMARK    9  A    between atoms: S_20  and  C_23
REMARK                            x       y       z     vdW  Elec       q    Type
REMARK                         _______ _______ _______ _____ _____    ______ ____
ROOT
ATOM      1  C   UNL     1       5.592   6.013  18.076  0.00  0.00    +0.000 A 
ATOM      2  C   UNL     1       5.146   5.338  19.214  0.00  0.00    +0.000 A 
ATOM      3  C   UNL     1       3.851   5.562  19.695  0.00  0.00    +0.000 A 
ATOM      4  C   UNL     1       3.003   6.480  19.061  0.00  0.00    +0.000 A 
ATOM      5  C   UNL     1       3.466   7.147  17.914  0.00  0.00    +0.000 A 
ATOM      6  C   UNL     1       4.756   6.926  17.429  0.00  0.00    +0.000 A 
ENDROOT
BRANCH   1   7
ATOM      7  S   UNL     1       7.267   5.807  17.511  0.00  0.00    +0.000 S 
ATOM      8  O   UNL     1       7.345   6.180  16.117  0.00  0.00    +0.000 OA
ATOM      9  O   UNL     1       7.711   4.495  17.944  0.00  0.00    +0.000 OA
BRANCH   7  13
ATOM     10  N   UNL     1       9.025   8.922  19.032  0.00  0.00    +0.000 N 
ATOM     11  C   UNL     1       8.139   8.247  18.243  0.00  0.00    +0.000 C 
ATOM     12  O   UNL     1       7.406   8.799  17.436  0.00  0.00    +0.000 OA
ATOM     13  N   UNL     1       8.134   6.880  18.445  0.00  0.00    +0.000 N 
ATOM     14  H   UNL     1       9.489   8.434  19.782  0.00  0.00    +0.000 HD
ATOM     15  H   UNL     1       8.773   6.427  19.083  0.00  0.00    +0.000 HD
BRANCH  10  20
ATOM     16  C   UNL     1      10.608  14.479  19.078  0.00  0.00    +0.000 C 
ATOM     17  C   UNL     1      10.563  12.957  19.209  0.00  0.00    +0.000 C 
ATOM     18  C   UNL     1       9.489  12.526  20.218  0.00  0.00    +0.000 C 
ATOM     19  C   UNL     1       9.376  11.004  20.316  0.00  0.00    +0.000 C 
ATOM     20  C   UNL     1       9.138  10.371  18.940  0.00  0.00    +0.000 C 
ATOM     21  C   UNL     1      10.231  10.783  17.951  0.00  0.00    +0.000 C 
ATOM     22  C   UNL     1      10.319  12.305  17.840  0.00  0.00    +0.000 C 
ENDBRANCH  10  20
ENDBRANCH   7  13
ENDBRANCH   1   7
BRANCH   4  23
ATOM     23  C   UNL     1       1.624   6.774  19.614  0.00  0.00    +0.000 C 
BRANCH  23  24
ATOM     24  C   UNL     1       1.612   8.063  20.444  0.00  0.00    +0.000 C 
BRANCH  24  25
ATOM     25  N   UNL     1       0.258   8.648  20.500  0.00  0.00    +0.000 NA
ATOM     26  H   UNL     1      -0.179   8.683  21.423  0.00  0.00    +0.000 HD
BRANCH  25  27
ATOM     27  S   UNL     1       0.074  10.164  19.758  0.00  0.00    +0.000 S 
ATOM     28  O   UNL     1       1.394  10.749  19.683  0.00  0.00    +0.000 OA
ATOM     29  O   UNL     1      -0.729   9.959  18.573  0.00  0.00    +0.000 OA
BRANCH  27  30
ATOM     30  C   UNL     1      -0.870  11.087  20.941  0.00  0.00    +0.000 A 
ATOM     31  C   UNL     1      -0.756  10.788  22.302  0.00  0.00    +0.000 A 
ATOM     32  C   UNL     1      -1.504  11.521  23.226  0.00  0.00    +0.000 A 
ATOM     33  C   UNL     1      -2.352  12.542  22.791  0.00  0.00    +0.000 A 
ATOM     34  C   UNL     1      -2.454  12.841  21.432  0.00  0.00    +0.000 A 
ATOM     35  C   UNL     1      -1.711  12.114  20.502  0.00  0.00    +0.000 A 
ENDBRANCH  27  30
ENDBRANCH  25  27
ENDBRANCH  24  25
ENDBRANCH  23  24
ENDBRANCH   4  23
TORSDOF 8
ENDMDL
