MODEL 1
REMARK VINA RESULT:      -7.1      0.000      0.000
REMARK  Name = 
REMARK  5 active torsions:
REMARK  status: ('A' for Active; 'I' for Inactive)
REMARK    1  A    between atoms: C_1  and  N_2
REMARK    2  A    between atoms: N_2  and  C_3
REMARK    3  A    between atoms: C_4  and  C_6
REMARK    4  A    between atoms: N_9  and  C_10
REMARK    5  A    between atoms: C_15  and  C_16
REMARK                            x       y       z     vdW  Elec       q    Type
REMARK                         _______ _______ _______ _____ _____    ______ ____
ROOT
ATOM      1  C   UNL     1       3.021   4.096  19.044  0.00  0.00    +0.000 A 
ATOM      2  C   UNL     1       2.907   2.691  19.011  0.00  0.00    +0.000 A 
ATOM      3  N   UNL     1       1.924   1.932  19.560  0.00  0.00    +0.000 NA
ATOM      4  C   UNL     1       0.956   2.596  20.199  0.00  0.00    +0.000 A 
ATOM      5  C   UNL     1       0.921   3.973  20.292  0.00  0.00    +0.000 A 
ATOM      6  C   UNL     1       1.949   4.754  19.711  0.00  0.00    +0.000 A 
ENDROOT
BRANCH   6   7
ATOM      7  C   UNL     1       1.801   6.230  19.786  0.00  0.00    +0.000 A 
ATOM      8  N   UNL     1       1.545   6.916  20.881  0.00  0.00    +0.000 NA
ATOM      9  C   UNL     1       1.357   8.256  20.597  0.00  0.00    +0.000 A 
ATOM     10  C   UNL     1       0.975   9.250  21.519  0.00  0.00    +0.000 A 
ATOM     11  C   UNL     1       0.869  10.581  21.103  0.00  0.00    +0.000 A 
ATOM     12  C   UNL     1       1.141  10.929  19.783  0.00  0.00    +0.000 A 
ATOM     13  C   UNL     1       1.485   9.954  18.841  0.00  0.00    +0.000 A 
ATOM     14  C   UNL     1       1.570   8.618  19.268  0.00  0.00    +0.000 A 
ATOM     15  S   UNL     1       1.907   7.201  18.356  0.00  0.00    +0.000 S 
ENDBRANCH   6   7
BRANCH   1  19
ATOM     16  C   UNL     1       6.865   5.051  17.488  0.00  0.00    +0.000 C 
ATOM     17  C   UNL     1       5.727   4.431  16.636  0.00  0.00    +0.000 C 
ATOM     18  C   UNL     1       4.333   4.916  17.073  0.00  0.00    +0.000 C 
ATOM     19  N   UNL     1       4.167   4.687  18.519  0.00  0.00    +0.000 N 
ATOM     20  C   UNL     1       5.183   5.317  19.353  0.00  0.00    +0.000 C 
ATOM     21  C   UNL     1       6.543   4.764  18.958  0.00  0.00    +0.000 C 
BRANCH  16  25
ATOM     22  C   UNL     1       7.928   8.756  17.546  0.00  0.00    +0.000 C 
ATOM     23  N   UNL     1       7.815   7.363  17.945  0.00  0.00    +0.000 N 
ATOM     24  C   UNL     1       8.487   6.981  19.174  0.00  0.00    +0.000 C 
ATOM     25  C   UNL     1       7.055   6.535  17.125  0.00  0.00    +0.000 C 
ATOM     26  O   UNL     1       6.585   6.979  16.075  0.00  0.00    +0.000 OA
ENDBRANCH  16  25
ENDBRANCH   1  19
TORSDOF 3
ENDMDL
MODEL 2
REMARK VINA RESULT:      -6.9      0.828      1.292
REMARK  Name = 
REMARK  5 active torsions:
REMARK  status: ('A' for Active; 'I' for Inactive)
REMARK    1  A    between atoms: C_1  and  N_2
REMARK    2  A    between atoms: N_2  and  C_3
REMARK    3  A    between atoms: C_4  and  C_6
REMARK    4  A    between atoms: N_9  and  C_10
REMARK    5  A    between atoms: C_15  and  C_16
REMARK                            x       y       z     vdW  Elec       q    Type
REMARK                         _______ _______ _______ _____ _____    ______ ____
ROOT
ATOM      1  C   UNL     1       3.077   4.151  19.204  0.00  0.00    +0.000 A 
ATOM      2  C   UNL     1       3.028   2.749  19.349  0.00  0.00    +0.000 A 
ATOM      3  N   UNL     1       2.071   2.020  19.979  0.00  0.00    +0.000 NA
ATOM      4  C   UNL     1       1.064   2.713  20.518  0.00  0.00    +0.000 A 
ATOM      5  C   UNL     1       0.964   4.087  20.434  0.00  0.00    +0.000 A 
ATOM      6  C   UNL     1       1.965   4.837  19.769  0.00  0.00    +0.000 A 
ENDROOT
BRANCH   6   7
ATOM      7  C   UNL     1       1.748   6.302  19.655  0.00  0.00    +0.000 A 
ATOM      8  N   UNL     1       1.995   7.028  18.584  0.00  0.00    +0.000 NA
ATOM      9  C   UNL     1       1.791   8.373  18.837  0.00  0.00    +0.000 A 
ATOM     10  C   UNL     1       2.054   9.429  17.942  0.00  0.00    +0.000 A 
ATOM     11  C   UNL     1       1.753  10.744  18.313  0.00  0.00    +0.000 A 
ATOM     12  C   UNL     1       1.194  11.013  19.558  0.00  0.00    +0.000 A 
ATOM     13  C   UNL     1       0.960   9.985  20.477  0.00  0.00    +0.000 A 
ATOM     14  C   UNL     1       1.283   8.670  20.099  0.00  0.00    +0.000 A 
ATOM     15  S   UNL     1       1.172   7.217  21.009  0.00  0.00    +0.000 S 
ENDBRANCH   6   7
BRANCH   1  19
ATOM     16  C   UNL     1       6.847   5.046  17.444  0.00  0.00    +0.000 C 
ATOM     17  C   UNL     1       5.652   4.456  16.652  0.00  0.00    +0.000 C 
ATOM     18  C   UNL     1       4.294   4.963  17.169  0.00  0.00    +0.000 C 
ATOM     19  N   UNL     1       4.203   4.725  18.621  0.00  0.00    +0.000 N 
ATOM     20  C   UNL     1       5.276   5.329  19.402  0.00  0.00    +0.000 C 
ATOM     21  C   UNL     1       6.601   4.753  18.928  0.00  0.00    +0.000 C 
BRANCH  16  25
ATOM     22  C   UNL     1       7.928   8.746  17.506  0.00  0.00    +0.000 C 
ATOM     23  N   UNL     1       7.807   7.354  17.905  0.00  0.00    +0.000 N 
ATOM     24  C   UNL     1       8.473   6.969  19.136  0.00  0.00    +0.000 C 
ATOM     25  C   UNL     1       7.045   6.530  17.082  0.00  0.00    +0.000 C 
ATOM     26  O   UNL     1       6.580   6.977  16.030  0.00  0.00    +0.000 OA
ENDBRANCH  16  25
ENDBRANCH   1  19
TORSDOF 3
ENDMDL
MODEL 3
REMARK VINA RESULT:      -6.7      2.460      6.207
REMARK  Name = 
REMARK  5 active torsions:
REMARK  status: ('A' for Active; 'I' for Inactive)
REMARK    1  A    between atoms: C_1  and  N_2
REMARK    2  A    between atoms: N_2  and  C_3
REMARK    3  A    between atoms: C_4  and  C_6
REMARK    4  A    between atoms: N_9  and  C_10
REMARK    5  A    between atoms: C_15  and  C_16
REMARK                            x       y       z     vdW  Elec       q    Type
REMARK                         _______ _______ _______ _____ _____    ______ ____
ROOT
ATOM      1  C   UNL     1       2.532   4.807  20.194  0.00  0.00    +0.000 A 
ATOM      2  C   UNL     1       1.904   4.327  21.362  0.00  0.00    +0.000 A 
ATOM      3  N   UNL     1       2.075   3.114  21.948  0.00  0.00    +0.000 NA
ATOM      4  C   UNL     1       2.937   2.288  21.349  0.00  0.00    +0.000 A 
ATOM      5  C   UNL     1       3.643   2.629  20.213  0.00  0.00    +0.000 A 
ATOM      6  C   UNL     1       3.462   3.899  19.614  0.00  0.00    +0.000 A 
ENDROOT
BRANCH   6   7
ATOM      7  C   UNL     1       4.314   4.220  18.441  0.00  0.00    +0.000 A 
ATOM      8  N   UNL     1       4.097   3.815  17.206  0.00  0.00    +0.000 NA
ATOM      9  C   UNL     1       5.132   4.191  16.369  0.00  0.00    +0.000 A 
ATOM     10  C   UNL     1       5.264   3.840  15.011  0.00  0.00    +0.000 A 
ATOM     11  C   UNL     1       6.341   4.333  14.268  0.00  0.00    +0.000 A 
ATOM     12  C   UNL     1       7.282   5.170  14.862  0.00  0.00    +0.000 A 
ATOM     13  C   UNL     1       7.191   5.501  16.218  0.00  0.00    +0.000 A 
ATOM     14  C   UNL     1       6.114   4.985  16.958  0.00  0.00    +0.000 A 
ATOM     15  S   UNL     1       5.760   5.155  18.631  0.00  0.00    +0.000 S 
ENDBRANCH   6   7
BRANCH   1  19
ATOM     16  C   UNL     1       2.167   8.848  18.909  0.00  0.00    +0.000 C 
ATOM     17  C   UNL     1       2.909   7.755  18.096  0.00  0.00    +0.000 C 
ATOM     18  C   UNL     1       2.264   6.366  18.250  0.00  0.00    +0.000 C 
ATOM     19  N   UNL     1       2.140   6.041  19.682  0.00  0.00    +0.000 N 
ATOM     20  C   UNL     1       1.386   7.016  20.462  0.00  0.00    +0.000 C 
ATOM     21  C   UNL     1       2.086   8.361  20.359  0.00  0.00    +0.000 C 
BRANCH  16  25
ATOM     22  C   UNL     1      -1.241  10.448  18.083  0.00  0.00    +0.000 C 
ATOM     23  N   UNL     1       0.025  10.205  18.754  0.00  0.00    +0.000 N 
ATOM     24  C   UNL     1       0.320  11.036  19.908  0.00  0.00    +0.000 C 
ATOM     25  C   UNL     1       0.820   9.186  18.243  0.00  0.00    +0.000 C 
ATOM     26  O   UNL     1       0.473   8.594  17.217  0.00  0.00    +0.000 OA
ENDBRANCH  16  25
ENDBRANCH   1  19
TORSDOF 3
ENDMDL
MODEL 4
REMARK VINA RESULT:      -6.5      7.387     12.377
REMARK  Name = 
REMARK  5 active torsions:
REMARK  status: ('A' for Active; 'I' for Inactive)
REMARK    1  A    between atoms: C_1  and  N_2
REMARK    2  A    between atoms: N_2  and  C_3
REMARK    3  A    between atoms: C_4  and  C_6
REMARK    4  A    between atoms: N_9  and  C_10
REMARK    5  A    between atoms: C_15  and  C_16
REMARK                            x       y       z     vdW  Elec       q    Type
REMARK                         _______ _______ _______ _____ _____    ______ ____
ROOT
ATOM      1  C   UNL     1      -3.686  14.654  23.537  0.00  0.00    +0.000 A 
ATOM      2  C   UNL     1      -4.068  15.803  24.261  0.00  0.00    +0.000 A 
ATOM      3  N   UNL     1      -3.329  16.483  25.175  0.00  0.00    +0.000 NA
ATOM      4  C   UNL     1      -2.102  16.008  25.409  0.00  0.00    +0.000 A 
ATOM      5  C   UNL     1      -1.582  14.908  24.758  0.00  0.00    +0.000 A 
ATOM      6  C   UNL     1      -2.360  14.210  23.803  0.00  0.00    +0.000 A 
ENDROOT
BRANCH   6   7
ATOM      7  C   UNL     1      -1.704  13.084  23.090  0.00  0.00    +0.000 A 
ATOM      8  N   UNL     1      -1.581  11.856  23.552  0.00  0.00    +0.000 NA
ATOM      9  C   UNL     1      -0.824  11.076  22.698  0.00  0.00    +0.000 A 
ATOM     10  C   UNL     1      -0.421   9.747  22.933  0.00  0.00    +0.000 A 
ATOM     11  C   UNL     1       0.304   9.057  21.956  0.00  0.00    +0.000 A 
ATOM     12  C   UNL     1       0.627   9.675  20.752  0.00  0.00    +0.000 A 
ATOM     13  C   UNL     1       0.269  11.006  20.511  0.00  0.00    +0.000 A 
ATOM     14  C   UNL     1      -0.443  11.694  21.509  0.00  0.00    +0.000 A 
ATOM     15  S   UNL     1      -0.968  13.330  21.541  0.00  0.00    +0.000 S 
ENDBRANCH   6   7
BRANCH   1  19
ATOM     16  C   UNL     1      -7.103  13.452  21.303  0.00  0.00    +0.000 C 
ATOM     17  C   UNL     1      -6.097  14.527  20.816  0.00  0.00    +0.000 C 
ATOM     18  C   UNL     1      -4.655  14.231  21.266  0.00  0.00    +0.000 C 
ATOM     19  N   UNL     1      -4.629  14.031  22.725  0.00  0.00    +0.000 N 
ATOM     20  C   UNL     1      -5.513  12.977  23.207  0.00  0.00    +0.000 C 
ATOM     21  C   UNL     1      -6.941  13.330  22.822  0.00  0.00    +0.000 C 
BRANCH  16  25
ATOM     22  C   UNL     1      -6.892  10.872  18.447  0.00  0.00    +0.000 C 
ATOM     23  N   UNL     1      -7.062  12.147  19.123  0.00  0.00    +0.000 N 
ATOM     24  C   UNL     1      -7.393  13.288  18.289  0.00  0.00    +0.000 C 
ATOM     25  C   UNL     1      -6.916  12.147  20.506  0.00  0.00    +0.000 C 
ATOM     26  O   UNL     1      -6.576  11.113  21.086  0.00  0.00    +0.000 OA
ENDBRANCH  16  25
ENDBRANCH   1  19
TORSDOF 3
ENDMDL
MODEL 5
REMARK VINA RESULT:      -6.5      7.138     12.143
REMARK  Name = 
REMARK  5 active torsions:
REMARK  status: ('A' for Active; 'I' for Inactive)
REMARK    1  A    between atoms: C_1  and  N_2
REMARK    2  A    between atoms: N_2  and  C_3
REMARK    3  A    between atoms: C_4  and  C_6
REMARK    4  A    between atoms: N_9  and  C_10
REMARK    5  A    between atoms: C_15  and  C_16
REMARK                            x       y       z     vdW  Elec       q    Type
REMARK                         _______ _______ _______ _____ _____    ______ ____
ROOT
ATOM      1  C   UNL     1      -3.360  14.703  23.297  0.00  0.00    +0.000 A 
ATOM      2  C   UNL     1      -3.739  15.866  23.999  0.00  0.00    +0.000 A 
ATOM      3  N   UNL     1      -3.043  16.501  24.976  0.00  0.00    +0.000 NA
ATOM      4  C   UNL     1      -1.866  15.961  25.305  0.00  0.00    +0.000 A 
ATOM      5  C   UNL     1      -1.353  14.838  24.688  0.00  0.00    +0.000 A 
ATOM      6  C   UNL     1      -2.085  14.188  23.665  0.00  0.00    +0.000 A 
ENDROOT
BRANCH   6   7
ATOM      7  C   UNL     1      -1.432  13.033  22.997  0.00  0.00    +0.000 A 
ATOM      8  N   UNL     1      -1.437  11.793  23.440  0.00  0.00    +0.000 NA
ATOM      9  C   UNL     1      -0.648  10.978  22.649  0.00  0.00    +0.000 A 
ATOM     10  C   UNL     1      -0.357   9.621  22.893  0.00  0.00    +0.000 A 
ATOM     11  C   UNL     1       0.418   8.901  21.979  0.00  0.00    +0.000 A 
ATOM     12  C   UNL     1       0.903   9.517  20.829  0.00  0.00    +0.000 A 
ATOM     13  C   UNL     1       0.659  10.873  20.585  0.00  0.00    +0.000 A 
ATOM     14  C   UNL     1      -0.106  11.589  21.520  0.00  0.00    +0.000 A 
ATOM     15  S   UNL     1      -0.526  13.256  21.537  0.00  0.00    +0.000 S 
ENDBRANCH   6   7
BRANCH   1  19
ATOM     16  C   UNL     1      -6.733  13.508  20.994  0.00  0.00    +0.000 C 
ATOM     17  C   UNL     1      -5.927  14.805  20.721  0.00  0.00    +0.000 C 
ATOM     18  C   UNL     1      -4.428  14.643  21.031  0.00  0.00    +0.000 C 
ATOM     19  N   UNL     1      -4.264  14.135  22.405  0.00  0.00    +0.000 N 
ATOM     20  C   UNL     1      -4.954  12.878  22.672  0.00  0.00    +0.000 C 
ATOM     21  C   UNL     1      -6.442  13.084  22.437  0.00  0.00    +0.000 C 
BRANCH  16  25
ATOM     22  C   UNL     1      -6.648  10.245  18.943  0.00  0.00    +0.000 C 
ATOM     23  N   UNL     1      -7.005  11.191  19.988  0.00  0.00    +0.000 N 
ATOM     24  C   UNL     1      -7.911  10.714  21.017  0.00  0.00    +0.000 C 
ATOM     25  C   UNL     1      -6.426  12.453  19.914  0.00  0.00    +0.000 C 
ATOM     26  O   UNL     1      -5.715  12.746  18.949  0.00  0.00    +0.000 OA
ENDBRANCH  16  25
ENDBRANCH   1  19
TORSDOF 3
ENDMDL
MODEL 6
REMARK VINA RESULT:      -6.5      7.028      9.475
REMARK  Name = 
REMARK  5 active torsions:
REMARK  status: ('A' for Active; 'I' for Inactive)
REMARK    1  A    between atoms: C_1  and  N_2
REMARK    2  A    between atoms: N_2  and  C_3
REMARK    3  A    between atoms: C_4  and  C_6
REMARK    4  A    between atoms: N_9  and  C_10
REMARK    5  A    between atoms: C_15  and  C_16
REMARK                            x       y       z     vdW  Elec       q    Type
REMARK                         _______ _______ _______ _____ _____    ______ ____
ROOT
ATOM      1  C   UNL     1       1.386  13.150  19.841  0.00  0.00    +0.000 A 
ATOM      2  C   UNL     1       2.623  13.334  19.190  0.00  0.00    +0.000 A 
ATOM      3  N   UNL     1       3.641  14.148  19.572  0.00  0.00    +0.000 NA
ATOM      4  C   UNL     1       3.444  14.848  20.693  0.00  0.00    +0.000 A 
ATOM      5  C   UNL     1       2.293  14.752  21.450  0.00  0.00    +0.000 A 
ATOM      6  C   UNL     1       1.241  13.896  21.045  0.00  0.00    +0.000 A 
ENDROOT
BRANCH   6   7
ATOM      7  C   UNL     1       0.070  13.789  21.951  0.00  0.00    +0.000 A 
ATOM      8  N   UNL     1      -0.627  12.694  22.172  0.00  0.00    +0.000 NA
ATOM      9  C   UNL     1      -1.720  12.953  22.979  0.00  0.00    +0.000 A 
ATOM     10  C   UNL     1      -2.722  12.028  23.333  0.00  0.00    +0.000 A 
ATOM     11  C   UNL     1      -3.749  12.414  24.201  0.00  0.00    +0.000 A 
ATOM     12  C   UNL     1      -3.784  13.705  24.719  0.00  0.00    +0.000 A 
ATOM     13  C   UNL     1      -2.821  14.651  24.352  0.00  0.00    +0.000 A 
ATOM     14  C   UNL     1      -1.805  14.255  23.465  0.00  0.00    +0.000 A 
ATOM     15  S   UNL     1      -0.528  15.184  22.787  0.00  0.00    +0.000 S 
ENDBRANCH   6   7
BRANCH   1  19
ATOM     16  C   UNL     1      -1.968  10.745  18.801  0.00  0.00    +0.000 C 
ATOM     17  C   UNL     1      -2.008  12.294  18.850  0.00  0.00    +0.000 C 
ATOM     18  C   UNL     1      -0.673  12.932  18.428  0.00  0.00    +0.000 C 
ATOM     19  N   UNL     1       0.420  12.354  19.230  0.00  0.00    +0.000 N 
ATOM     20  C   UNL     1       0.529  10.903  19.149  0.00  0.00    +0.000 C 
ATOM     21  C   UNL     1      -0.772  10.292  19.645  0.00  0.00    +0.000 C 
BRANCH  16  25
ATOM     22  C   UNL     1      -2.965  10.084  15.136  0.00  0.00    +0.000 C 
ATOM     23  N   UNL     1      -3.022  10.601  16.493  0.00  0.00    +0.000 N 
ATOM     24  C   UNL     1      -4.182  11.404  16.836  0.00  0.00    +0.000 C 
ATOM     25  C   UNL     1      -1.973  10.257  17.339  0.00  0.00    +0.000 C 
ATOM     26  O   UNL     1      -1.017   9.614  16.899  0.00  0.00    +0.000 OA
ENDBRANCH  16  25
ENDBRANCH   1  19
TORSDOF 3
ENDMDL
MODEL 7
REMARK VINA RESULT:      -6.4      6.705      9.096
REMARK  Name = 
REMARK  5 active torsions:
REMARK  status: ('A' for Active; 'I' for Inactive)
REMARK    1  A    between atoms: C_1  and  N_2
REMARK    2  A    between atoms: N_2  and  C_3
REMARK    3  A    between atoms: C_4  and  C_6
REMARK    4  A    between atoms: N_9  and  C_10
REMARK    5  A    between atoms: C_15  and  C_16
REMARK                            x       y       z     vdW  Elec       q    Type
REMARK                         _______ _______ _______ _____ _____    ______ ____
ROOT
ATOM      1  C   UNL     1       0.084  11.392  21.316  0.00  0.00    +0.000 A 
ATOM      2  C   UNL     1       0.605  10.135  20.944  0.00  0.00    +0.000 A 
ATOM      3  N   UNL     1       0.469   8.959  21.608  0.00  0.00    +0.000 NA
ATOM      4  C   UNL     1      -0.242   9.001  22.739  0.00  0.00    +0.000 A 
ATOM      5  C   UNL     1      -0.834  10.153  23.215  0.00  0.00    +0.000 A 
ATOM      6  C   UNL     1      -0.690  11.373  22.511  0.00  0.00    +0.000 A 
ENDROOT
BRANCH   6   7
ATOM      7  C   UNL     1      -1.420  12.551  23.045  0.00  0.00    +0.000 A 
ATOM      8  N   UNL     1      -0.862  13.608  23.600  0.00  0.00    +0.000 NA
ATOM      9  C   UNL     1      -1.819  14.476  24.093  0.00  0.00    +0.000 A 
ATOM     10  C   UNL     1      -1.566  15.651  24.827  0.00  0.00    +0.000 A 
ATOM     11  C   UNL     1      -2.632  16.465  25.224  0.00  0.00    +0.000 A 
ATOM     12  C   UNL     1      -3.940  16.121  24.895  0.00  0.00    +0.000 A 
ATOM     13  C   UNL     1      -4.217  14.939  24.199  0.00  0.00    +0.000 A 
ATOM     14  C   UNL     1      -3.139  14.121  23.823  0.00  0.00    +0.000 A 
ATOM     15  S   UNL     1      -3.152  12.600  23.023  0.00  0.00    +0.000 S 
ENDBRANCH   6   7
BRANCH   1  19
ATOM     16  C   UNL     1       1.620  14.203  18.514  0.00  0.00    +0.000 C 
ATOM     17  C   UNL     1       0.393  13.296  18.232  0.00  0.00    +0.000 C 
ATOM     18  C   UNL     1      -0.445  13.030  19.495  0.00  0.00    +0.000 C 
ATOM     19  N   UNL     1       0.429  12.509  20.562  0.00  0.00    +0.000 N 
ATOM     20  C   UNL     1       1.553  13.374  20.899  0.00  0.00    +0.000 C 
ATOM     21  C   UNL     1       2.410  13.559  19.657  0.00  0.00    +0.000 C 
BRANCH  16  25
ATOM     22  C   UNL     1       1.579  18.035  18.926  0.00  0.00    +0.000 C 
ATOM     23  N   UNL     1       2.082  16.697  18.664  0.00  0.00    +0.000 N 
ATOM     24  C   UNL     1       3.496  16.580  18.359  0.00  0.00    +0.000 C 
ATOM     25  C   UNL     1       1.165  15.655  18.754  0.00  0.00    +0.000 C 
ATOM     26  O   UNL     1      -0.025  15.903  18.966  0.00  0.00    +0.000 OA
ENDBRANCH  16  25
ENDBRANCH   1  19
TORSDOF 3
ENDMDL
MODEL 8
REMARK VINA RESULT:      -6.4      6.391      9.197
REMARK  Name = 
REMARK  5 active torsions:
REMARK  status: ('A' for Active; 'I' for Inactive)
REMARK    1  A    between atoms: C_1  and  N_2
REMARK    2  A    between atoms: N_2  and  C_3
REMARK    3  A    between atoms: C_4  and  C_6
REMARK    4  A    between atoms: N_9  and  C_10
REMARK    5  A    between atoms: C_15  and  C_16
REMARK                            x       y       z     vdW  Elec       q    Type
REMARK                         _______ _______ _______ _____ _____    ______ ____
ROOT
ATOM      1  C   UNL     1       0.367  11.539  21.035  0.00  0.00    +0.000 A 
ATOM      2  C   UNL     1       0.844  10.319  20.514  0.00  0.00    +0.000 A 
ATOM      3  N   UNL     1       0.612   9.071  20.996  0.00  0.00    +0.000 NA
ATOM      4  C   UNL     1      -0.159   8.995  22.085  0.00  0.00    +0.000 A 
ATOM      5  C   UNL     1      -0.718  10.102  22.691  0.00  0.00    +0.000 A 
ATOM      6  C   UNL     1      -0.473  11.398  22.177  0.00  0.00    +0.000 A 
ENDROOT
BRANCH   6   7
ATOM      7  C   UNL     1      -1.172  12.530  22.837  0.00  0.00    +0.000 A 
ATOM      8  N   UNL     1      -0.583  13.555  23.420  0.00  0.00    +0.000 NA
ATOM      9  C   UNL     1      -1.508  14.377  24.036  0.00  0.00    +0.000 A 
ATOM     10  C   UNL     1      -1.213  15.505  24.827  0.00  0.00    +0.000 A 
ATOM     11  C   UNL     1      -2.254  16.278  25.350  0.00  0.00    +0.000 A 
ATOM     12  C   UNL     1      -3.579  15.942  25.092  0.00  0.00    +0.000 A 
ATOM     13  C   UNL     1      -3.897  14.805  24.340  0.00  0.00    +0.000 A 
ATOM     14  C   UNL     1      -2.842  14.026  23.836  0.00  0.00    +0.000 A 
ATOM     15  S   UNL     1      -2.901  12.561  22.940  0.00  0.00    +0.000 S 
ENDBRANCH   6   7
BRANCH   1  19
ATOM     16  C   UNL     1       1.247  15.567  19.981  0.00  0.00    +0.000 C 
ATOM     17  C   UNL     1       2.006  14.786  21.085  0.00  0.00    +0.000 C 
ATOM     18  C   UNL     1       2.140  13.287  20.761  0.00  0.00    +0.000 C 
ATOM     19  N   UNL     1       0.809  12.729  20.466  0.00  0.00    +0.000 N 
ATOM     20  C   UNL     1       0.098  13.398  19.383  0.00  0.00    +0.000 C 
ATOM     21  C   UNL     1      -0.093  14.859  19.760  0.00  0.00    +0.000 C 
BRANCH  16  25
ATOM     22  C   UNL     1       2.902  16.923  16.774  0.00  0.00    +0.000 C 
ATOM     23  N   UNL     1       2.048  16.865  17.949  0.00  0.00    +0.000 N 
ATOM     24  C   UNL     1       1.173  18.001  18.173  0.00  0.00    +0.000 C 
ATOM     25  C   UNL     1       2.134  15.718  18.730  0.00  0.00    +0.000 C 
ATOM     26  O   UNL     1       2.967  14.851  18.455  0.00  0.00    +0.000 OA
ENDBRANCH  16  25
ENDBRANCH   1  19
TORSDOF 3
ENDMDL
MODEL 9
REMARK VINA RESULT:      -6.3      5.197      8.786
REMARK  Name = 
REMARK  5 active torsions:
REMARK  status: ('A' for Active; 'I' for Inactive)
REMARK    1  A    between atoms: C_1  and  N_2
REMARK    2  A    between atoms: N_2  and  C_3
REMARK    3  A    between atoms: C_4  and  C_6
REMARK    4  A    between atoms: N_9  and  C_10
REMARK    5  A    between atoms: C_15  and  C_16
REMARK                            x       y       z     vdW  Elec       q    Type
REMARK                         _______ _______ _______ _____ _____    ______ ____
ROOT
ATOM      1  C   UNL     1      -0.645  13.965  20.405  0.00  0.00    +0.000 A 
ATOM      2  C   UNL     1      -1.629  14.920  20.735  0.00  0.00    +0.000 A 
ATOM      3  N   UNL     1      -2.959  14.706  20.902  0.00  0.00    +0.000 NA
ATOM      4  C   UNL     1      -3.378  13.448  20.737  0.00  0.00    +0.000 A 
ATOM      5  C   UNL     1      -2.527  12.404  20.437  0.00  0.00    +0.000 A 
ATOM      6  C   UNL     1      -1.141  12.637  20.270  0.00  0.00    +0.000 A 
ENDROOT
BRANCH   6   7
ATOM      7  C   UNL     1      -0.281  11.451  20.025  0.00  0.00    +0.000 A 
ATOM      8  N   UNL     1       0.299  11.153  18.880  0.00  0.00    +0.000 NA
ATOM      9  C   UNL     1       0.938   9.928  18.950  0.00  0.00    +0.000 A 
ATOM     10  C   UNL     1       1.574   9.268  17.880  0.00  0.00    +0.000 A 
ATOM     11  C   UNL     1       2.227   8.052  18.105  0.00  0.00    +0.000 A 
ATOM     12  C   UNL     1       2.253   7.491  19.378  0.00  0.00    +0.000 A 
ATOM     13  C   UNL     1       1.596   8.111  20.447  0.00  0.00    +0.000 A 
ATOM     14  C   UNL     1       0.929   9.323  20.204  0.00  0.00    +0.000 A 
ATOM     15  S   UNL     1      -0.007  10.286  21.277  0.00  0.00    +0.000 S 
ENDBRANCH   6   7
BRANCH   1  19
ATOM     16  C   UNL     1       3.493  14.401  19.514  0.00  0.00    +0.000 C 
ATOM     17  C   UNL     1       2.393  14.278  18.428  0.00  0.00    +0.000 C 
ATOM     18  C   UNL     1       1.068  14.935  18.855  0.00  0.00    +0.000 C 
ATOM     19  N   UNL     1       0.655  14.399  20.164  0.00  0.00    +0.000 N 
ATOM     20  C   UNL     1       1.642  14.564  21.224  0.00  0.00    +0.000 C 
ATOM     21  C   UNL     1       2.915  13.840  20.817  0.00  0.00    +0.000 C 
BRANCH  16  25
ATOM     22  C   UNL     1       5.683  17.509  20.152  0.00  0.00    +0.000 C 
ATOM     23  N   UNL     1       5.277  16.115  20.098  0.00  0.00    +0.000 N 
ATOM     24  C   UNL     1       6.224  15.140  20.607  0.00  0.00    +0.000 C 
ATOM     25  C   UNL     1       4.011  15.850  19.586  0.00  0.00    +0.000 C 
ATOM     26  O   UNL     1       3.329  16.773  19.132  0.00  0.00    +0.000 OA
ENDBRANCH  16  25
ENDBRANCH   1  19
TORSDOF 3
ENDMDL
