MODEL 1
REMARK VINA RESULT:      -8.2      0.000      0.000
REMARK  Name = 
REMARK  2 active torsions:
REMARK  status: ('A' for Active; 'I' for Inactive)
REMARK    1  A    between atoms: O_1  and  C_2
REMARK    2  A    between atoms: C_6  and  C_7
REMARK                            x       y       z     vdW  Elec       q    Type
REMARK                         _______ _______ _______ _____ _____    ______ ____
ROOT
ATOM      1  C   UNL     1       4.291   5.701  17.320  0.00  0.00    +0.000 C 
ATOM      2  C   UNL     1       3.280   6.728  17.829  0.00  0.00    +0.000 C 
ATOM      3  C   UNL     1       2.822   6.396  19.241  0.00  0.00    +0.000 C 
ATOM      4  C   UNL     1       2.189   5.002  19.283  0.00  0.00    +0.000 C 
ATOM      5  C   UNL     1       1.745   4.669  20.714  0.00  0.00    +0.000 C 
ATOM      6  C   UNL     1       0.990   3.348  20.769  0.00  0.00    +0.000 C 
ATOM      7  C   UNL     1       1.819   2.241  20.122  0.00  0.00    +0.000 C 
ATOM      8  C   UNL     1       2.387   2.664  18.761  0.00  0.00    +0.000 C 
ATOM      9  N   UNL     1       3.125   3.949  18.846  0.00  0.00    +0.000 NA
ATOM     10  C   UNL     1       3.784   4.248  17.560  0.00  0.00    +0.000 C 
ENDROOT
BRANCH   1  15
ATOM     11  C   UNL     1       7.520   5.844  19.290  0.00  0.00    +0.000 A 
ATOM     12  C   UNL     1       8.176   6.939  18.752  0.00  0.00    +0.000 A 
ATOM     13  C   UNL     1       7.671   7.531  17.593  0.00  0.00    +0.000 A 
ATOM     14  C   UNL     1       6.457   7.096  17.038  0.00  0.00    +0.000 A 
ATOM     15  C   UNL     1       5.744   6.049  17.633  0.00  0.00    +0.000 A 
ATOM     16  C   UNL     1       6.353   5.359  18.703  0.00  0.00    +0.000 A 
BRANCH  11  17
ATOM     17  O   UNL     1       8.005   5.299  20.442  0.00  0.00    +0.000 OA
ATOM     18  H   UNL     1       7.393   4.601  20.728  0.00  0.00    +0.000 HD
ENDBRANCH  11  17
ENDBRANCH   1  15
TORSDOF 2
ENDMDL
MODEL 2
REMARK VINA RESULT:      -7.2      1.194      1.249
REMARK  Name = 
REMARK  2 active torsions:
REMARK  status: ('A' for Active; 'I' for Inactive)
REMARK    1  A    between atoms: O_1  and  C_2
REMARK    2  A    between atoms: C_6  and  C_7
REMARK                            x       y       z     vdW  Elec       q    Type
REMARK                         _______ _______ _______ _____ _____    ______ ____
ROOT
ATOM      1  C   UNL     1       3.598   5.136  17.233  0.00  0.00    +0.000 C 
ATOM      2  C   UNL     1       2.630   6.162  17.820  0.00  0.00    +0.000 C 
ATOM      3  C   UNL     1       2.529   6.021  19.332  0.00  0.00    +0.000 C 
ATOM      4  C   UNL     1       2.060   4.612  19.707  0.00  0.00    +0.000 C 
ATOM      5  C   UNL     1       1.977   4.474  21.232  0.00  0.00    +0.000 C 
ATOM      6  C   UNL     1       1.385   3.131  21.638  0.00  0.00    +0.000 C 
ATOM      7  C   UNL     1       2.154   1.993  20.970  0.00  0.00    +0.000 C 
ATOM      8  C   UNL     1       2.364   2.240  19.470  0.00  0.00    +0.000 C 
ATOM      9  N   UNL     1       2.974   3.567  19.208  0.00  0.00    +0.000 NA
ATOM     10  C   UNL     1       3.300   3.707  17.776  0.00  0.00    +0.000 C 
ENDROOT
BRANCH   1  15
ATOM     11  C   UNL     1       7.371   4.984  17.495  0.00  0.00    +0.000 A 
ATOM     12  C   UNL     1       7.739   6.314  17.608  0.00  0.00    +0.000 A 
ATOM     13  C   UNL     1       6.779   7.305  17.393  0.00  0.00    +0.000 A 
ATOM     14  C   UNL     1       5.435   6.964  17.173  0.00  0.00    +0.000 A 
ATOM     15  C   UNL     1       5.044   5.620  17.149  0.00  0.00    +0.000 A 
ATOM     16  C   UNL     1       6.054   4.636  17.204  0.00  0.00    +0.000 A 
BRANCH  11  17
ATOM     17  O   UNL     1       8.311   4.028  17.742  0.00  0.00    +0.000 OA
ATOM     18  H   UNL     1       8.179   3.302  17.111  0.00  0.00    +0.000 HD
ENDBRANCH  11  17
ENDBRANCH   1  15
TORSDOF 2
ENDMDL
MODEL 3
REMARK VINA RESULT:      -7.1      1.240      1.580
REMARK  Name = 
REMARK  2 active torsions:
REMARK  status: ('A' for Active; 'I' for Inactive)
REMARK    1  A    between atoms: O_1  and  C_2
REMARK    2  A    between atoms: C_6  and  C_7
REMARK                            x       y       z     vdW  Elec       q    Type
REMARK                         _______ _______ _______ _____ _____    ______ ____
ROOT
ATOM      1  C   UNL     1       4.842   3.771  17.428  0.00  0.00    +0.000 C 
ATOM      2  C   UNL     1       3.493   4.081  16.780  0.00  0.00    +0.000 C 
ATOM      3  C   UNL     1       2.524   4.679  17.789  0.00  0.00    +0.000 C 
ATOM      4  C   UNL     1       2.311   3.717  18.961  0.00  0.00    +0.000 C 
ATOM      5  C   UNL     1       1.345   4.336  19.980  0.00  0.00    +0.000 C 
ATOM      6  C   UNL     1       1.006   3.353  21.093  0.00  0.00    +0.000 C 
ATOM      7  C   UNL     1       2.286   2.812  21.726  0.00  0.00    +0.000 C 
ATOM      8  C   UNL     1       3.301   2.351  20.672  0.00  0.00    +0.000 C 
ATOM      9  N   UNL     1       3.570   3.406  19.664  0.00  0.00    +0.000 NA
ATOM     10  C   UNL     1       4.659   2.987  18.761  0.00  0.00    +0.000 C 
ENDROOT
BRANCH   1  15
ATOM     11  C   UNL     1       7.611   6.080  18.581  0.00  0.00    +0.000 A 
ATOM     12  C   UNL     1       7.418   7.219  17.818  0.00  0.00    +0.000 A 
ATOM     13  C   UNL     1       6.505   7.183  16.762  0.00  0.00    +0.000 A 
ATOM     14  C   UNL     1       5.713   6.045  16.540  0.00  0.00    +0.000 A 
ATOM     15  C   UNL     1       5.842   4.924  17.367  0.00  0.00    +0.000 A 
ATOM     16  C   UNL     1       6.882   4.922  18.321  0.00  0.00    +0.000 A 
BRANCH  11  17
ATOM     17  O   UNL     1       8.479   6.142  19.630  0.00  0.00    +0.000 OA
ATOM     18  H   UNL     1       7.986   5.946  20.444  0.00  0.00    +0.000 HD
ENDBRANCH  11  17
ENDBRANCH   1  15
TORSDOF 2
ENDMDL
MODEL 4
REMARK VINA RESULT:      -7.0      2.413      5.690
REMARK  Name = 
REMARK  2 active torsions:
REMARK  status: ('A' for Active; 'I' for Inactive)
REMARK    1  A    between atoms: O_1  and  C_2
REMARK    2  A    between atoms: C_6  and  C_7
REMARK                            x       y       z     vdW  Elec       q    Type
REMARK                         _______ _______ _______ _____ _____    ______ ____
ROOT
ATOM      1  C   UNL     1       3.582   5.696  19.539  0.00  0.00    +0.000 C 
ATOM      2  C   UNL     1       3.285   6.850  18.580  0.00  0.00    +0.000 C 
ATOM      3  C   UNL     1       3.654   6.485  17.151  0.00  0.00    +0.000 C 
ATOM      4  C   UNL     1       5.139   6.122  17.058  0.00  0.00    +0.000 C 
ATOM      5  C   UNL     1       5.498   5.741  15.616  0.00  0.00    +0.000 C 
ATOM      6  C   UNL     1       6.994   5.504  15.459  0.00  0.00    +0.000 C 
ATOM      7  C   UNL     1       7.477   4.487  16.491  0.00  0.00    +0.000 C 
ATOM      8  C   UNL     1       6.965   4.806  17.901  0.00  0.00    +0.000 C 
ATOM      9  N   UNL     1       5.491   4.984  17.927  0.00  0.00    +0.000 NA
ATOM     10  C   UNL     1       5.018   5.136  19.316  0.00  0.00    +0.000 C 
ENDROOT
BRANCH   1  15
ATOM     11  C   UNL     1       1.439   3.066  21.216  0.00  0.00    +0.000 A 
ATOM     12  C   UNL     1       0.740   2.500  20.162  0.00  0.00    +0.000 A 
ATOM     13  C   UNL     1       0.801   3.105  18.905  0.00  0.00    +0.000 A 
ATOM     14  C   UNL     1       1.641   4.208  18.681  0.00  0.00    +0.000 A 
ATOM     15  C   UNL     1       2.418   4.725  19.723  0.00  0.00    +0.000 A 
ATOM     16  C   UNL     1       2.218   4.204  21.019  0.00  0.00    +0.000 A 
BRANCH  11  17
ATOM     17  O   UNL     1       1.398   2.443  22.428  0.00  0.00    +0.000 OA
ATOM     18  H   UNL     1       0.808   2.950  23.010  0.00  0.00    +0.000 HD
ENDBRANCH  11  17
ENDBRANCH   1  15
TORSDOF 2
ENDMDL
MODEL 5
REMARK VINA RESULT:      -6.9      1.339      1.786
REMARK  Name = 
REMARK  2 active torsions:
REMARK  status: ('A' for Active; 'I' for Inactive)
REMARK    1  A    between atoms: O_1  and  C_2
REMARK    2  A    between atoms: C_6  and  C_7
REMARK                            x       y       z     vdW  Elec       q    Type
REMARK                         _______ _______ _______ _____ _____    ______ ____
ROOT
ATOM      1  C   UNL     1       4.327   5.687  17.225  0.00  0.00    +0.000 C 
ATOM      2  C   UNL     1       3.107   6.539  17.574  0.00  0.00    +0.000 C 
ATOM      3  C   UNL     1       2.373   5.981  18.784  0.00  0.00    +0.000 C 
ATOM      4  C   UNL     1       1.924   4.541  18.518  0.00  0.00    +0.000 C 
ATOM      5  C   UNL     1       1.200   3.981  19.750  0.00  0.00    +0.000 C 
ATOM      6  C   UNL     1       0.621   2.600  19.474  0.00  0.00    +0.000 C 
ATOM      7  C   UNL     1       1.708   1.670  18.939  0.00  0.00    +0.000 C 
ATOM      8  C   UNL     1       2.524   2.322  17.815  0.00  0.00    +0.000 C 
ATOM      9  N   UNL     1       3.058   3.647  18.217  0.00  0.00    +0.000 NA
ATOM     10  C   UNL     1       3.960   4.174  17.175  0.00  0.00    +0.000 C 
ENDROOT
BRANCH   1  15
ATOM     11  C   UNL     1       7.567   7.569  17.758  0.00  0.00    +0.000 A 
ATOM     12  C   UNL     1       8.259   6.771  18.654  0.00  0.00    +0.000 A 
ATOM     13  C   UNL     1       7.597   5.703  19.264  0.00  0.00    +0.000 A 
ATOM     14  C   UNL     1       6.282   5.373  18.898  0.00  0.00    +0.000 A 
ATOM     15  C   UNL     1       5.612   6.124  17.925  0.00  0.00    +0.000 A 
ATOM     16  C   UNL     1       6.239   7.293  17.443  0.00  0.00    +0.000 A 
BRANCH  11  17
ATOM     17  O   UNL     1       8.238   8.585  17.145  0.00  0.00    +0.000 OA
ATOM     18  H   UNL     1       7.746   9.409  17.298  0.00  0.00    +0.000 HD
ENDBRANCH  11  17
ENDBRANCH   1  15
TORSDOF 2
ENDMDL
MODEL 6
REMARK VINA RESULT:      -6.9      2.081      2.605
REMARK  Name = 
REMARK  2 active torsions:
REMARK  status: ('A' for Active; 'I' for Inactive)
REMARK    1  A    between atoms: O_1  and  C_2
REMARK    2  A    between atoms: C_6  and  C_7
REMARK                            x       y       z     vdW  Elec       q    Type
REMARK                         _______ _______ _______ _____ _____    ______ ____
ROOT
ATOM      1  C   UNL     1       4.134   3.465  17.192  0.00  0.00    +0.000 C 
ATOM      2  C   UNL     1       2.674   3.616  16.763  0.00  0.00    +0.000 C 
ATOM      3  C   UNL     1       1.832   4.214  17.879  0.00  0.00    +0.000 C 
ATOM      4  C   UNL     1       1.902   3.336  19.132  0.00  0.00    +0.000 C 
ATOM      5  C   UNL     1       1.063   3.956  20.257  0.00  0.00    +0.000 C 
ATOM      6  C   UNL     1       1.001   3.041  21.473  0.00  0.00    +0.000 C 
ATOM      7  C   UNL     1       2.411   2.655  21.915  0.00  0.00    +0.000 C 
ATOM      8  C   UNL     1       3.279   2.192  20.737  0.00  0.00    +0.000 C 
ATOM      9  N   UNL     1       3.282   3.182  19.631  0.00  0.00    +0.000 NA
ATOM     10  C   UNL     1       4.242   2.779  18.585  0.00  0.00    +0.000 C 
ENDROOT
BRANCH   1  15
ATOM     11  C   UNL     1       6.914   5.487  15.609  0.00  0.00    +0.000 A 
ATOM     12  C   UNL     1       7.086   6.542  16.489  0.00  0.00    +0.000 A 
ATOM     13  C   UNL     1       6.157   6.729  17.515  0.00  0.00    +0.000 A 
ATOM     14  C   UNL     1       5.122   5.802  17.721  0.00  0.00    +0.000 A 
ATOM     15  C   UNL     1       5.001   4.685  16.887  0.00  0.00    +0.000 A 
ATOM     16  C   UNL     1       5.848   4.604  15.761  0.00  0.00    +0.000 A 
BRANCH  11  17
ATOM     17  O   UNL     1       7.850   5.297  14.635  0.00  0.00    +0.000 OA
ATOM     18  H   UNL     1       7.880   6.097  14.084  0.00  0.00    +0.000 HD
ENDBRANCH  11  17
ENDBRANCH   1  15
TORSDOF 2
ENDMDL
MODEL 7
REMARK VINA RESULT:      -6.9      2.475      5.667
REMARK  Name = 
REMARK  2 active torsions:
REMARK  status: ('A' for Active; 'I' for Inactive)
REMARK    1  A    between atoms: O_1  and  C_2
REMARK    2  A    between atoms: C_6  and  C_7
REMARK                            x       y       z     vdW  Elec       q    Type
REMARK                         _______ _______ _______ _____ _____    ______ ____
ROOT
ATOM      1  C   UNL     1       4.259   5.497  19.518  0.00  0.00    +0.000 C 
ATOM      2  C   UNL     1       3.852   6.736  18.721  0.00  0.00    +0.000 C 
ATOM      3  C   UNL     1       3.877   6.461  17.226  0.00  0.00    +0.000 C 
ATOM      4  C   UNL     1       5.275   6.017  16.787  0.00  0.00    +0.000 C 
ATOM      5  C   UNL     1       5.286   5.726  15.280  0.00  0.00    +0.000 C 
ATOM      6  C   UNL     1       6.691   5.411  14.785  0.00  0.00    +0.000 C 
ATOM      7  C   UNL     1       7.305   4.290  15.620  0.00  0.00    +0.000 C 
ATOM      8  C   UNL     1       7.133   4.531  17.126  0.00  0.00    +0.000 C 
ATOM      9  N   UNL     1       5.718   4.795  17.485  0.00  0.00    +0.000 NA
ATOM     10  C   UNL     1       5.567   4.869  18.951  0.00  0.00    +0.000 C 
ENDROOT
BRANCH   1  15
ATOM     11  C   UNL     1       1.958   2.496  19.364  0.00  0.00    +0.000 A 
ATOM     12  C   UNL     1       0.794   2.953  19.959  0.00  0.00    +0.000 A 
ATOM     13  C   UNL     1       0.804   4.188  20.610  0.00  0.00    +0.000 A 
ATOM     14  C   UNL     1       1.943   5.008  20.573  0.00  0.00    +0.000 A 
ATOM     15  C   UNL     1       3.092   4.587  19.894  0.00  0.00    +0.000 A 
ATOM     16  C   UNL     1       3.115   3.271  19.385  0.00  0.00    +0.000 A 
BRANCH  11  17
ATOM     17  O   UNL     1       1.923   1.305  18.702  0.00  0.00    +0.000 OA
ATOM     18  H   UNL     1       2.057   1.480  17.755  0.00  0.00    +0.000 HD
ENDBRANCH  11  17
ENDBRANCH   1  15
TORSDOF 2
ENDMDL
MODEL 8
REMARK VINA RESULT:      -6.7      2.055      2.422
REMARK  Name = 
REMARK  2 active torsions:
REMARK  status: ('A' for Active; 'I' for Inactive)
REMARK    1  A    between atoms: O_1  and  C_2
REMARK    2  A    between atoms: C_6  and  C_7
REMARK                            x       y       z     vdW  Elec       q    Type
REMARK                         _______ _______ _______ _____ _____    ______ ____
ROOT
ATOM      1  C   UNL     1       3.355   5.759  17.446  0.00  0.00    +0.000 C 
ATOM      2  C   UNL     1       3.203   6.640  18.685  0.00  0.00    +0.000 C 
ATOM      3  C   UNL     1       3.304   5.818  19.961  0.00  0.00    +0.000 C 
ATOM      4  C   UNL     1       2.228   4.729  19.982  0.00  0.00    +0.000 C 
ATOM      5  C   UNL     1       2.349   3.895  21.264  0.00  0.00    +0.000 C 
ATOM      6  C   UNL     1       1.212   2.889  21.382  0.00  0.00    +0.000 C 
ATOM      7  C   UNL     1       1.126   2.040  20.116  0.00  0.00    +0.000 C 
ATOM      8  C   UNL     1       1.172   2.895  18.843  0.00  0.00    +0.000 C 
ATOM      9  N   UNL     1       2.341   3.810  18.834  0.00  0.00    +0.000 NA
ATOM     10  C   UNL     1       2.439   4.502  17.534  0.00  0.00    +0.000 C 
ENDROOT
BRANCH   1  15
ATOM     11  C   UNL     1       6.266   4.352  15.478  0.00  0.00    +0.000 A 
ATOM     12  C   UNL     1       7.368   4.700  16.241  0.00  0.00    +0.000 A 
ATOM     13  C   UNL     1       7.202   5.582  17.311  0.00  0.00    +0.000 A 
ATOM     14  C   UNL     1       5.923   6.028  17.679  0.00  0.00    +0.000 A 
ATOM     15  C   UNL     1       4.796   5.604  16.965  0.00  0.00    +0.000 A 
ATOM     16  C   UNL     1       5.003   4.848  15.791  0.00  0.00    +0.000 A 
BRANCH  11  17
ATOM     17  O   UNL     1       6.439   3.463  14.459  0.00  0.00    +0.000 OA
ATOM     18  H   UNL     1       7.393   3.353  14.311  0.00  0.00    +0.000 HD
ENDBRANCH  11  17
ENDBRANCH   1  15
TORSDOF 2
ENDMDL
MODEL 9
REMARK VINA RESULT:      -6.7      1.889      2.092
REMARK  Name = 
REMARK  2 active torsions:
REMARK  status: ('A' for Active; 'I' for Inactive)
REMARK    1  A    between atoms: O_1  and  C_2
REMARK    2  A    between atoms: C_6  and  C_7
REMARK                            x       y       z     vdW  Elec       q    Type
REMARK                         _______ _______ _______ _____ _____    ______ ____
ROOT
ATOM      1  C   UNL     1       3.560   5.418  17.225  0.00  0.00    +0.000 C 
ATOM      2  C   UNL     1       3.764   6.309  18.450  0.00  0.00    +0.000 C 
ATOM      3  C   UNL     1       3.894   5.479  19.718  0.00  0.00    +0.000 C 
ATOM      4  C   UNL     1       2.646   4.616  19.923  0.00  0.00    +0.000 C 
ATOM      5  C   UNL     1       2.794   3.771  21.195  0.00  0.00    +0.000 C 
ATOM      6  C   UNL     1       1.516   3.001  21.503  0.00  0.00    +0.000 C 
ATOM      7  C   UNL     1       1.084   2.188  20.285  0.00  0.00    +0.000 C 
ATOM      8  C   UNL     1       1.103   3.022  18.997  0.00  0.00    +0.000 C 
ATOM      9  N   UNL     1       2.410   3.696  18.795  0.00  0.00    +0.000 NA
ATOM     10  C   UNL     1       2.446   4.361  17.478  0.00  0.00    +0.000 C 
ENDROOT
BRANCH   1  15
ATOM     11  C   UNL     1       7.196   4.411  16.915  0.00  0.00    +0.000 A 
ATOM     12  C   UNL     1       7.501   4.710  15.598  0.00  0.00    +0.000 A 
ATOM     13  C   UNL     1       6.469   5.056  14.724  0.00  0.00    +0.000 A 
ATOM     14  C   UNL     1       5.154   5.204  15.192  0.00  0.00    +0.000 A 
ATOM     15  C   UNL     1       4.858   4.991  16.543  0.00  0.00    +0.000 A 
ATOM     16  C   UNL     1       5.882   4.484  17.372  0.00  0.00    +0.000 A 
BRANCH  11  17
ATOM     17  O   UNL     1       8.218   4.110  17.765  0.00  0.00    +0.000 OA
ATOM     18  H   UNL     1       9.056   4.267  17.299  0.00  0.00    +0.000 HD
ENDBRANCH  11  17
ENDBRANCH   1  15
TORSDOF 2
ENDMDL
