MODEL 1
REMARK VINA RESULT:      -8.5      0.000      0.000
REMARK  Name = 
REMARK  6 active torsions:
REMARK  status: ('A' for Active; 'I' for Inactive)
REMARK    1  A    between atoms: C_1  and  C_2
REMARK    2  A    between atoms: C_7  and  N_8
REMARK    3  A    between atoms: C_9  and  C_11
REMARK    4  A    between atoms: C_19  and  C_20
REMARK    5  A    between atoms: N_21  and  N_22
REMARK    6  A    between atoms: C_32  and  O_33
REMARK                            x       y       z     vdW  Elec       q    Type
REMARK                         _______ _______ _______ _____ _____    ______ ____
ROOT
ATOM      1  C   UNL     1       1.820   7.774  19.534  0.00  0.00    +0.000 A 
ATOM      2  C   UNL     1       1.292   7.802  20.833  0.00  0.00    +0.000 A 
ATOM      3  C   UNL     1       0.608   8.914  21.341  0.00  0.00    +0.000 A 
ATOM      4  C   UNL     1       0.150   8.878  22.667  0.00  0.00    +0.000 A 
ATOM      5  C   UNL     1      -0.546   9.949  23.215  0.00  0.00    +0.000 A 
ATOM      6  C   UNL     1      -0.822  11.057  22.428  0.00  0.00    +0.000 A 
ATOM      7  C   UNL     1      -0.352  11.115  21.110  0.00  0.00    +0.000 A 
ATOM      8  C   UNL     1       0.412  10.063  20.537  0.00  0.00    +0.000 A 
ATOM      9  C   UNL     1       1.008  10.065  19.240  0.00  0.00    +0.000 A 
ATOM     10  C   UNL     1       1.672   8.909  18.737  0.00  0.00    +0.000 A 
ENDROOT
BRANCH   1  12
ATOM     11  N   UNL     1       1.904   5.316  19.258  0.00  0.00    +0.000 N 
ATOM     12  C   UNL     1       2.565   6.529  19.143  0.00  0.00    +0.000 C 
ATOM     13  O   UNL     1       3.700   6.679  18.699  0.00  0.00    +0.000 OA
ATOM     14  H   UNL     1       0.939   5.367  19.570  0.00  0.00    +0.000 HD
BRANCH  11  21
ATOM     15  C   UNL     1       2.331   3.375  21.447  0.00  0.00    +0.000 C 
ATOM     16  C   UNL     1       2.671   3.105  20.005  0.00  0.00    +0.000 A 
ATOM     17  C   UNL     1       3.260   1.862  19.698  0.00  0.00    +0.000 A 
ATOM     18  C   UNL     1       3.566   1.513  18.384  0.00  0.00    +0.000 A 
ATOM     19  C   UNL     1       3.299   2.409  17.360  0.00  0.00    +0.000 A 
ATOM     20  C   UNL     1       2.744   3.655  17.651  0.00  0.00    +0.000 A 
ATOM     21  C   UNL     1       2.430   4.032  18.965  0.00  0.00    +0.000 A 
ENDBRANCH  11  21
ENDBRANCH   1  12
BRANCH   9  22
ATOM     22  C   UNL     1       1.110  11.338  18.466  0.00  0.00    +0.000 C 
ATOM     23  N   UNL     1       2.276  11.894  18.359  0.00  0.00    +0.000 NA
BRANCH  23  24
ATOM     24  N   UNL     1       2.392  13.123  17.816  0.00  0.00    +0.000 N 
ATOM     25  C   UNL     1       2.159  14.255  18.544  0.00  0.00    +0.000 A 
ATOM     26  N   UNL     1       2.163  15.467  18.034  0.00  0.00    +0.000 NA
ATOM     27  C   UNL     1       1.863  16.405  19.015  0.00  0.00    +0.000 A 
ATOM     28  C   UNL     1       1.787  17.802  18.834  0.00  0.00    +0.000 A 
ATOM     29  C   UNL     1       1.462  18.630  19.916  0.00  0.00    +0.000 A 
ATOM     30  C   UNL     1       1.212  18.087  21.172  0.00  0.00    +0.000 A 
ATOM     31  C   UNL     1       1.284  16.708  21.379  0.00  0.00    +0.000 A 
ATOM     32  C   UNL     1       1.617  15.889  20.286  0.00  0.00    +0.000 A 
ATOM     33  S   UNL     1       1.795  14.188  20.237  0.00  0.00    +0.000 S 
ATOM     34  H   UNL     1       2.457  13.257  16.807  0.00  0.00    +0.000 HD
ENDBRANCH  23  24
ENDBRANCH   9  22
BRANCH  10  35
ATOM     35  O   UNL     1       2.214   8.871  17.470  0.00  0.00    +0.000 OA
ATOM     36  H   UNL     1       2.697   9.716  17.316  0.00  0.00    +0.000 HD
ENDBRANCH  10  35
TORSDOF 5
ENDMDL
MODEL 2
REMARK VINA RESULT:      -8.5      2.035      2.296
REMARK  Name = 
REMARK  6 active torsions:
REMARK  status: ('A' for Active; 'I' for Inactive)
REMARK    1  A    between atoms: C_1  and  C_2
REMARK    2  A    between atoms: C_7  and  N_8
REMARK    3  A    between atoms: C_9  and  C_11
REMARK    4  A    between atoms: C_19  and  C_20
REMARK    5  A    between atoms: N_21  and  N_22
REMARK    6  A    between atoms: C_32  and  O_33
REMARK                            x       y       z     vdW  Elec       q    Type
REMARK                         _______ _______ _______ _____ _____    ______ ____
ROOT
ATOM      1  C   UNL     1       2.225   7.799  18.961  0.00  0.00    +0.000 A 
ATOM      2  C   UNL     1       1.794   7.619  20.282  0.00  0.00    +0.000 A 
ATOM      3  C   UNL     1       1.064   8.595  20.973  0.00  0.00    +0.000 A 
ATOM      4  C   UNL     1       0.709   8.355  22.309  0.00  0.00    +0.000 A 
ATOM      5  C   UNL     1      -0.027   9.285  23.035  0.00  0.00    +0.000 A 
ATOM      6  C   UNL     1      -0.446  10.453  22.417  0.00  0.00    +0.000 A 
ATOM      7  C   UNL     1      -0.081  10.715  21.090  0.00  0.00    +0.000 A 
ATOM      8  C   UNL     1       0.719   9.813  20.339  0.00  0.00    +0.000 A 
ATOM      9  C   UNL     1       1.216  10.028  19.018  0.00  0.00    +0.000 A 
ATOM     10  C   UNL     1       1.930   9.006  18.329  0.00  0.00    +0.000 A 
ENDROOT
BRANCH   1  12
ATOM     11  N   UNL     1       4.226   7.012  17.734  0.00  0.00    +0.000 N 
ATOM     12  C   UNL     1       3.036   6.682  18.365  0.00  0.00    +0.000 C 
ATOM     13  O   UNL     1       2.610   5.542  18.523  0.00  0.00    +0.000 OA
ATOM     14  H   UNL     1       4.478   7.996  17.754  0.00  0.00    +0.000 HD
BRANCH  11  21
ATOM     15  C   UNL     1       6.138   5.442  19.353  0.00  0.00    +0.000 C 
ATOM     16  C   UNL     1       6.065   5.387  17.850  0.00  0.00    +0.000 A 
ATOM     17  C   UNL     1       6.992   4.561  17.184  0.00  0.00    +0.000 A 
ATOM     18  C   UNL     1       6.966   4.418  15.798  0.00  0.00    +0.000 A 
ATOM     19  C   UNL     1       6.020   5.111  15.058  0.00  0.00    +0.000 A 
ATOM     20  C   UNL     1       5.115   5.956  15.699  0.00  0.00    +0.000 A 
ATOM     21  C   UNL     1       5.122   6.120  17.092  0.00  0.00    +0.000 A 
ENDBRANCH  11  21
ENDBRANCH   1  12
BRANCH   9  22
ATOM     22  C   UNL     1       1.159  11.392  18.411  0.00  0.00    +0.000 C 
ATOM     23  N   UNL     1       2.279  12.006  18.187  0.00  0.00    +0.000 NA
BRANCH  23  24
ATOM     24  N   UNL     1       2.275  13.296  17.798  0.00  0.00    +0.000 N 
ATOM     25  C   UNL     1       2.287  14.320  18.702  0.00  0.00    +0.000 A 
ATOM     26  N   UNL     1       2.186  15.589  18.374  0.00  0.00    +0.000 NA
ATOM     27  C   UNL     1       2.197  16.386  19.512  0.00  0.00    +0.000 A 
ATOM     28  C   UNL     1       2.114  17.794  19.543  0.00  0.00    +0.000 A 
ATOM     29  C   UNL     1       2.126  18.468  20.770  0.00  0.00    +0.000 A 
ATOM     30  C   UNL     1       2.218  17.761  21.964  0.00  0.00    +0.000 A 
ATOM     31  C   UNL     1       2.305  16.367  21.962  0.00  0.00    +0.000 A 
ATOM     32  C   UNL     1       2.297  15.704  20.723  0.00  0.00    +0.000 A 
ATOM     33  S   UNL     1       2.405  14.026  20.406  0.00  0.00    +0.000 S 
ATOM     34  H   UNL     1       2.062  13.564  16.837  0.00  0.00    +0.000 HD
ENDBRANCH  23  24
ENDBRANCH   9  22
BRANCH  10  35
ATOM     35  O   UNL     1       2.378   9.173  17.035  0.00  0.00    +0.000 OA
ATOM     36  H   UNL     1       1.634   8.965  16.423  0.00  0.00    +0.000 HD
ENDBRANCH  10  35
TORSDOF 5
ENDMDL
MODEL 3
REMARK VINA RESULT:      -8.3      3.819      9.954
REMARK  Name = 
REMARK  6 active torsions:
REMARK  status: ('A' for Active; 'I' for Inactive)
REMARK    1  A    between atoms: C_1  and  C_2
REMARK    2  A    between atoms: C_7  and  N_8
REMARK    3  A    between atoms: C_9  and  C_11
REMARK    4  A    between atoms: C_19  and  C_20
REMARK    5  A    between atoms: N_21  and  N_22
REMARK    6  A    between atoms: C_32  and  O_33
REMARK                            x       y       z     vdW  Elec       q    Type
REMARK                         _______ _______ _______ _____ _____    ______ ____
ROOT
ATOM      1  C   UNL     1      -1.273  11.742  20.672  0.00  0.00    +0.000 A 
ATOM      2  C   UNL     1      -2.483  11.953  19.997  0.00  0.00    +0.000 A 
ATOM      3  C   UNL     1      -2.731  11.433  18.721  0.00  0.00    +0.000 A 
ATOM      4  C   UNL     1      -3.952  11.729  18.095  0.00  0.00    +0.000 A 
ATOM      5  C   UNL     1      -4.254  11.226  16.834  0.00  0.00    +0.000 A 
ATOM      6  C   UNL     1      -3.347  10.391  16.199  0.00  0.00    +0.000 A 
ATOM      7  C   UNL     1      -2.116  10.105  16.803  0.00  0.00    +0.000 A 
ATOM      8  C   UNL     1      -1.752  10.648  18.065  0.00  0.00    +0.000 A 
ATOM      9  C   UNL     1      -0.493  10.490  18.719  0.00  0.00    +0.000 A 
ATOM     10  C   UNL     1      -0.279  11.004  20.029  0.00  0.00    +0.000 A 
ENDROOT
BRANCH   1  12
ATOM     11  N   UNL     1      -1.801  13.597  22.224  0.00  0.00    +0.000 N 
ATOM     12  C   UNL     1      -1.135  12.398  22.017  0.00  0.00    +0.000 C 
ATOM     13  O   UNL     1      -0.478  11.798  22.863  0.00  0.00    +0.000 OA
ATOM     14  H   UNL     1      -2.368  13.926  21.447  0.00  0.00    +0.000 HD
BRANCH  11  21
ATOM     15  C   UNL     1      -3.862  13.166  24.300  0.00  0.00    +0.000 C 
ATOM     16  C   UNL     1      -2.783  14.213  24.389  0.00  0.00    +0.000 A 
ATOM     17  C   UNL     1      -2.788  15.056  25.519  0.00  0.00    +0.000 A 
ATOM     18  C   UNL     1      -1.801  16.022  25.703  0.00  0.00    +0.000 A 
ATOM     19  C   UNL     1      -0.803  16.168  24.751  0.00  0.00    +0.000 A 
ATOM     20  C   UNL     1      -0.801  15.363  23.613  0.00  0.00    +0.000 A 
ATOM     21  C   UNL     1      -1.785  14.384  23.403  0.00  0.00    +0.000 A 
ENDBRANCH  11  21
ENDBRANCH   1  12
BRANCH   9  22
ATOM     22  C   UNL     1       0.677   9.948  17.965  0.00  0.00    +0.000 C 
ATOM     23  N   UNL     1       1.555   9.253  18.621  0.00  0.00    +0.000 NA
BRANCH  23  24
ATOM     24  N   UNL     1       2.707   8.886  18.026  0.00  0.00    +0.000 N 
ATOM     25  C   UNL     1       3.026   7.573  17.828  0.00  0.00    +0.000 A 
ATOM     26  N   UNL     1       4.177   7.164  17.342  0.00  0.00    +0.000 NA
ATOM     27  C   UNL     1       4.215   5.776  17.290  0.00  0.00    +0.000 A 
ATOM     28  C   UNL     1       5.287   4.990  16.817  0.00  0.00    +0.000 A 
ATOM     29  C   UNL     1       5.190   3.593  16.833  0.00  0.00    +0.000 A 
ATOM     30  C   UNL     1       4.043   2.969  17.312  0.00  0.00    +0.000 A 
ATOM     31  C   UNL     1       2.965   3.723  17.782  0.00  0.00    +0.000 A 
ATOM     32  C   UNL     1       3.074   5.125  17.755  0.00  0.00    +0.000 A 
ATOM     33  S   UNL     1       1.928   6.297  18.243  0.00  0.00    +0.000 S 
ATOM     34  H   UNL     1       3.469   9.548  17.882  0.00  0.00    +0.000 HD
ENDBRANCH  23  24
ENDBRANCH   9  22
BRANCH  10  35
ATOM     35  O   UNL     1       0.911  10.822  20.700  0.00  0.00    +0.000 OA
ATOM     36  H   UNL     1       0.810  11.185  21.611  0.00  0.00    +0.000 HD
ENDBRANCH  10  35
TORSDOF 5
ENDMDL
MODEL 4
REMARK VINA RESULT:      -8.3      2.053      2.178
REMARK  Name = 
REMARK  6 active torsions:
REMARK  status: ('A' for Active; 'I' for Inactive)
REMARK    1  A    between atoms: C_1  and  C_2
REMARK    2  A    between atoms: C_7  and  N_8
REMARK    3  A    between atoms: C_9  and  C_11
REMARK    4  A    between atoms: C_19  and  C_20
REMARK    5  A    between atoms: N_21  and  N_22
REMARK    6  A    between atoms: C_32  and  O_33
REMARK                            x       y       z     vdW  Elec       q    Type
REMARK                         _______ _______ _______ _____ _____    ______ ____
ROOT
ATOM      1  C   UNL     1       1.441   8.856  19.554  0.00  0.00    +0.000 A 
ATOM      2  C   UNL     1       0.748   8.756  20.768  0.00  0.00    +0.000 A 
ATOM      3  C   UNL     1       0.126   9.856  21.370  0.00  0.00    +0.000 A 
ATOM      4  C   UNL     1      -0.510   9.681  22.609  0.00  0.00    +0.000 A 
ATOM      5  C   UNL     1      -1.154  10.738  23.242  0.00  0.00    +0.000 A 
ATOM      6  C   UNL     1      -1.199  11.978  22.623  0.00  0.00    +0.000 A 
ATOM      7  C   UNL     1      -0.551  12.173  21.397  0.00  0.00    +0.000 A 
ATOM      8  C   UNL     1       0.166  11.129  20.750  0.00  0.00    +0.000 A 
ATOM      9  C   UNL     1       0.930  11.250  19.551  0.00  0.00    +0.000 A 
ATOM     10  C   UNL     1       1.527  10.108  18.945  0.00  0.00    +0.000 A 
ENDROOT
BRANCH   1  12
ATOM     11  N   UNL     1       2.476   6.650  19.989  0.00  0.00    +0.000 N 
ATOM     12  C   UNL     1       2.094   7.599  19.052  0.00  0.00    +0.000 C 
ATOM     13  O   UNL     1       2.200   7.476  17.836  0.00  0.00    +0.000 OA
ATOM     14  H   UNL     1       2.250   6.867  20.955  0.00  0.00    +0.000 HD
BRANCH  11  21
ATOM     15  C   UNL     1       1.000   4.117  20.370  0.00  0.00    +0.000 C 
ATOM     16  C   UNL     1       2.441   4.194  19.940  0.00  0.00    +0.000 A 
ATOM     17  C   UNL     1       3.127   2.978  19.744  0.00  0.00    +0.000 A 
ATOM     18  C   UNL     1       4.449   2.958  19.304  0.00  0.00    +0.000 A 
ATOM     19  C   UNL     1       5.107   4.155  19.066  0.00  0.00    +0.000 A 
ATOM     20  C   UNL     1       4.453   5.367  19.284  0.00  0.00    +0.000 A 
ATOM     21  C   UNL     1       3.123   5.415  19.730  0.00  0.00    +0.000 A 
ENDBRANCH  11  21
ENDBRANCH   1  12
BRANCH   9  22
ATOM     22  C   UNL     1       1.272  12.602  19.015  0.00  0.00    +0.000 C 
ATOM     23  N   UNL     1       2.526  12.914  18.908  0.00  0.00    +0.000 NA
BRANCH  23  24
ATOM     24  N   UNL     1       2.883  14.174  18.589  0.00  0.00    +0.000 N 
ATOM     25  C   UNL     1       3.493  14.998  19.492  0.00  0.00    +0.000 A 
ATOM     26  N   UNL     1       3.771  16.262  19.259  0.00  0.00    +0.000 NA
ATOM     27  C   UNL     1       4.360  16.842  20.376  0.00  0.00    +0.000 A 
ATOM     28  C   UNL     1       4.797  18.178  20.487  0.00  0.00    +0.000 A 
ATOM     29  C   UNL     1       5.367  18.631  21.684  0.00  0.00    +0.000 A 
ATOM     30  C   UNL     1       5.506  17.772  22.770  0.00  0.00    +0.000 A 
ATOM     31  C   UNL     1       5.084  16.443  22.686  0.00  0.00    +0.000 A 
ATOM     32  C   UNL     1       4.520  16.001  21.477  0.00  0.00    +0.000 A 
ATOM     33  S   UNL     1       3.935  14.445  21.074  0.00  0.00    +0.000 S 
ATOM     34  H   UNL     1       2.539  14.630  17.744  0.00  0.00    +0.000 HD
ENDBRANCH  23  24
ENDBRANCH   9  22
BRANCH  10  35
ATOM     35  O   UNL     1       2.228  10.191  17.761  0.00  0.00    +0.000 OA
ATOM     36  H   UNL     1       3.189  10.252  17.975  0.00  0.00    +0.000 HD
ENDBRANCH  10  35
TORSDOF 5
ENDMDL
MODEL 5
REMARK VINA RESULT:      -8.2      2.039      2.445
REMARK  Name = 
REMARK  6 active torsions:
REMARK  status: ('A' for Active; 'I' for Inactive)
REMARK    1  A    between atoms: C_1  and  C_2
REMARK    2  A    between atoms: C_7  and  N_8
REMARK    3  A    between atoms: C_9  and  C_11
REMARK    4  A    between atoms: C_19  and  C_20
REMARK    5  A    between atoms: N_21  and  N_22
REMARK    6  A    between atoms: C_32  and  O_33
REMARK                            x       y       z     vdW  Elec       q    Type
REMARK                         _______ _______ _______ _____ _____    ______ ____
ROOT
ATOM      1  C   UNL     1       1.707   9.050  18.991  0.00  0.00    +0.000 A 
ATOM      2  C   UNL     1       1.205   8.595  20.219  0.00  0.00    +0.000 A 
ATOM      3  C   UNL     1       0.515   9.432  21.104  0.00  0.00    +0.000 A 
ATOM      4  C   UNL     1       0.084   8.909  22.333  0.00  0.00    +0.000 A 
ATOM      5  C   UNL     1      -0.617   9.694  23.242  0.00  0.00    +0.000 A 
ATOM      6  C   UNL     1      -0.925  11.006  22.914  0.00  0.00    +0.000 A 
ATOM      7  C   UNL     1      -0.483  11.547  21.700  0.00  0.00    +0.000 A 
ATOM      8  C   UNL     1       0.285  10.790  20.774  0.00  0.00    +0.000 A 
ATOM      9  C   UNL     1       0.855  11.274  19.558  0.00  0.00    +0.000 A 
ATOM     10  C   UNL     1       1.526  10.394  18.662  0.00  0.00    +0.000 A 
ENDROOT
BRANCH   1  12
ATOM     11  N   UNL     1       2.832   6.857  18.772  0.00  0.00    +0.000 N 
ATOM     12  C   UNL     1       2.463   8.048  18.166  0.00  0.00    +0.000 C 
ATOM     13  O   UNL     1       2.660   8.334  16.989  0.00  0.00    +0.000 OA
ATOM     14  H   UNL     1       2.527   6.738  19.734  0.00  0.00    +0.000 HD
BRANCH  11  21
ATOM     15  C   UNL     1       1.398   4.482  17.749  0.00  0.00    +0.000 C 
ATOM     16  C   UNL     1       2.895   4.638  17.719  0.00  0.00    +0.000 A 
ATOM     17  C   UNL     1       3.650   3.567  17.201  0.00  0.00    +0.000 A 
ATOM     18  C   UNL     1       5.038   3.645  17.097  0.00  0.00    +0.000 A 
ATOM     19  C   UNL     1       5.690   4.793  17.521  0.00  0.00    +0.000 A 
ATOM     20  C   UNL     1       4.961   5.850  18.063  0.00  0.00    +0.000 A 
ATOM     21  C   UNL     1       3.564   5.795  18.182  0.00  0.00    +0.000 A 
ENDBRANCH  11  21
ENDBRANCH   1  12
BRANCH   9  22
ATOM     22  C   UNL     1       0.921  12.743  19.297  0.00  0.00    +0.000 C 
ATOM     23  N   UNL     1       2.057  13.245  18.922  0.00  0.00    +0.000 NA
BRANCH  23  24
ATOM     24  N   UNL     1       2.210  14.581  18.835  0.00  0.00    +0.000 N 
ATOM     25  C   UNL     1       2.929  15.283  19.760  0.00  0.00    +0.000 A 
ATOM     26  N   UNL     1       3.024  16.594  19.772  0.00  0.00    +0.000 NA
ATOM     27  C   UNL     1       3.795  17.014  20.849  0.00  0.00    +0.000 A 
ATOM     28  C   UNL     1       4.117  18.349  21.172  0.00  0.00    +0.000 A 
ATOM     29  C   UNL     1       4.899  18.626  22.300  0.00  0.00    +0.000 A 
ATOM     30  C   UNL     1       5.364  17.595  23.109  0.00  0.00    +0.000 A 
ATOM     31  C   UNL     1       5.064  16.264  22.810  0.00  0.00    +0.000 A 
ATOM     32  C   UNL     1       4.282  16.000  21.672  0.00  0.00    +0.000 A 
ATOM     33  S   UNL     1       3.772  14.490  21.050  0.00  0.00    +0.000 S 
ATOM     34  H   UNL     1       1.639  15.145  18.204  0.00  0.00    +0.000 HD
ENDBRANCH  23  24
ENDBRANCH   9  22
BRANCH  10  35
ATOM     35  O   UNL     1       2.042  10.828  17.460  0.00  0.00    +0.000 OA
ATOM     36  H   UNL     1       1.658  11.715  17.262  0.00  0.00    +0.000 HD
ENDBRANCH  10  35
TORSDOF 5
ENDMDL
MODEL 6
REMARK VINA RESULT:      -8.2      4.724      8.250
REMARK  Name = 
REMARK  6 active torsions:
REMARK  status: ('A' for Active; 'I' for Inactive)
REMARK    1  A    between atoms: C_1  and  C_2
REMARK    2  A    between atoms: C_7  and  N_8
REMARK    3  A    between atoms: C_9  and  C_11
REMARK    4  A    between atoms: C_19  and  C_20
REMARK    5  A    between atoms: N_21  and  N_22
REMARK    6  A    between atoms: C_32  and  O_33
REMARK                            x       y       z     vdW  Elec       q    Type
REMARK                         _______ _______ _______ _____ _____    ______ ____
ROOT
ATOM      1  C   UNL     1       1.578  14.656  19.857  0.00  0.00    +0.000 A 
ATOM      2  C   UNL     1       0.487  15.367  19.337  0.00  0.00    +0.000 A 
ATOM      3  C   UNL     1       0.644  16.427  18.435  0.00  0.00    +0.000 A 
ATOM      4  C   UNL     1      -0.498  17.116  17.996  0.00  0.00    +0.000 A 
ATOM      5  C   UNL     1      -0.399  18.166  17.090  0.00  0.00    +0.000 A 
ATOM      6  C   UNL     1       0.845  18.515  16.585  0.00  0.00    +0.000 A 
ATOM      7  C   UNL     1       1.994  17.850  17.030  0.00  0.00    +0.000 A 
ATOM      8  C   UNL     1       1.935  16.811  17.999  0.00  0.00    +0.000 A 
ATOM      9  C   UNL     1       3.051  16.136  18.579  0.00  0.00    +0.000 A 
ATOM     10  C   UNL     1       2.862  15.043  19.472  0.00  0.00    +0.000 A 
ENDROOT
BRANCH   1  12
ATOM     11  N   UNL     1       0.608  12.441  20.382  0.00  0.00    +0.000 N 
ATOM     12  C   UNL     1       1.258  13.574  20.849  0.00  0.00    +0.000 C 
ATOM     13  O   UNL     1       1.641  13.746  22.002  0.00  0.00    +0.000 OA
ATOM     14  H   UNL     1       0.426  12.416  19.383  0.00  0.00    +0.000 HD
BRANCH  11  21
ATOM     15  C   UNL     1       1.207   9.709  19.422  0.00  0.00    +0.000 C 
ATOM     16  C   UNL     1       0.448  10.008  20.687  0.00  0.00    +0.000 A 
ATOM     17  C   UNL     1      -0.032   8.912  21.432  0.00  0.00    +0.000 A 
ATOM     18  C   UNL     1      -0.706   9.098  22.638  0.00  0.00    +0.000 A 
ATOM     19  C   UNL     1      -0.922  10.384  23.108  0.00  0.00    +0.000 A 
ATOM     20  C   UNL     1      -0.480  11.480  22.368  0.00  0.00    +0.000 A 
ATOM     21  C   UNL     1       0.198  11.321  21.150  0.00  0.00    +0.000 A 
ENDBRANCH  11  21
ENDBRANCH   1  12
BRANCH   9  22
ATOM     22  C   UNL     1       4.429  16.687  18.407  0.00  0.00    +0.000 C 
ATOM     23  N   UNL     1       5.415  15.847  18.340  0.00  0.00    +0.000 NA
BRANCH  23  24
ATOM     24  N   UNL     1       6.686  16.297  18.353  0.00  0.00    +0.000 N 
ATOM     25  C   UNL     1       7.748  15.454  18.185  0.00  0.00    +0.000 A 
ATOM     26  N   UNL     1       9.004  15.830  18.287  0.00  0.00    +0.000 NA
ATOM     27  C   UNL     1       9.851  14.744  18.096  0.00  0.00    +0.000 A 
ATOM     28  C   UNL     1      11.260  14.773  18.126  0.00  0.00    +0.000 A 
ATOM     29  C   UNL     1      11.989  13.594  17.926  0.00  0.00    +0.000 A 
ATOM     30  C   UNL     1      11.333  12.388  17.698  0.00  0.00    +0.000 A 
ATOM     31  C   UNL     1       9.938  12.332  17.660  0.00  0.00    +0.000 A 
ATOM     32  C   UNL     1       9.220  13.524  17.857  0.00  0.00    +0.000 A 
ATOM     33  S   UNL     1       7.527  13.768  17.849  0.00  0.00    +0.000 S 
ATOM     34  H   UNL     1       6.919  17.233  18.684  0.00  0.00    +0.000 HD
ENDBRANCH  23  24
ENDBRANCH   9  22
BRANCH  10  35
ATOM     35  O   UNL     1       3.923  14.345  20.007  0.00  0.00    +0.000 OA
ATOM     36  H   UNL     1       3.926  14.489  20.982  0.00  0.00    +0.000 HD
ENDBRANCH  10  35
TORSDOF 5
ENDMDL
MODEL 7
REMARK VINA RESULT:      -8.2      4.042      9.816
REMARK  Name = 
REMARK  6 active torsions:
REMARK  status: ('A' for Active; 'I' for Inactive)
REMARK    1  A    between atoms: C_1  and  C_2
REMARK    2  A    between atoms: C_7  and  N_8
REMARK    3  A    between atoms: C_9  and  C_11
REMARK    4  A    between atoms: C_19  and  C_20
REMARK    5  A    between atoms: N_21  and  N_22
REMARK    6  A    between atoms: C_32  and  O_33
REMARK                            x       y       z     vdW  Elec       q    Type
REMARK                         _______ _______ _______ _____ _____    ______ ____
ROOT
ATOM      1  C   UNL     1       1.848   7.288  20.047  0.00  0.00    +0.000 A 
ATOM      2  C   UNL     1       1.519   6.110  20.732  0.00  0.00    +0.000 A 
ATOM      3  C   UNL     1       2.231   4.917  20.557  0.00  0.00    +0.000 A 
ATOM      4  C   UNL     1       1.809   3.770  21.246  0.00  0.00    +0.000 A 
ATOM      5  C   UNL     1       2.490   2.564  21.119  0.00  0.00    +0.000 A 
ATOM      6  C   UNL     1       3.625   2.503  20.325  0.00  0.00    +0.000 A 
ATOM      7  C   UNL     1       4.046   3.635  19.615  0.00  0.00    +0.000 A 
ATOM      8  C   UNL     1       3.340   4.867  19.677  0.00  0.00    +0.000 A 
ATOM      9  C   UNL     1       3.634   6.045  18.927  0.00  0.00    +0.000 A 
ATOM     10  C   UNL     1       2.912   7.253  19.146  0.00  0.00    +0.000 A 
ENDROOT
BRANCH   1  12
ATOM     11  N   UNL     1       0.897   9.456  19.323  0.00  0.00    +0.000 N 
ATOM     12  C   UNL     1       0.966   8.478  20.303  0.00  0.00    +0.000 C 
ATOM     13  O   UNL     1       0.324   8.478  21.349  0.00  0.00    +0.000 OA
ATOM     14  H   UNL     1       1.432   9.272  18.478  0.00  0.00    +0.000 HD
BRANCH  11  21
ATOM     15  C   UNL     1      -1.409   9.823  17.509  0.00  0.00    +0.000 C 
ATOM     16  C   UNL     1      -0.936  10.863  18.491  0.00  0.00    +0.000 A 
ATOM     17  C   UNL     1      -1.621  12.095  18.513  0.00  0.00    +0.000 A 
ATOM     18  C   UNL     1      -1.277  13.096  19.419  0.00  0.00    +0.000 A 
ATOM     19  C   UNL     1      -0.234  12.883  20.308  0.00  0.00    +0.000 A 
ATOM     20  C   UNL     1       0.472  11.682  20.279  0.00  0.00    +0.000 A 
ATOM     21  C   UNL     1       0.148  10.659  19.374  0.00  0.00    +0.000 A 
ENDBRANCH  11  21
ENDBRANCH   1  12
BRANCH   9  22
ATOM     22  C   UNL     1       4.576   5.978  17.770  0.00  0.00    +0.000 C 
ATOM     23  N   UNL     1       5.846   6.089  18.011  0.00  0.00    +0.000 NA
BRANCH  23  24
ATOM     24  N   UNL     1       6.720   6.201  16.991  0.00  0.00    +0.000 N 
ATOM     25  C   UNL     1       6.538   5.534  15.813  0.00  0.00    +0.000 A 
ATOM     26  N   UNL     1       7.410   5.536  14.828  0.00  0.00    +0.000 NA
ATOM     27  C   UNL     1       6.958   4.744  13.780  0.00  0.00    +0.000 A 
ATOM     28  C   UNL     1       7.626   4.518  12.559  0.00  0.00    +0.000 A 
ATOM     29  C   UNL     1       7.054   3.683  11.591  0.00  0.00    +0.000 A 
ATOM     30  C   UNL     1       5.827   3.070  11.824  0.00  0.00    +0.000 A 
ATOM     31  C   UNL     1       5.141   3.279  13.022  0.00  0.00    +0.000 A 
ATOM     32  C   UNL     1       5.726   4.124  13.982  0.00  0.00    +0.000 A 
ATOM     33  S   UNL     1       5.123   4.577  15.518  0.00  0.00    +0.000 S 
ATOM     34  H   UNL     1       7.642   6.618  17.120  0.00  0.00    +0.000 HD
ENDBRANCH  23  24
ENDBRANCH   9  22
BRANCH  10  35
ATOM     35  O   UNL     1       3.210   8.416  18.469  0.00  0.00    +0.000 OA
ATOM     36  H   UNL     1       2.506   9.077  18.666  0.00  0.00    +0.000 HD
ENDBRANCH  10  35
TORSDOF 5
ENDMDL
MODEL 8
REMARK VINA RESULT:      -8.2      0.579      1.142
REMARK  Name = 
REMARK  6 active torsions:
REMARK  status: ('A' for Active; 'I' for Inactive)
REMARK    1  A    between atoms: C_1  and  C_2
REMARK    2  A    between atoms: C_7  and  N_8
REMARK    3  A    between atoms: C_9  and  C_11
REMARK    4  A    between atoms: C_19  and  C_20
REMARK    5  A    between atoms: N_21  and  N_22
REMARK    6  A    between atoms: C_32  and  O_33
REMARK                            x       y       z     vdW  Elec       q    Type
REMARK                         _______ _______ _______ _____ _____    ______ ____
ROOT
ATOM      1  C   UNL     1       1.793   7.829  19.509  0.00  0.00    +0.000 A 
ATOM      2  C   UNL     1       1.279   7.804  20.813  0.00  0.00    +0.000 A 
ATOM      3  C   UNL     1       0.574   8.882  21.363  0.00  0.00    +0.000 A 
ATOM      4  C   UNL     1       0.132   8.794  22.692  0.00  0.00    +0.000 A 
ATOM      5  C   UNL     1      -0.585   9.830  23.280  0.00  0.00    +0.000 A 
ATOM      6  C   UNL     1      -0.898  10.954  22.531  0.00  0.00    +0.000 A 
ATOM      7  C   UNL     1      -0.446  11.064  21.209  0.00  0.00    +0.000 A 
ATOM      8  C   UNL     1       0.338  10.049  20.596  0.00  0.00    +0.000 A 
ATOM      9  C   UNL     1       0.919  10.106  19.293  0.00  0.00    +0.000 A 
ATOM     10  C   UNL     1       1.606   8.984  18.748  0.00  0.00    +0.000 A 
ENDROOT
BRANCH   1  12
ATOM     11  N   UNL     1       2.149   5.380  19.541  0.00  0.00    +0.000 N 
ATOM     12  C   UNL     1       2.566   6.617  19.072  0.00  0.00    +0.000 C 
ATOM     13  O   UNL     1       3.489   6.802  18.284  0.00  0.00    +0.000 OA
ATOM     14  H   UNL     1       1.319   5.387  20.126  0.00  0.00    +0.000 HD
BRANCH  11  21
ATOM     15  C   UNL     1       1.227   3.789  17.225  0.00  0.00    +0.000 C 
ATOM     16  C   UNL     1       2.295   3.337  18.186  0.00  0.00    +0.000 A 
ATOM     17  C   UNL     1       2.857   2.061  17.978  0.00  0.00    +0.000 A 
ATOM     18  C   UNL     1       3.881   1.581  18.794  0.00  0.00    +0.000 A 
ATOM     19  C   UNL     1       4.348   2.368  19.836  0.00  0.00    +0.000 A 
ATOM     20  C   UNL     1       3.782   3.620  20.073  0.00  0.00    +0.000 A 
ATOM     21  C   UNL     1       2.748   4.124  19.269  0.00  0.00    +0.000 A 
ENDBRANCH  11  21
ENDBRANCH   1  12
BRANCH   9  22
ATOM     22  C   UNL     1       0.978  11.404  18.557  0.00  0.00    +0.000 C 
ATOM     23  N   UNL     1       2.142  11.938  18.356  0.00  0.00    +0.000 NA
BRANCH  23  24
ATOM     24  N   UNL     1       2.236  13.182  17.847  0.00  0.00    +0.000 N 
ATOM     25  C   UNL     1       2.177  14.291  18.644  0.00  0.00    +0.000 A 
ATOM     26  N   UNL     1       2.166  15.523  18.184  0.00  0.00    +0.000 NA
ATOM     27  C   UNL     1       2.069  16.429  19.233  0.00  0.00    +0.000 A 
ATOM     28  C   UNL     1       2.039  17.835  19.118  0.00  0.00    +0.000 A 
ATOM     29  C   UNL     1       1.927  18.629  20.266  0.00  0.00    +0.000 A 
ATOM     30  C   UNL     1       1.846  18.043  21.525  0.00  0.00    +0.000 A 
ATOM     31  C   UNL     1       1.878  16.654  21.668  0.00  0.00    +0.000 A 
ATOM     32  C   UNL     1       1.995  15.870  20.507  0.00  0.00    +0.000 A 
ATOM     33  S   UNL     1       2.075  14.166  20.369  0.00  0.00    +0.000 S 
ATOM     34  H   UNL     1       2.152  13.358  16.846  0.00  0.00    +0.000 HD
ENDBRANCH  23  24
ENDBRANCH   9  22
BRANCH  10  35
ATOM     35  O   UNL     1       2.133   8.998  17.475  0.00  0.00    +0.000 OA
ATOM     36  H   UNL     1       1.881   9.850  17.047  0.00  0.00    +0.000 HD
ENDBRANCH  10  35
TORSDOF 5
ENDMDL
MODEL 9
REMARK VINA RESULT:      -8.1      3.322      9.758
REMARK  Name = 
REMARK  6 active torsions:
REMARK  status: ('A' for Active; 'I' for Inactive)
REMARK    1  A    between atoms: C_1  and  C_2
REMARK    2  A    between atoms: C_7  and  N_8
REMARK    3  A    between atoms: C_9  and  C_11
REMARK    4  A    between atoms: C_19  and  C_20
REMARK    5  A    between atoms: N_21  and  N_22
REMARK    6  A    between atoms: C_32  and  O_33
REMARK                            x       y       z     vdW  Elec       q    Type
REMARK                         _______ _______ _______ _____ _____    ______ ____
ROOT
ATOM      1  C   UNL     1      -0.351  12.006  20.726  0.00  0.00    +0.000 A 
ATOM      2  C   UNL     1       0.403  13.185  20.814  0.00  0.00    +0.000 A 
ATOM      3  C   UNL     1       1.467  13.461  19.946  0.00  0.00    +0.000 A 
ATOM      4  C   UNL     1       2.200  14.644  20.130  0.00  0.00    +0.000 A 
ATOM      5  C   UNL     1       3.256  14.972  19.288  0.00  0.00    +0.000 A 
ATOM      6  C   UNL     1       3.568  14.135  18.227  0.00  0.00    +0.000 A 
ATOM      7  C   UNL     1       2.858  12.941  18.045  0.00  0.00    +0.000 A 
ATOM      8  C   UNL     1       1.811  12.547  18.921  0.00  0.00    +0.000 A 
ATOM      9  C   UNL     1       1.091  11.315  18.873  0.00  0.00    +0.000 A 
ATOM     10  C   UNL     1      -0.005  11.073  19.748  0.00  0.00    +0.000 A 
ENDROOT
BRANCH   1  12
ATOM     11  N   UNL     1      -2.570  12.614  21.638  0.00  0.00    +0.000 N 
ATOM     12  C   UNL     1      -1.434  11.828  21.753  0.00  0.00    +0.000 C 
ATOM     13  O   UNL     1      -1.257  10.956  22.599  0.00  0.00    +0.000 OA
ATOM     14  H   UNL     1      -2.597  13.237  20.836  0.00  0.00    +0.000 HD
BRANCH  11  21
ATOM     15  C   UNL     1      -5.289  12.938  20.522  0.00  0.00    +0.000 C 
ATOM     16  C   UNL     1      -4.993  12.806  21.993  0.00  0.00    +0.000 A 
ATOM     17  C   UNL     1      -6.083  12.878  22.884  0.00  0.00    +0.000 A 
ATOM     18  C   UNL     1      -5.905  12.722  24.257  0.00  0.00    +0.000 A 
ATOM     19  C   UNL     1      -4.631  12.505  24.759  0.00  0.00    +0.000 A 
ATOM     20  C   UNL     1      -3.538  12.462  23.894  0.00  0.00    +0.000 A 
ATOM     21  C   UNL     1      -3.690  12.619  22.508  0.00  0.00    +0.000 A 
ENDBRANCH  11  21
ENDBRANCH   1  12
BRANCH   9  22
ATOM     22  C   UNL     1       1.595  10.188  18.032  0.00  0.00    +0.000 C 
ATOM     23  N   UNL     1       1.999   9.113  18.635  0.00  0.00    +0.000 NA
BRANCH  23  24
ATOM     24  N   UNL     1       2.614   8.138  17.936  0.00  0.00    +0.000 N 
ATOM     25  C   UNL     1       2.750   6.873  18.435  0.00  0.00    +0.000 A 
ATOM     26  N   UNL     1       3.425   5.918  17.834  0.00  0.00    +0.000 NA
ATOM     27  C   UNL     1       3.409   4.758  18.600  0.00  0.00    +0.000 A 
ATOM     28  C   UNL     1       4.021   3.532  18.266  0.00  0.00    +0.000 A 
ATOM     29  C   UNL     1       3.931   2.444  19.143  0.00  0.00    +0.000 A 
ATOM     30  C   UNL     1       3.241   2.561  20.346  0.00  0.00    +0.000 A 
ATOM     31  C   UNL     1       2.623   3.762  20.699  0.00  0.00    +0.000 A 
ATOM     32  C   UNL     1       2.717   4.844  19.807  0.00  0.00    +0.000 A 
ATOM     33  S   UNL     1       2.057   6.416  19.956  0.00  0.00    +0.000 S 
ATOM     34  H   UNL     1       3.174   8.344  17.109  0.00  0.00    +0.000 HD
ENDBRANCH  23  24
ENDBRANCH   9  22
BRANCH  10  35
ATOM     35  O   UNL     1      -0.746   9.912  19.688  0.00  0.00    +0.000 OA
ATOM     36  H   UNL     1      -0.176   9.202  19.309  0.00  0.00    +0.000 HD
ENDBRANCH  10  35
TORSDOF 5
ENDMDL
