MODEL 1
REMARK VINA RESULT:      -8.2      0.000      0.000
REMARK  Name = 
REMARK  4 active torsions:
REMARK  status: ('A' for Active; 'I' for Inactive)
REMARK    1  A    between atoms: C_1  and  C_2
REMARK    2  A    between atoms: C_2  and  C_3
REMARK    3  A    between atoms: C_2  and  N_8
REMARK    4  A    between atoms: N_11  and  C_12
REMARK                            x       y       z     vdW  Elec       q    Type
REMARK                         _______ _______ _______ _____ _____    ______ ____
ROOT
ATOM      1  N   UNL     1       3.662   5.242  18.445  0.00  0.00    +0.000 N 
ATOM      2  C   UNL     1       3.404   6.625  18.447  0.00  0.00    +0.000 C 
ATOM      3  O   UNL     1       4.047   7.422  17.764  0.00  0.00    +0.000 OA
ATOM      4  N   UNL     1       2.316   7.002  19.218  0.00  0.00    +0.000 N 
ATOM      5  C   UNL     1       2.936   4.349  19.288  0.00  0.00    +0.000 A 
ATOM      6  C   UNL     1       2.436   3.155  18.776  0.00  0.00    +0.000 A 
ATOM      7  C   UNL     1       1.675   2.330  19.602  0.00  0.00    +0.000 A 
ATOM      8  C   UNL     1       1.460   2.694  20.924  0.00  0.00    +0.000 A 
ATOM      9  C   UNL     1       1.978   3.900  21.356  0.00  0.00    +0.000 A 
ATOM     10  N   UNL     1       2.667   4.749  20.558  0.00  0.00    +0.000 NA
ATOM     11  H   UNL     1       2.126   6.355  19.980  0.00  0.00    +0.000 HD
ENDROOT
BRANCH   4  12
ATOM     12  C   UNL     1       1.652   8.239  19.281  0.00  0.00    +0.000 A 
ATOM     13  C   UNL     1       1.396   9.045  18.171  0.00  0.00    +0.000 A 
ATOM     14  C   UNL     1       0.742  10.276  18.329  0.00  0.00    +0.000 A 
ATOM     15  C   UNL     1       0.341  10.700  19.596  0.00  0.00    +0.000 A 
ATOM     16 CL   UNL     1      -0.419  12.230  19.789  0.00  0.00    +0.000 Cl
ATOM     17  C   UNL     1       0.561   9.889  20.703  0.00  0.00    +0.000 A 
ATOM     18  C   UNL     1       1.205   8.658  20.543  0.00  0.00    +0.000 A 
ENDBRANCH   4  12
BRANCH   1  20
ATOM     19  C   UNL     1       4.787   4.608  16.221  0.00  0.00    +0.000 C 
ATOM     20  C   UNL     1       4.839   4.660  17.750  0.00  0.00    +0.000 C 
BRANCH  20  21
ATOM     21  C   UNL     1       6.123   5.310  18.193  0.00  0.00    +0.000 A 
ATOM     22  C   UNL     1       7.101   6.061  17.574  0.00  0.00    +0.000 A 
ATOM     23  C   UNL     1       8.122   6.261  18.539  0.00  0.00    +0.000 A 
ATOM     24  C   UNL     1       7.700   5.636  19.688  0.00  0.00    +0.000 A 
ATOM     25  O   UNL     1       6.487   5.063  19.492  0.00  0.00    +0.000 OA
ENDBRANCH  20  21
ENDBRANCH   1  20
TORSDOF 3
ENDMDL
MODEL 2
REMARK VINA RESULT:      -8.1      1.157      1.720
REMARK  Name = 
REMARK  4 active torsions:
REMARK  status: ('A' for Active; 'I' for Inactive)
REMARK    1  A    between atoms: C_1  and  C_2
REMARK    2  A    between atoms: C_2  and  C_3
REMARK    3  A    between atoms: C_2  and  N_8
REMARK    4  A    between atoms: N_11  and  C_12
REMARK                            x       y       z     vdW  Elec       q    Type
REMARK                         _______ _______ _______ _____ _____    ______ ____
ROOT
ATOM      1  N   UNL     1       4.051   5.631  17.564  0.00  0.00    +0.000 N 
ATOM      2  C   UNL     1       3.640   6.924  17.941  0.00  0.00    +0.000 C 
ATOM      3  O   UNL     1       4.200   7.943  17.538  0.00  0.00    +0.000 OA
ATOM      4  N   UNL     1       2.506   6.953  18.737  0.00  0.00    +0.000 N 
ATOM      5  C   UNL     1       3.417   4.467  18.091  0.00  0.00    +0.000 A 
ATOM      6  C   UNL     1       3.061   3.421  17.244  0.00  0.00    +0.000 A 
ATOM      7  C   UNL     1       2.385   2.322  17.771  0.00  0.00    +0.000 A 
ATOM      8  C   UNL     1       2.113   2.274  19.131  0.00  0.00    +0.000 A 
ATOM      9  C   UNL     1       2.487   3.355  19.905  0.00  0.00    +0.000 A 
ATOM     10  N   UNL     1       3.088   4.462  19.408  0.00  0.00    +0.000 NA
ATOM     11  H   UNL     1       2.379   6.101  19.279  0.00  0.00    +0.000 HD
ENDROOT
BRANCH   4  12
ATOM     12  C   UNL     1       1.708   8.046  19.114  0.00  0.00    +0.000 A 
ATOM     13  C   UNL     1       1.373   8.350  20.435  0.00  0.00    +0.000 A 
ATOM     14  C   UNL     1       0.554   9.452  20.719  0.00  0.00    +0.000 A 
ATOM     15  C   UNL     1       0.071  10.253  19.684  0.00  0.00    +0.000 A 
ATOM     16 CL   UNL     1      -0.969  11.576  20.035  0.00  0.00    +0.000 Cl
ATOM     17  C   UNL     1       0.426   9.979  18.368  0.00  0.00    +0.000 A 
ATOM     18  C   UNL     1       1.251   8.885  18.087  0.00  0.00    +0.000 A 
ENDBRANCH   4  12
BRANCH   1  20
ATOM     19  C   UNL     1       5.255   5.727  15.294  0.00  0.00    +0.000 C 
ATOM     20  C   UNL     1       5.295   5.395  16.788  0.00  0.00    +0.000 C 
BRANCH  20  21
ATOM     21  C   UNL     1       6.484   6.063  17.425  0.00  0.00    +0.000 A 
ATOM     22  C   UNL     1       7.223   5.854  18.572  0.00  0.00    +0.000 A 
ATOM     23  C   UNL     1       8.147   6.928  18.654  0.00  0.00    +0.000 A 
ATOM     24  C   UNL     1       7.928   7.715  17.548  0.00  0.00    +0.000 A 
ATOM     25  O   UNL     1       6.928   7.196  16.794  0.00  0.00    +0.000 OA
ENDBRANCH  20  21
ENDBRANCH   1  20
TORSDOF 3
ENDMDL
MODEL 3
REMARK VINA RESULT:      -8.0      0.560      1.168
REMARK  Name = 
REMARK  4 active torsions:
REMARK  status: ('A' for Active; 'I' for Inactive)
REMARK    1  A    between atoms: C_1  and  C_2
REMARK    2  A    between atoms: C_2  and  C_3
REMARK    3  A    between atoms: C_2  and  N_8
REMARK    4  A    between atoms: N_11  and  C_12
REMARK                            x       y       z     vdW  Elec       q    Type
REMARK                         _______ _______ _______ _____ _____    ______ ____
ROOT
ATOM      1  N   UNL     1       3.734   5.499  17.955  0.00  0.00    +0.000 N 
ATOM      2  C   UNL     1       3.457   6.853  18.222  0.00  0.00    +0.000 C 
ATOM      3  O   UNL     1       4.149   7.772  17.785  0.00  0.00    +0.000 OA
ATOM      4  N   UNL     1       2.296   7.065  18.948  0.00  0.00    +0.000 N 
ATOM      5  C   UNL     1       2.946   4.454  18.520  0.00  0.00    +0.000 A 
ATOM      6  C   UNL     1       2.514   3.396  17.725  0.00  0.00    +0.000 A 
ATOM      7  C   UNL     1       1.691   2.420  18.284  0.00  0.00    +0.000 A 
ATOM      8  C   UNL     1       1.348   2.499  19.627  0.00  0.00    +0.000 A 
ATOM      9  C   UNL     1       1.806   3.586  20.348  0.00  0.00    +0.000 A 
ATOM     10  N   UNL     1       2.553   4.580  19.814  0.00  0.00    +0.000 NA
ATOM     11  H   UNL     1       2.045   6.274  19.537  0.00  0.00    +0.000 HD
ENDROOT
BRANCH   4  12
ATOM     12  C   UNL     1       1.610   8.265  19.206  0.00  0.00    +0.000 A 
ATOM     13  C   UNL     1       1.256   8.702  20.483  0.00  0.00    +0.000 A 
ATOM     14  C   UNL     1       0.556   9.907  20.647  0.00  0.00    +0.000 A 
ATOM     15  C   UNL     1       0.211  10.675  19.535  0.00  0.00    +0.000 A 
ATOM     16 CL   UNL     1      -0.687  12.126  19.738  0.00  0.00    +0.000 Cl
ATOM     17  C   UNL     1       0.589  10.265  18.261  0.00  0.00    +0.000 A 
ATOM     18  C   UNL     1       1.296   9.068  18.100  0.00  0.00    +0.000 A 
ENDBRANCH   4  12
BRANCH   1  20
ATOM     19  C   UNL     1       5.075   5.346  15.766  0.00  0.00    +0.000 C 
ATOM     20  C   UNL     1       4.980   5.070  17.268  0.00  0.00    +0.000 C 
BRANCH  20  21
ATOM     21  C   UNL     1       6.207   5.600  17.961  0.00  0.00    +0.000 A 
ATOM     22  C   UNL     1       7.224   6.467  17.617  0.00  0.00    +0.000 A 
ATOM     23  C   UNL     1       8.150   6.443  18.692  0.00  0.00    +0.000 A 
ATOM     24  C   UNL     1       7.636   5.579  19.630  0.00  0.00    +0.000 A 
ATOM     25  O   UNL     1       6.456   5.069  19.200  0.00  0.00    +0.000 OA
ENDBRANCH  20  21
ENDBRANCH   1  20
TORSDOF 3
ENDMDL
MODEL 4
REMARK VINA RESULT:      -8.0      0.631      1.289
REMARK  Name = 
REMARK  4 active torsions:
REMARK  status: ('A' for Active; 'I' for Inactive)
REMARK    1  A    between atoms: C_1  and  C_2
REMARK    2  A    between atoms: C_2  and  C_3
REMARK    3  A    between atoms: C_2  and  N_8
REMARK    4  A    between atoms: N_11  and  C_12
REMARK                            x       y       z     vdW  Elec       q    Type
REMARK                         _______ _______ _______ _____ _____    ______ ____
ROOT
ATOM      1  N   UNL     1       3.622   5.148  18.505  0.00  0.00    +0.000 N 
ATOM      2  C   UNL     1       3.372   6.533  18.522  0.00  0.00    +0.000 C 
ATOM      3  O   UNL     1       3.986   7.328  17.809  0.00  0.00    +0.000 OA
ATOM      4  N   UNL     1       2.325   6.915  19.345  0.00  0.00    +0.000 N 
ATOM      5  C   UNL     1       2.933   4.259  19.382  0.00  0.00    +0.000 A 
ATOM      6  C   UNL     1       2.402   3.068  18.894  0.00  0.00    +0.000 A 
ATOM      7  C   UNL     1       1.678   2.245  19.755  0.00  0.00    +0.000 A 
ATOM      8  C   UNL     1       1.530   2.609  21.087  0.00  0.00    +0.000 A 
ATOM      9  C   UNL     1       2.075   3.812  21.494  0.00  0.00    +0.000 A 
ATOM     10  N   UNL     1       2.729   4.658  20.664  0.00  0.00    +0.000 NA
ATOM     11  H   UNL     1       2.169   6.268  20.115  0.00  0.00    +0.000 HD
ENDROOT
BRANCH   4  12
ATOM     12  C   UNL     1       1.671   8.155  19.442  0.00  0.00    +0.000 A 
ATOM     13  C   UNL     1       1.215   8.705  20.641  0.00  0.00    +0.000 A 
ATOM     14  C   UNL     1       0.555   9.943  20.643  0.00  0.00    +0.000 A 
ATOM     15  C   UNL     1       0.355  10.633  19.447  0.00  0.00    +0.000 A 
ATOM     16 CL   UNL     1      -0.494  12.128  19.449  0.00  0.00    +0.000 Cl
ATOM     17  C   UNL     1       0.836  10.110  18.252  0.00  0.00    +0.000 A 
ATOM     18  C   UNL     1       1.502   8.880  18.253  0.00  0.00    +0.000 A 
ENDBRANCH   4  12
BRANCH   1  20
ATOM     19  C   UNL     1       4.591   4.414  16.239  0.00  0.00    +0.000 C 
ATOM     20  C   UNL     1       4.761   4.561  17.753  0.00  0.00    +0.000 C 
BRANCH  20  21
ATOM     21  C   UNL     1       6.052   5.275  18.053  0.00  0.00    +0.000 A 
ATOM     22  C   UNL     1       6.831   5.453  19.178  0.00  0.00    +0.000 A 
ATOM     23  C   UNL     1       7.870   6.345  18.808  0.00  0.00    +0.000 A 
ATOM     24  C   UNL     1       7.674   6.643  17.480  0.00  0.00    +0.000 A 
ATOM     25  O   UNL     1       6.579   5.993  17.011  0.00  0.00    +0.000 OA
ENDBRANCH  20  21
ENDBRANCH   1  20
TORSDOF 3
ENDMDL
MODEL 5
REMARK VINA RESULT:      -7.6      1.743      4.113
REMARK  Name = 
REMARK  4 active torsions:
REMARK  status: ('A' for Active; 'I' for Inactive)
REMARK    1  A    between atoms: C_1  and  C_2
REMARK    2  A    between atoms: C_2  and  C_3
REMARK    3  A    between atoms: C_2  and  N_8
REMARK    4  A    between atoms: N_11  and  C_12
REMARK                            x       y       z     vdW  Elec       q    Type
REMARK                         _______ _______ _______ _____ _____    ______ ____
ROOT
ATOM      1  N   UNL     1       4.299   5.377  17.555  0.00  0.00    +0.000 N 
ATOM      2  C   UNL     1       3.079   6.040  17.785  0.00  0.00    +0.000 C 
ATOM      3  O   UNL     1       1.986   5.496  17.619  0.00  0.00    +0.000 OA
ATOM      4  N   UNL     1       3.212   7.324  18.289  0.00  0.00    +0.000 N 
ATOM      5  C   UNL     1       5.548   6.050  17.702  0.00  0.00    +0.000 A 
ATOM      6  C   UNL     1       6.595   5.438  18.387  0.00  0.00    +0.000 A 
ATOM      7  C   UNL     1       7.785   6.140  18.575  0.00  0.00    +0.000 A 
ATOM      8  C   UNL     1       7.917   7.417  18.045  0.00  0.00    +0.000 A 
ATOM      9  C   UNL     1       6.830   7.961  17.389  0.00  0.00    +0.000 A 
ATOM     10  N   UNL     1       5.643   7.326  17.248  0.00  0.00    +0.000 NA
ATOM     11  H   UNL     1       4.093   7.762  18.031  0.00  0.00    +0.000 HD
ENDROOT
BRANCH   4  12
ATOM     12  C   UNL     1       2.234   8.178  18.826  0.00  0.00    +0.000 A 
ATOM     13  C   UNL     1       1.791   8.122  20.149  0.00  0.00    +0.000 A 
ATOM     14  C   UNL     1       0.796   9.003  20.596  0.00  0.00    +0.000 A 
ATOM     15  C   UNL     1       0.245   9.942  19.723  0.00  0.00    +0.000 A 
ATOM     16 CL   UNL     1      -1.007  10.988  20.265  0.00  0.00    +0.000 Cl
ATOM     17  C   UNL     1       0.703  10.027  18.414  0.00  0.00    +0.000 A 
ATOM     18  C   UNL     1       1.702   9.154  17.971  0.00  0.00    +0.000 A 
ENDBRANCH   4  12
BRANCH   1  20
ATOM     19  C   UNL     1       5.618   3.693  16.128  0.00  0.00    +0.000 C 
ATOM     20  C   UNL     1       4.361   4.030  16.933  0.00  0.00    +0.000 C 
BRANCH  20  21
ATOM     21  C   UNL     1       4.094   2.940  17.938  0.00  0.00    +0.000 A 
ATOM     22  C   UNL     1       3.363   1.770  17.939  0.00  0.00    +0.000 A 
ATOM     23  C   UNL     1       3.429   1.258  19.260  0.00  0.00    +0.000 A 
ATOM     24  C   UNL     1       4.208   2.135  19.979  0.00  0.00    +0.000 A 
ATOM     25  O   UNL     1       4.622   3.153  19.185  0.00  0.00    +0.000 OA
ENDBRANCH  20  21
ENDBRANCH   1  20
TORSDOF 3
ENDMDL
MODEL 6
REMARK VINA RESULT:      -7.6      1.767      2.632
REMARK  Name = 
REMARK  4 active torsions:
REMARK  status: ('A' for Active; 'I' for Inactive)
REMARK    1  A    between atoms: C_1  and  C_2
REMARK    2  A    between atoms: C_2  and  C_3
REMARK    3  A    between atoms: C_2  and  N_8
REMARK    4  A    between atoms: N_11  and  C_12
REMARK                            x       y       z     vdW  Elec       q    Type
REMARK                         _______ _______ _______ _____ _____    ______ ____
ROOT
ATOM      1  N   UNL     1       5.023   5.528  17.693  0.00  0.00    +0.000 N 
ATOM      2  C   UNL     1       4.459   6.797  17.920  0.00  0.00    +0.000 C 
ATOM      3  O   UNL     1       4.976   7.837  17.513  0.00  0.00    +0.000 OA
ATOM      4  N   UNL     1       3.234   6.770  18.568  0.00  0.00    +0.000 N 
ATOM      5  C   UNL     1       4.429   4.346  18.225  0.00  0.00    +0.000 A 
ATOM      6  C   UNL     1       4.274   3.219  17.422  0.00  0.00    +0.000 A 
ATOM      7  C   UNL     1       3.633   2.097  17.944  0.00  0.00    +0.000 A 
ATOM      8  C   UNL     1       3.195   2.109  19.261  0.00  0.00    +0.000 A 
ATOM      9  C   UNL     1       3.373   3.269  19.992  0.00  0.00    +0.000 A 
ATOM     10  N   UNL     1       3.936   4.393  19.490  0.00  0.00    +0.000 NA
ATOM     11  H   UNL     1       3.112   5.946  19.153  0.00  0.00    +0.000 HD
ENDROOT
BRANCH   4  12
ATOM     12  C   UNL     1       2.303   7.806  18.762  0.00  0.00    +0.000 A 
ATOM     13  C   UNL     1       1.811   8.614  17.737  0.00  0.00    +0.000 A 
ATOM     14  C   UNL     1       0.896   9.638  18.024  0.00  0.00    +0.000 A 
ATOM     15  C   UNL     1       0.471   9.852  19.336  0.00  0.00    +0.000 A 
ATOM     16 CL   UNL     1      -0.615  11.137  19.688  0.00  0.00    +0.000 Cl
ATOM     17  C   UNL     1       0.929   9.030  20.359  0.00  0.00    +0.000 A 
ATOM     18  C   UNL     1       1.835   8.003  20.069  0.00  0.00    +0.000 A 
ENDBRANCH   4  12
BRANCH   1  20
ATOM     19  C   UNL     1       7.338   4.415  17.812  0.00  0.00    +0.000 C 
ATOM     20  C   UNL     1       6.372   5.360  17.094  0.00  0.00    +0.000 C 
BRANCH  20  21
ATOM     21  C   UNL     1       6.290   4.993  15.636  0.00  0.00    +0.000 A 
ATOM     22  C   UNL     1       5.349   4.377  14.836  0.00  0.00    +0.000 A 
ATOM     23  C   UNL     1       5.950   4.222  13.559  0.00  0.00    +0.000 A 
ATOM     24  C   UNL     1       7.210   4.765  13.653  0.00  0.00    +0.000 A 
ATOM     25  O   UNL     1       7.423   5.242  14.905  0.00  0.00    +0.000 OA
ENDBRANCH  20  21
ENDBRANCH   1  20
TORSDOF 3
ENDMDL
MODEL 7
REMARK VINA RESULT:      -7.5      1.187      1.358
REMARK  Name = 
REMARK  4 active torsions:
REMARK  status: ('A' for Active; 'I' for Inactive)
REMARK    1  A    between atoms: C_1  and  C_2
REMARK    2  A    between atoms: C_2  and  C_3
REMARK    3  A    between atoms: C_2  and  N_8
REMARK    4  A    between atoms: N_11  and  C_12
REMARK                            x       y       z     vdW  Elec       q    Type
REMARK                         _______ _______ _______ _____ _____    ______ ____
ROOT
ATOM      1  N   UNL     1       3.408   5.835  17.915  0.00  0.00    +0.000 N 
ATOM      2  C   UNL     1       3.153   7.133  18.395  0.00  0.00    +0.000 C 
ATOM      3  O   UNL     1       3.706   8.132  17.934  0.00  0.00    +0.000 OA
ATOM      4  N   UNL     1       2.170   7.199  19.369  0.00  0.00    +0.000 N 
ATOM      5  C   UNL     1       2.793   4.691  18.505  0.00  0.00    +0.000 A 
ATOM      6  C   UNL     1       2.232   3.704  17.698  0.00  0.00    +0.000 A 
ATOM      7  C   UNL     1       1.580   2.628  18.297  0.00  0.00    +0.000 A 
ATOM      8  C   UNL     1       1.533   2.541  19.682  0.00  0.00    +0.000 A 
ATOM      9  C   UNL     1       2.101   3.565  20.415  0.00  0.00    +0.000 A 
ATOM     10  N   UNL     1       2.685   4.652  19.858  0.00  0.00    +0.000 NA
ATOM     11  H   UNL     1       2.077   6.335  19.898  0.00  0.00    +0.000 HD
ENDROOT
BRANCH   4  12
ATOM     12  C   UNL     1       1.520   8.323  19.907  0.00  0.00    +0.000 A 
ATOM     13  C   UNL     1       1.089   9.413  19.148  0.00  0.00    +0.000 A 
ATOM     14  C   UNL     1       0.463  10.503  19.771  0.00  0.00    +0.000 A 
ATOM     15  C   UNL     1       0.266  10.503  21.152  0.00  0.00    +0.000 A 
ATOM     16 CL   UNL     1      -0.460  11.861  21.916  0.00  0.00    +0.000 Cl
ATOM     17  C   UNL     1       0.661   9.408  21.912  0.00  0.00    +0.000 A 
ATOM     18  C   UNL     1       1.276   8.318  21.288  0.00  0.00    +0.000 A 
ENDBRANCH   4  12
BRANCH   1  20
ATOM     19  C   UNL     1       4.682   6.568  15.805  0.00  0.00    +0.000 C 
ATOM     20  C   UNL     1       4.489   5.554  16.935  0.00  0.00    +0.000 C 
BRANCH  20  21
ATOM     21  C   UNL     1       5.806   5.298  17.619  0.00  0.00    +0.000 A 
ATOM     22  C   UNL     1       6.401   5.733  18.785  0.00  0.00    +0.000 A 
ATOM     23  C   UNL     1       7.718   5.204  18.784  0.00  0.00    +0.000 A 
ATOM     24  C   UNL     1       7.840   4.468  17.629  0.00  0.00    +0.000 A 
ATOM     25  O   UNL     1       6.685   4.512  16.920  0.00  0.00    +0.000 OA
ENDBRANCH  20  21
ENDBRANCH   1  20
TORSDOF 3
ENDMDL
MODEL 8
REMARK VINA RESULT:      -7.4      1.916      4.013
REMARK  Name = 
REMARK  4 active torsions:
REMARK  status: ('A' for Active; 'I' for Inactive)
REMARK    1  A    between atoms: C_1  and  C_2
REMARK    2  A    between atoms: C_2  and  C_3
REMARK    3  A    between atoms: C_2  and  N_8
REMARK    4  A    between atoms: N_11  and  C_12
REMARK                            x       y       z     vdW  Elec       q    Type
REMARK                         _______ _______ _______ _____ _____    ______ ____
ROOT
ATOM      1  N   UNL     1       4.203   5.450  17.622  0.00  0.00    +0.000 N 
ATOM      2  C   UNL     1       2.988   6.137  17.808  0.00  0.00    +0.000 C 
ATOM      3  O   UNL     1       1.891   5.592  17.685  0.00  0.00    +0.000 OA
ATOM      4  N   UNL     1       3.133   7.452  18.220  0.00  0.00    +0.000 N 
ATOM      5  C   UNL     1       5.457   6.121  17.718  0.00  0.00    +0.000 A 
ATOM      6  C   UNL     1       6.502   5.552  18.442  0.00  0.00    +0.000 A 
ATOM      7  C   UNL     1       7.697   6.256  18.575  0.00  0.00    +0.000 A 
ATOM      8  C   UNL     1       7.838   7.491  17.957  0.00  0.00    +0.000 A 
ATOM      9  C   UNL     1       6.752   7.996  17.266  0.00  0.00    +0.000 A 
ATOM     10  N   UNL     1       5.560   7.362  17.174  0.00  0.00    +0.000 NA
ATOM     11  H   UNL     1       4.016   7.864  17.929  0.00  0.00    +0.000 HD
ENDROOT
BRANCH   4  12
ATOM     12  C   UNL     1       2.163   8.350  18.698  0.00  0.00    +0.000 A 
ATOM     13  C   UNL     1       1.570   9.345  17.920  0.00  0.00    +0.000 A 
ATOM     14  C   UNL     1       0.622  10.211  18.485  0.00  0.00    +0.000 A 
ATOM     15  C   UNL     1       0.265  10.080  19.828  0.00  0.00    +0.000 A 
ATOM     16 CL   UNL     1      -0.863  11.173  20.527  0.00  0.00    +0.000 Cl
ATOM     17  C   UNL     1       0.825   9.071  20.602  0.00  0.00    +0.000 A 
ATOM     18  C   UNL     1       1.764   8.202  20.034  0.00  0.00    +0.000 A 
ENDBRANCH   4  12
BRANCH   1  20
ATOM     19  C   UNL     1       5.420   3.709  16.173  0.00  0.00    +0.000 C 
ATOM     20  C   UNL     1       4.251   4.061  17.097  0.00  0.00    +0.000 C 
BRANCH  20  21
ATOM     21  C   UNL     1       4.155   3.044  18.203  0.00  0.00    +0.000 A 
ATOM     22  C   UNL     1       4.459   3.035  19.549  0.00  0.00    +0.000 A 
ATOM     23  C   UNL     1       4.242   1.707  19.999  0.00  0.00    +0.000 A 
ATOM     24  C   UNL     1       3.805   0.993  18.908  0.00  0.00    +0.000 A 
ATOM     25  O   UNL     1       3.741   1.796  17.817  0.00  0.00    +0.000 OA
ENDBRANCH  20  21
ENDBRANCH   1  20
TORSDOF 3
ENDMDL
MODEL 9
REMARK VINA RESULT:      -7.2      1.050      1.545
REMARK  Name = 
REMARK  4 active torsions:
REMARK  status: ('A' for Active; 'I' for Inactive)
REMARK    1  A    between atoms: C_1  and  C_2
REMARK    2  A    between atoms: C_2  and  C_3
REMARK    3  A    between atoms: C_2  and  N_8
REMARK    4  A    between atoms: N_11  and  C_12
REMARK                            x       y       z     vdW  Elec       q    Type
REMARK                         _______ _______ _______ _____ _____    ______ ____
ROOT
ATOM      1  N   UNL     1       3.315   5.773  18.201  0.00  0.00    +0.000 N 
ATOM      2  C   UNL     1       3.066   7.097  18.608  0.00  0.00    +0.000 C 
ATOM      3  O   UNL     1       3.596   8.069  18.069  0.00  0.00    +0.000 OA
ATOM      4  N   UNL     1       2.116   7.217  19.609  0.00  0.00    +0.000 N 
ATOM      5  C   UNL     1       2.729   4.664  18.880  0.00  0.00    +0.000 A 
ATOM      6  C   UNL     1       2.150   3.626  18.155  0.00  0.00    +0.000 A 
ATOM      7  C   UNL     1       1.526   2.585  18.840  0.00  0.00    +0.000 A 
ATOM      8  C   UNL     1       1.526   2.583  20.229  0.00  0.00    +0.000 A 
ATOM      9  C   UNL     1       2.110   3.654  20.878  0.00  0.00    +0.000 A 
ATOM     10  N   UNL     1       2.667   4.708  20.236  0.00  0.00    +0.000 NA
ATOM     11  H   UNL     1       2.047   6.387  20.193  0.00  0.00    +0.000 HD
ENDROOT
BRANCH   4  12
ATOM     12  C   UNL     1       1.475   8.368  20.099  0.00  0.00    +0.000 A 
ATOM     13  C   UNL     1       1.171   8.579  21.444  0.00  0.00    +0.000 A 
ATOM     14  C   UNL     1       0.512   9.752  21.842  0.00  0.00    +0.000 A 
ATOM     15  C   UNL     1       0.160  10.715  20.896  0.00  0.00    +0.000 A 
ATOM     16 CL   UNL     1      -0.688  12.129  21.384  0.00  0.00    +0.000 Cl
ATOM     17  C   UNL     1       0.489  10.529  19.558  0.00  0.00    +0.000 A 
ATOM     18  C   UNL     1       1.154   9.363  19.164  0.00  0.00    +0.000 A 
ENDBRANCH   4  12
BRANCH   1  20
ATOM     19  C   UNL     1       4.508   6.378  16.005  0.00  0.00    +0.000 C 
ATOM     20  C   UNL     1       4.365   5.438  17.204  0.00  0.00    +0.000 C 
BRANCH  20  21
ATOM     21  C   UNL     1       5.708   5.239  17.856  0.00  0.00    +0.000 A 
ATOM     22  C   UNL     1       6.276   5.617  19.056  0.00  0.00    +0.000 A 
ATOM     23  C   UNL     1       7.633   5.209  19.001  0.00  0.00    +0.000 A 
ATOM     24  C   UNL     1       7.807   4.593  17.784  0.00  0.00    +0.000 A 
ATOM     25  O   UNL     1       6.644   4.600  17.086  0.00  0.00    +0.000 OA
ENDBRANCH  20  21
ENDBRANCH   1  20
TORSDOF 3
ENDMDL
