MODEL 1
REMARK VINA RESULT:      -9.1      0.000      0.000
REMARK  Name = 
REMARK  4 active torsions:
REMARK  status: ('A' for Active; 'I' for Inactive)
REMARK    1  A    between atoms: C_1  and  C_2
REMARK    2  A    between atoms: C_3  and  N_4
REMARK    3  A    between atoms: C_10  and  C_11
REMARK    4  A    between atoms: N_23  and  C_24
REMARK                            x       y       z     vdW  Elec       q    Type
REMARK                         _______ _______ _______ _____ _____    ______ ____
ROOT
ATOM      1  N   UNL     1       1.704   6.746  20.748  0.00  0.00    +0.000 N 
ATOM      2  C   UNL     1       2.405   5.578  20.433  0.00  0.00    +0.000 A 
ATOM      3  N   UNL     1       1.890   4.411  20.908  0.00  0.00    +0.000 NA
ATOM      4  C   UNL     1       2.556   3.276  20.683  0.00  0.00    +0.000 A 
ATOM      5  C   UNL     1       3.778   3.268  19.956  0.00  0.00    +0.000 A 
ATOM      6 CL   UNL     1       4.509   1.764  19.642  0.00  0.00    +0.000 Cl
ATOM      7  C   UNL     1       4.278   4.549  19.574  0.00  0.00    +0.000 A 
ATOM      8  N   UNL     1       3.570   5.687  19.774  0.00  0.00    +0.000 NA
ATOM      9  H   UNL     1       1.247   6.633  21.640  0.00  0.00    +0.000 HD
ENDROOT
BRANCH   7  10
ATOM     10  C   UNL     1       5.481   4.649  18.729  0.00  0.00    +0.000 A 
ATOM     11  C   UNL     1       6.746   4.828  19.197  0.00  0.00    +0.000 A 
ATOM     12  N   UNL     1       7.712   4.985  18.259  0.00  0.00    +0.000 NA
ATOM     13  C   UNL     1       7.036   4.823  17.145  0.00  0.00    +0.000 A 
ATOM     14  C   UNL     1       7.506   4.814  15.829  0.00  0.00    +0.000 A 
ATOM     15  C   UNL     1       6.652   4.714  14.809  0.00  0.00    +0.000 A 
ATOM     16  C   UNL     1       5.297   4.131  14.803  0.00  0.00    +0.000 A 
ATOM     17  C   UNL     1       4.851   4.262  16.099  0.00  0.00    +0.000 A 
ATOM     18  N   UNL     1       5.673   4.550  17.301  0.00  0.00    +0.000 N 
ENDBRANCH   7  10
BRANCH   1  21
ATOM     19  C   UNL     1       0.186   9.321  21.548  0.00  0.00    +0.000 C 
ATOM     20  C   UNL     1       1.010   9.019  20.321  0.00  0.00    +0.000 A 
ATOM     21  C   UNL     1       1.659   7.855  19.981  0.00  0.00    +0.000 A 
ATOM     22  C   UNL     1       2.131   8.042  18.676  0.00  0.00    +0.000 A 
ATOM     23  N   UNL     1       1.882   9.264  18.203  0.00  0.00    +0.000 NA
ATOM     24  N   UNL     1       1.247   9.895  19.244  0.00  0.00    +0.000 N 
BRANCH  24  25
ATOM     25  C   UNL     1       0.400  11.063  19.001  0.00  0.00    +0.000 C 
ATOM     26  C   UNL     1       0.605  12.593  18.902  0.00  0.00    +0.000 C 
ATOM     27  C   UNL     1      -0.693  13.276  19.451  0.00  0.00    +0.000 C 
ATOM     28  N   UNL     1      -1.873  12.898  18.679  0.00  0.00    +0.000 NA
ATOM     29  C   UNL     1      -2.113  11.467  18.825  0.00  0.00    +0.000 C 
ATOM     30  C   UNL     1      -0.925  10.660  18.337  0.00  0.00    +0.000 C 
ATOM     31  H   UNL     1      -1.716  13.119  17.695  0.00  0.00    +0.000 HD
ENDBRANCH  24  25
ENDBRANCH   1  21
TORSDOF 3
ENDMDL
MODEL 2
REMARK VINA RESULT:      -8.9      0.525      1.030
REMARK  Name = 
REMARK  4 active torsions:
REMARK  status: ('A' for Active; 'I' for Inactive)
REMARK    1  A    between atoms: C_1  and  C_2
REMARK    2  A    between atoms: C_3  and  N_4
REMARK    3  A    between atoms: C_10  and  C_11
REMARK    4  A    between atoms: N_23  and  C_24
REMARK                            x       y       z     vdW  Elec       q    Type
REMARK                         _______ _______ _______ _____ _____    ______ ____
ROOT
ATOM      1  N   UNL     1       1.869   6.589  20.750  0.00  0.00    +0.000 N 
ATOM      2  C   UNL     1       2.573   5.444  20.367  0.00  0.00    +0.000 A 
ATOM      3  N   UNL     1       2.107   4.255  20.838  0.00  0.00    +0.000 NA
ATOM      4  C   UNL     1       2.780   3.140  20.547  0.00  0.00    +0.000 A 
ATOM      5  C   UNL     1       3.960   3.174  19.755  0.00  0.00    +0.000 A 
ATOM      6 CL   UNL     1       4.700   1.694  19.361  0.00  0.00    +0.000 Cl
ATOM      7  C   UNL     1       4.414   4.474  19.380  0.00  0.00    +0.000 A 
ATOM      8  N   UNL     1       3.697   5.592  19.649  0.00  0.00    +0.000 NA
ATOM      9  H   UNL     1       1.464   6.445  21.662  0.00  0.00    +0.000 HD
ENDROOT
BRANCH   7  10
ATOM     10  C   UNL     1       5.567   4.620  18.473  0.00  0.00    +0.000 A 
ATOM     11  C   UNL     1       6.848   4.843  18.875  0.00  0.00    +0.000 A 
ATOM     12  N   UNL     1       7.757   5.037  17.888  0.00  0.00    +0.000 NA
ATOM     13  C   UNL     1       7.030   4.852  16.811  0.00  0.00    +0.000 A 
ATOM     14  C   UNL     1       7.430   4.863  15.472  0.00  0.00    +0.000 A 
ATOM     15  C   UNL     1       6.528   4.734  14.497  0.00  0.00    +0.000 A 
ATOM     16  C   UNL     1       5.196   4.102  14.560  0.00  0.00    +0.000 A 
ATOM     17  C   UNL     1       4.814   4.214  15.879  0.00  0.00    +0.000 A 
ATOM     18  N   UNL     1       5.688   4.530  17.037  0.00  0.00    +0.000 N 
ENDBRANCH   7  10
BRANCH   1  21
ATOM     19  C   UNL     1       0.195   9.044  21.616  0.00  0.00    +0.000 C 
ATOM     20  C   UNL     1       1.043   8.828  20.387  0.00  0.00    +0.000 A 
ATOM     21  C   UNL     1       1.762   7.717  20.017  0.00  0.00    +0.000 A 
ATOM     22  C   UNL     1       2.228   7.970  18.720  0.00  0.00    +0.000 A 
ATOM     23  N   UNL     1       1.909   9.189  18.283  0.00  0.00    +0.000 NA
ATOM     24  N   UNL     1       1.232   9.750  19.338  0.00  0.00    +0.000 N 
BRANCH  24  25
ATOM     25  C   UNL     1       0.318  10.872  19.124  0.00  0.00    +0.000 C 
ATOM     26  C   UNL     1      -1.213  11.062  19.013  0.00  0.00    +0.000 C 
ATOM     27  C   UNL     1      -1.467  12.236  18.008  0.00  0.00    +0.000 C 
ATOM     28  N   UNL     1      -0.860  13.482  18.464  0.00  0.00    +0.000 NA
ATOM     29  C   UNL     1       0.590  13.331  18.504  0.00  0.00    +0.000 C 
ATOM     30  C   UNL     1       0.999  12.212  19.442  0.00  0.00    +0.000 C 
ATOM     31  H   UNL     1      -1.206  13.702  19.399  0.00  0.00    +0.000 HD
ENDBRANCH  24  25
ENDBRANCH   1  21
TORSDOF 3
ENDMDL
MODEL 3
REMARK VINA RESULT:      -8.6      3.387      9.336
REMARK  Name = 
REMARK  4 active torsions:
REMARK  status: ('A' for Active; 'I' for Inactive)
REMARK    1  A    between atoms: C_1  and  C_2
REMARK    2  A    between atoms: C_3  and  N_4
REMARK    3  A    between atoms: C_10  and  C_11
REMARK    4  A    between atoms: N_23  and  C_24
REMARK                            x       y       z     vdW  Elec       q    Type
REMARK                         _______ _______ _______ _____ _____    ______ ____
ROOT
ATOM      1  N   UNL     1       1.642   8.306  20.744  0.00  0.00    +0.000 N 
ATOM      2  C   UNL     1       0.874   9.464  20.588  0.00  0.00    +0.000 A 
ATOM      3  N   UNL     1       1.079  10.459  21.494  0.00  0.00    +0.000 NA
ATOM      4  C   UNL     1       0.328  11.560  21.421  0.00  0.00    +0.000 A 
ATOM      5  C   UNL     1      -0.666  11.710  20.416  0.00  0.00    +0.000 A 
ATOM      6 CL   UNL     1      -1.513  13.184  20.346  0.00  0.00    +0.000 Cl
ATOM      7  C   UNL     1      -0.863  10.580  19.568  0.00  0.00    +0.000 A 
ATOM      8  N   UNL     1      -0.065   9.487  19.629  0.00  0.00    +0.000 NA
ATOM      9  H   UNL     1       1.846   8.168  21.722  0.00  0.00    +0.000 HD
ENDROOT
BRANCH   7  10
ATOM     10  C   UNL     1      -1.795  10.665  18.429  0.00  0.00    +0.000 A 
ATOM     11  C   UNL     1      -1.557  10.156  17.190  0.00  0.00    +0.000 A 
ATOM     12  N   UNL     1      -2.498  10.412  16.249  0.00  0.00    +0.000 NA
ATOM     13  C   UNL     1      -3.410  11.048  16.946  0.00  0.00    +0.000 A 
ATOM     14  C   UNL     1      -4.659  11.521  16.530  0.00  0.00    +0.000 A 
ATOM     15  C   UNL     1      -5.427  12.222  17.365  0.00  0.00    +0.000 A 
ATOM     16  C   UNL     1      -5.423  12.211  18.841  0.00  0.00    +0.000 A 
ATOM     17  C   UNL     1      -4.143  11.838  19.188  0.00  0.00    +0.000 A 
ATOM     18  N   UNL     1      -3.126  11.211  18.306  0.00  0.00    +0.000 N 
ENDBRANCH   7  10
BRANCH   1  21
ATOM     19  C   UNL     1       1.502   5.218  20.884  0.00  0.00    +0.000 C 
ATOM     20  C   UNL     1       1.966   6.122  19.769  0.00  0.00    +0.000 A 
ATOM     21  C   UNL     1       2.036   7.494  19.741  0.00  0.00    +0.000 A 
ATOM     22  C   UNL     1       2.688   7.826  18.546  0.00  0.00    +0.000 A 
ATOM     23  N   UNL     1       2.967   6.760  17.795  0.00  0.00    +0.000 NA
ATOM     24  N   UNL     1       2.462   5.707  18.517  0.00  0.00    +0.000 N 
BRANCH  24  25
ATOM     25  C   UNL     1       2.954   4.347  18.296  0.00  0.00    +0.000 C 
ATOM     26  C   UNL     1       2.652   3.193  17.311  0.00  0.00    +0.000 C 
ATOM     27  C   UNL     1       2.868   1.849  18.084  0.00  0.00    +0.000 C 
ATOM     28  N   UNL     1       4.237   1.718  18.572  0.00  0.00    +0.000 NA
ATOM     29  C   UNL     1       4.506   2.761  19.555  0.00  0.00    +0.000 C 
ATOM     30  C   UNL     1       4.329   4.141  18.951  0.00  0.00    +0.000 C 
ATOM     31  H   UNL     1       4.884   1.812  17.788  0.00  0.00    +0.000 HD
ENDBRANCH  24  25
ENDBRANCH   1  21
TORSDOF 3
ENDMDL
MODEL 4
REMARK VINA RESULT:      -8.1      1.096      1.737
REMARK  Name = 
REMARK  4 active torsions:
REMARK  status: ('A' for Active; 'I' for Inactive)
REMARK    1  A    between atoms: C_1  and  C_2
REMARK    2  A    between atoms: C_3  and  N_4
REMARK    3  A    between atoms: C_10  and  C_11
REMARK    4  A    between atoms: N_23  and  C_24
REMARK                            x       y       z     vdW  Elec       q    Type
REMARK                         _______ _______ _______ _____ _____    ______ ____
ROOT
ATOM      1  N   UNL     1       1.703   6.737  21.151  0.00  0.00    +0.000 N 
ATOM      2  C   UNL     1       2.134   5.528  20.596  0.00  0.00    +0.000 A 
ATOM      3  N   UNL     1       1.729   4.390  21.223  0.00  0.00    +0.000 NA
ATOM      4  C   UNL     1       2.163   3.214  20.763  0.00  0.00    +0.000 A 
ATOM      5  C   UNL     1       3.025   3.134  19.636  0.00  0.00    +0.000 A 
ATOM      6 CL   UNL     1       3.454   1.589  19.068  0.00  0.00    +0.000 Cl
ATOM      7  C   UNL     1       3.460   4.384  19.101  0.00  0.00    +0.000 A 
ATOM      8  N   UNL     1       2.978   5.566  19.553  0.00  0.00    +0.000 NA
ATOM      9  H   UNL     1       1.599   6.629  22.149  0.00  0.00    +0.000 HD
ENDROOT
BRANCH   7  10
ATOM     10  C   UNL     1       4.272   4.417  17.871  0.00  0.00    +0.000 A 
ATOM     11  C   UNL     1       4.016   3.687  16.752  0.00  0.00    +0.000 A 
ATOM     12  N   UNL     1       4.927   3.788  15.753  0.00  0.00    +0.000 NA
ATOM     13  C   UNL     1       5.759   4.681  16.236  0.00  0.00    +0.000 A 
ATOM     14  C   UNL     1       6.885   5.246  15.630  0.00  0.00    +0.000 A 
ATOM     15  C   UNL     1       7.664   6.089  16.310  0.00  0.00    +0.000 A 
ATOM     16  C   UNL     1       7.311   6.930  17.469  0.00  0.00    +0.000 A 
ATOM     17  C   UNL     1       6.268   6.270  18.080  0.00  0.00    +0.000 A 
ATOM     18  N   UNL     1       5.433   5.189  17.498  0.00  0.00    +0.000 N 
ENDBRANCH   7  10
BRANCH   1  21
ATOM     19  C   UNL     1      -0.290   8.925  22.055  0.00  0.00    +0.000 C 
ATOM     20  C   UNL     1       0.613   8.870  20.849  0.00  0.00    +0.000 A 
ATOM     21  C   UNL     1       1.477   7.873  20.460  0.00  0.00    +0.000 A 
ATOM     22  C   UNL     1       1.946   8.239  19.192  0.00  0.00    +0.000 A 
ATOM     23  N   UNL     1       1.490   9.426  18.792  0.00  0.00    +0.000 NA
ATOM     24  N   UNL     1       0.717   9.852  19.844  0.00  0.00    +0.000 N 
BRANCH  24  25
ATOM     25  C   UNL     1      -0.324  10.860  19.643  0.00  0.00    +0.000 C 
ATOM     26  C   UNL     1      -0.695  12.226  20.268  0.00  0.00    +0.000 C 
ATOM     27  C   UNL     1      -2.255  12.355  20.219  0.00  0.00    +0.000 C 
ATOM     28  N   UNL     1      -2.761  12.299  18.852  0.00  0.00    +0.000 NA
ATOM     29  C   UNL     1      -2.477  10.988  18.280  0.00  0.00    +0.000 C 
ATOM     30  C   UNL     1      -0.986  10.709  18.265  0.00  0.00    +0.000 C 
ATOM     31  H   UNL     1      -2.304  13.021  18.294  0.00  0.00    +0.000 HD
ENDBRANCH  24  25
ENDBRANCH   1  21
TORSDOF 3
ENDMDL
MODEL 5
REMARK VINA RESULT:      -8.1      3.331      9.590
REMARK  Name = 
REMARK  4 active torsions:
REMARK  status: ('A' for Active; 'I' for Inactive)
REMARK    1  A    between atoms: C_1  and  C_2
REMARK    2  A    between atoms: C_3  and  N_4
REMARK    3  A    between atoms: C_10  and  C_11
REMARK    4  A    between atoms: N_23  and  C_24
REMARK                            x       y       z     vdW  Elec       q    Type
REMARK                         _______ _______ _______ _____ _____    ______ ____
ROOT
ATOM      1  N   UNL     1       1.371   9.004  20.672  0.00  0.00    +0.000 N 
ATOM      2  C   UNL     1       0.517  10.110  20.625  0.00  0.00    +0.000 A 
ATOM      3  N   UNL     1       0.674  11.043  21.603  0.00  0.00    +0.000 NA
ATOM      4  C   UNL     1      -0.156  12.089  21.633  0.00  0.00    +0.000 A 
ATOM      5  C   UNL     1      -1.186  12.242  20.665  0.00  0.00    +0.000 A 
ATOM      6 CL   UNL     1      -2.138  13.651  20.730  0.00  0.00    +0.000 Cl
ATOM      7  C   UNL     1      -1.323  11.170  19.733  0.00  0.00    +0.000 A 
ATOM      8  N   UNL     1      -0.446  10.137  19.691  0.00  0.00    +0.000 NA
ATOM      9  H   UNL     1       1.610   8.805  21.632  0.00  0.00    +0.000 HD
ENDROOT
BRANCH   7  10
ATOM     10  C   UNL     1      -2.289  11.274  18.625  0.00  0.00    +0.000 A 
ATOM     11  C   UNL     1      -2.014  10.980  17.326  0.00  0.00    +0.000 A 
ATOM     12  N   UNL     1      -3.009  11.223  16.437  0.00  0.00    +0.000 NA
ATOM     13  C   UNL     1      -3.982  11.619  17.222  0.00  0.00    +0.000 A 
ATOM     14  C   UNL     1      -5.296  11.959  16.886  0.00  0.00    +0.000 A 
ATOM     15  C   UNL     1      -6.133  12.420  17.817  0.00  0.00    +0.000 A 
ATOM     16  C   UNL     1      -6.086  12.208  19.276  0.00  0.00    +0.000 A 
ATOM     17  C   UNL     1      -4.757  11.980  19.558  0.00  0.00    +0.000 A 
ATOM     18  N   UNL     1      -3.687  11.634  18.589  0.00  0.00    +0.000 N 
ENDBRANCH   7  10
BRANCH   1  21
ATOM     19  C   UNL     1       1.790   5.937  20.683  0.00  0.00    +0.000 C 
ATOM     20  C   UNL     1       1.970   6.940  19.571  0.00  0.00    +0.000 A 
ATOM     21  C   UNL     1       1.795   8.304  19.600  0.00  0.00    +0.000 A 
ATOM     22  C   UNL     1       2.252   8.780  18.364  0.00  0.00    +0.000 A 
ATOM     23  N   UNL     1       2.635   7.802  17.541  0.00  0.00    +0.000 NA
ATOM     24  N   UNL     1       2.399   6.656  18.260  0.00  0.00    +0.000 N 
BRANCH  24  25
ATOM     25  C   UNL     1       3.097   5.414  17.930  0.00  0.00    +0.000 C 
ATOM     26  C   UNL     1       2.707   4.024  17.373  0.00  0.00    +0.000 C 
ATOM     27  C   UNL     1       3.668   2.972  18.023  0.00  0.00    +0.000 C 
ATOM     28  N   UNL     1       5.065   3.243  17.703  0.00  0.00    +0.000 NA
ATOM     29  C   UNL     1       5.460   4.520  18.285  0.00  0.00    +0.000 C 
ATOM     30  C   UNL     1       4.604   5.653  17.752  0.00  0.00    +0.000 C 
ATOM     31  H   UNL     1       5.176   3.281  16.689  0.00  0.00    +0.000 HD
ENDBRANCH  24  25
ENDBRANCH   1  21
TORSDOF 3
ENDMDL
MODEL 6
REMARK VINA RESULT:      -8.0      1.173      1.884
REMARK  Name = 
REMARK  4 active torsions:
REMARK  status: ('A' for Active; 'I' for Inactive)
REMARK    1  A    between atoms: C_1  and  C_2
REMARK    2  A    between atoms: C_3  and  N_4
REMARK    3  A    between atoms: C_10  and  C_11
REMARK    4  A    between atoms: N_23  and  C_24
REMARK                            x       y       z     vdW  Elec       q    Type
REMARK                         _______ _______ _______ _____ _____    ______ ____
ROOT
ATOM      1  N   UNL     1       1.186   6.741  21.029  0.00  0.00    +0.000 N 
ATOM      2  C   UNL     1       1.576   5.525  20.461  0.00  0.00    +0.000 A 
ATOM      3  N   UNL     1       0.902   4.416  20.869  0.00  0.00    +0.000 NA
ATOM      4  C   UNL     1       1.277   3.225  20.398  0.00  0.00    +0.000 A 
ATOM      5  C   UNL     1       2.356   3.101  19.480  0.00  0.00    +0.000 A 
ATOM      6 CL   UNL     1       2.705   1.553  18.865  0.00  0.00    +0.000 Cl
ATOM      7  C   UNL     1       3.053   4.309  19.178  0.00  0.00    +0.000 A 
ATOM      8  N   UNL     1       2.633   5.514  19.633  0.00  0.00    +0.000 NA
ATOM      9  H   UNL     1       0.846   6.580  21.965  0.00  0.00    +0.000 HD
ENDROOT
BRANCH   7  10
ATOM     10  C   UNL     1       4.119   4.312  18.161  0.00  0.00    +0.000 A 
ATOM     11  C   UNL     1       3.948   3.968  16.856  0.00  0.00    +0.000 A 
ATOM     12  N   UNL     1       5.068   3.948  16.092  0.00  0.00    +0.000 NA
ATOM     13  C   UNL     1       5.978   4.372  16.938  0.00  0.00    +0.000 A 
ATOM     14  C   UNL     1       7.336   4.619  16.712  0.00  0.00    +0.000 A 
ATOM     15  C   UNL     1       8.133   4.975  17.721  0.00  0.00    +0.000 A 
ATOM     16  C   UNL     1       7.766   5.626  18.993  0.00  0.00    +0.000 A 
ATOM     17  C   UNL     1       6.455   5.261  19.211  0.00  0.00    +0.000 A 
ATOM     18  N   UNL     1       5.512   4.687  18.218  0.00  0.00    +0.000 N 
ENDBRANCH   7  10
BRANCH   1  21
ATOM     19  C   UNL     1      -0.209   9.292  22.091  0.00  0.00    +0.000 C 
ATOM     20  C   UNL     1       0.674   9.096  20.884  0.00  0.00    +0.000 A 
ATOM     21  C   UNL     1       1.265   7.944  20.423  0.00  0.00    +0.000 A 
ATOM     22  C   UNL     1       1.834   8.268  19.184  0.00  0.00    +0.000 A 
ATOM     23  N   UNL     1       1.699   9.558  18.873  0.00  0.00    +0.000 NA
ATOM     24  N   UNL     1       1.039  10.089  19.954  0.00  0.00    +0.000 N 
BRANCH  24  25
ATOM     25  C   UNL     1       0.290  11.339  19.827  0.00  0.00    +0.000 C 
ATOM     26  C   UNL     1       0.562  12.839  20.091  0.00  0.00    +0.000 C 
ATOM     27  C   UNL     1      -0.788  13.486  20.549  0.00  0.00    +0.000 C 
ATOM     28  N   UNL     1      -1.825  13.358  19.530  0.00  0.00    +0.000 NA
ATOM     29  C   UNL     1      -2.137  11.948  19.327  0.00  0.00    +0.000 C 
ATOM     30  C   UNL     1      -0.910  11.175  18.882  0.00  0.00    +0.000 C 
ATOM     31  H   UNL     1      -1.489  13.763  18.656  0.00  0.00    +0.000 HD
ENDBRANCH  24  25
ENDBRANCH   1  21
TORSDOF 3
ENDMDL
MODEL 7
REMARK VINA RESULT:      -7.9      3.775     10.142
REMARK  Name = 
REMARK  4 active torsions:
REMARK  status: ('A' for Active; 'I' for Inactive)
REMARK    1  A    between atoms: C_1  and  C_2
REMARK    2  A    between atoms: C_3  and  N_4
REMARK    3  A    between atoms: C_10  and  C_11
REMARK    4  A    between atoms: N_23  and  C_24
REMARK                            x       y       z     vdW  Elec       q    Type
REMARK                         _______ _______ _______ _____ _____    ______ ____
ROOT
ATOM      1  N   UNL     1       0.959  10.616  20.636  0.00  0.00    +0.000 N 
ATOM      2  C   UNL     1      -0.075  11.556  20.603  0.00  0.00    +0.000 A 
ATOM      3  N   UNL     1       0.066  12.646  21.407  0.00  0.00    +0.000 NA
ATOM      4  C   UNL     1      -0.923  13.542  21.453  0.00  0.00    +0.000 A 
ATOM      5  C   UNL     1      -2.104  13.379  20.678  0.00  0.00    +0.000 A 
ATOM      6 CL   UNL     1      -3.270  14.617  20.734  0.00  0.00    +0.000 Cl
ATOM      7  C   UNL     1      -2.193  12.165  19.934  0.00  0.00    +0.000 A 
ATOM      8  N   UNL     1      -1.164  11.286  19.866  0.00  0.00    +0.000 NA
ATOM      9  H   UNL     1       1.379  10.611  21.553  0.00  0.00    +0.000 HD
ENDROOT
BRANCH   7  10
ATOM     10  C   UNL     1      -3.326  11.942  19.018  0.00  0.00    +0.000 A 
ATOM     11  C   UNL     1      -3.209  11.589  17.710  0.00  0.00    +0.000 A 
ATOM     12  N   UNL     1      -4.365  11.516  17.006  0.00  0.00    +0.000 NA
ATOM     13  C   UNL     1      -5.261  11.762  17.933  0.00  0.00    +0.000 A 
ATOM     14  C   UNL     1      -6.655  11.767  17.824  0.00  0.00    +0.000 A 
ATOM     15  C   UNL     1      -7.411  12.121  18.864  0.00  0.00    +0.000 A 
ATOM     16  C   UNL     1      -7.075  12.070  20.300  0.00  0.00    +0.000 A 
ATOM     17  C   UNL     1      -5.702  12.172  20.346  0.00  0.00    +0.000 A 
ATOM     18  N   UNL     1      -4.755  11.978  19.219  0.00  0.00    +0.000 N 
ENDBRANCH   7  10
BRANCH   1  21
ATOM     19  C   UNL     1       1.484   7.577  20.900  0.00  0.00    +0.000 C 
ATOM     20  C   UNL     1       1.546   8.474  19.689  0.00  0.00    +0.000 A 
ATOM     21  C   UNL     1       1.326   9.828  19.604  0.00  0.00    +0.000 A 
ATOM     22  C   UNL     1       1.672  10.196  18.297  0.00  0.00    +0.000 A 
ATOM     23  N   UNL     1       2.026   9.156  17.541  0.00  0.00    +0.000 NA
ATOM     24  N   UNL     1       1.885   8.077  18.380  0.00  0.00    +0.000 N 
BRANCH  24  25
ATOM     25  C   UNL     1       2.599   6.828  18.115  0.00  0.00    +0.000 C 
ATOM     26  C   UNL     1       2.237   5.326  18.044  0.00  0.00    +0.000 C 
ATOM     27  C   UNL     1       3.484   4.521  18.542  0.00  0.00    +0.000 C 
ATOM     28  N   UNL     1       4.659   4.772  17.715  0.00  0.00    +0.000 NA
ATOM     29  C   UNL     1       5.048   6.173  17.832  0.00  0.00    +0.000 C 
ATOM     30  C   UNL     1       3.926   7.091  17.387  0.00  0.00    +0.000 C 
ATOM     31  H   UNL     1       4.437   4.560  16.741  0.00  0.00    +0.000 HD
ENDBRANCH  24  25
ENDBRANCH   1  21
TORSDOF 3
ENDMDL
MODEL 8
REMARK VINA RESULT:      -7.8      1.050      1.894
REMARK  Name = 
REMARK  4 active torsions:
REMARK  status: ('A' for Active; 'I' for Inactive)
REMARK    1  A    between atoms: C_1  and  C_2
REMARK    2  A    between atoms: C_3  and  N_4
REMARK    3  A    between atoms: C_10  and  C_11
REMARK    4  A    between atoms: N_23  and  C_24
REMARK                            x       y       z     vdW  Elec       q    Type
REMARK                         _______ _______ _______ _____ _____    ______ ____
ROOT
ATOM      1  N   UNL     1       1.699   6.684  21.047  0.00  0.00    +0.000 N 
ATOM      2  C   UNL     1       2.097   5.463  20.493  0.00  0.00    +0.000 A 
ATOM      3  N   UNL     1       1.610   4.338  21.084  0.00  0.00    +0.000 NA
ATOM      4  C   UNL     1       2.008   3.148  20.626  0.00  0.00    +0.000 A 
ATOM      5  C   UNL     1       2.918   3.042  19.539  0.00  0.00    +0.000 A 
ATOM      6 CL   UNL     1       3.299   1.486  18.967  0.00  0.00    +0.000 Cl
ATOM      7  C   UNL     1       3.436   4.276  19.043  0.00  0.00    +0.000 A 
ATOM      8  N   UNL     1       2.990   5.475  19.492  0.00  0.00    +0.000 NA
ATOM      9  H   UNL     1       1.543   6.568  22.037  0.00  0.00    +0.000 HD
ENDROOT
BRANCH   7  10
ATOM     10  C   UNL     1       4.305   4.287  17.853  0.00  0.00    +0.000 A 
ATOM     11  C   UNL     1       4.137   3.492  16.762  0.00  0.00    +0.000 A 
ATOM     12  N   UNL     1       5.092   3.585  15.804  0.00  0.00    +0.000 NA
ATOM     13  C   UNL     1       5.857   4.540  16.278  0.00  0.00    +0.000 A 
ATOM     14  C   UNL     1       6.986   5.126  15.698  0.00  0.00    +0.000 A 
ATOM     15  C   UNL     1       7.693   6.038  16.369  0.00  0.00    +0.000 A 
ATOM     16  C   UNL     1       7.246   6.918  17.465  0.00  0.00    +0.000 A 
ATOM     17  C   UNL     1       6.203   6.240  18.059  0.00  0.00    +0.000 A 
ATOM     18  N   UNL     1       5.448   5.093  17.495  0.00  0.00    +0.000 N 
ENDBRANCH   7  10
BRANCH   1  21
ATOM     19  C   UNL     1      -0.087   9.028  21.991  0.00  0.00    +0.000 C 
ATOM     20  C   UNL     1       0.790   8.903  20.770  0.00  0.00    +0.000 A 
ATOM     21  C   UNL     1       1.560   7.838  20.364  0.00  0.00    +0.000 A 
ATOM     22  C   UNL     1       2.039   8.170  19.090  0.00  0.00    +0.000 A 
ATOM     23  N   UNL     1       1.679   9.394  18.702  0.00  0.00    +0.000 NA
ATOM     24  N   UNL     1       0.961   9.879  19.768  0.00  0.00    +0.000 N 
BRANCH  24  25
ATOM     25  C   UNL     1       0.007  10.972  19.588  0.00  0.00    +0.000 C 
ATOM     26  C   UNL     1      -1.512  11.100  19.320  0.00  0.00    +0.000 C 
ATOM     27  C   UNL     1      -1.726  12.381  18.445  0.00  0.00    +0.000 C 
ATOM     28  N   UNL     1      -1.254  13.585  19.120  0.00  0.00    +0.000 NA
ATOM     29  C   UNL     1       0.189  13.502  19.313  0.00  0.00    +0.000 C 
ATOM     30  C   UNL     1       0.561  12.291  20.148  0.00  0.00    +0.000 C 
ATOM     31  H   UNL     1      -1.716  13.665  20.027  0.00  0.00    +0.000 HD
ENDBRANCH  24  25
ENDBRANCH   1  21
TORSDOF 3
ENDMDL
MODEL 9
REMARK VINA RESULT:      -7.7      1.153      1.240
REMARK  Name = 
REMARK  4 active torsions:
REMARK  status: ('A' for Active; 'I' for Inactive)
REMARK    1  A    between atoms: C_1  and  C_2
REMARK    2  A    between atoms: C_3  and  N_4
REMARK    3  A    between atoms: C_10  and  C_11
REMARK    4  A    between atoms: N_23  and  C_24
REMARK                            x       y       z     vdW  Elec       q    Type
REMARK                         _______ _______ _______ _____ _____    ______ ____
ROOT
ATOM      1  N   UNL     1       1.837   7.077  19.830  0.00  0.00    +0.000 N 
ATOM      2  C   UNL     1       2.475   5.953  19.299  0.00  0.00    +0.000 A 
ATOM      3  N   UNL     1       1.938   4.742  19.611  0.00  0.00    +0.000 NA
ATOM      4  C   UNL     1       2.547   3.637  19.174  0.00  0.00    +0.000 A 
ATOM      5  C   UNL     1       3.731   3.707  18.391  0.00  0.00    +0.000 A 
ATOM      6 CL   UNL     1       4.387   2.250  17.805  0.00  0.00    +0.000 Cl
ATOM      7  C   UNL     1       4.263   5.016  18.189  0.00  0.00    +0.000 A 
ATOM      8  N   UNL     1       3.610   6.128  18.604  0.00  0.00    +0.000 NA
ATOM      9  H   UNL     1       1.419   6.838  20.717  0.00  0.00    +0.000 HD
ENDROOT
BRANCH   7  10
ATOM     10  C   UNL     1       5.427   5.212  17.307  0.00  0.00    +0.000 A 
ATOM     11  C   UNL     1       6.587   5.819  17.675  0.00  0.00    +0.000 A 
ATOM     12  N   UNL     1       7.511   5.984  16.697  0.00  0.00    +0.000 NA
ATOM     13  C   UNL     1       6.936   5.385  15.680  0.00  0.00    +0.000 A 
ATOM     14  C   UNL     1       7.436   5.176  14.391  0.00  0.00    +0.000 A 
ATOM     15  C   UNL     1       6.671   4.612  13.455  0.00  0.00    +0.000 A 
ATOM     16  C   UNL     1       5.512   3.717  13.636  0.00  0.00    +0.000 A 
ATOM     17  C   UNL     1       5.004   4.042  14.875  0.00  0.00    +0.000 A 
ATOM     18  N   UNL     1       5.685   4.818  15.942  0.00  0.00    +0.000 N 
ENDBRANCH   7  10
BRANCH   1  21
ATOM     19  C   UNL     1       0.509   9.552  21.131  0.00  0.00    +0.000 C 
ATOM     20  C   UNL     1       1.234   9.415  19.815  0.00  0.00    +0.000 A 
ATOM     21  C   UNL     1       1.798   8.295  19.252  0.00  0.00    +0.000 A 
ATOM     22  C   UNL     1       2.192   8.668  17.960  0.00  0.00    +0.000 A 
ATOM     23  N   UNL     1       1.976   9.958  17.703  0.00  0.00    +0.000 NA
ATOM     24  N   UNL     1       1.444  10.441  18.874  0.00  0.00    +0.000 N 
BRANCH  24  25
ATOM     25  C   UNL     1       0.644  11.666  18.879  0.00  0.00    +0.000 C 
ATOM     26  C   UNL     1       0.927  13.187  18.893  0.00  0.00    +0.000 C 
ATOM     27  C   UNL     1      -0.228  13.870  19.701  0.00  0.00    +0.000 C 
ATOM     28  N   UNL     1      -1.532  13.629  19.093  0.00  0.00    +0.000 NA
ATOM     29  C   UNL     1      -1.836  12.203  19.139  0.00  0.00    +0.000 C 
ATOM     30  C   UNL     1      -0.789  11.396  18.396  0.00  0.00    +0.000 C 
ATOM     31  H   UNL     1      -1.513  13.943  18.122  0.00  0.00    +0.000 HD
ENDBRANCH  24  25
ENDBRANCH   1  21
TORSDOF 3
ENDMDL
