MODEL 1
REMARK VINA RESULT:      -8.7      0.000      0.000
REMARK  Name = 
REMARK  8 active torsions:
REMARK  status: ('A' for Active; 'I' for Inactive)
REMARK    1  A    between atoms: C_2  and  C_3
REMARK    2  A    between atoms: C_3  and  S_4
REMARK    3  A    between atoms: S_4  and  C_5
REMARK    4  A    between atoms: C_11  and  C_12
REMARK    5  A    between atoms: C_12  and  C_13
REMARK    6  A    between atoms: C_13  and  N_14
REMARK    7  A    between atoms: C_15  and  C_17
REMARK    8  A    between atoms: N_25  and  C_26
REMARK                            x       y       z     vdW  Elec       q    Type
REMARK                         _______ _______ _______ _____ _____    ______ ____
ROOT
ATOM      1  C   UNL     1       2.022   4.128  18.516  0.00  0.00    +0.000 A 
ATOM      2  C   UNL     1       1.561   3.661  19.851  0.00  0.00    +0.000 A 
ATOM      3  C   UNL     1       1.396   4.597  20.796  0.00  0.00    +0.000 A 
ATOM      4  C   UNL     1       1.625   5.950  20.466  0.00  0.00    +0.000 A 
ATOM      5  N   UNL     1       1.530   7.064  21.157  0.00  0.00    +0.000 NA
ATOM      6  N   UNL     1       1.843   8.108  20.312  0.00  0.00    +0.000 NA
ATOM      7  C   UNL     1       2.137   7.607  19.128  0.00  0.00    +0.000 A 
ATOM      8  N   UNL     1       2.016   6.239  19.174  0.00  0.00    +0.000 N 
ATOM      9  N   UNL     1       2.237   5.353  18.154  0.00  0.00    +0.000 NA
ENDROOT
BRANCH   1  10
ATOM     10  S   UNL     1       2.291   2.852  17.350  0.00  0.00    +0.000 S 
BRANCH  10  11
ATOM     11  C   UNL     1       4.007   2.427  17.814  0.00  0.00    +0.000 C 
BRANCH  11  13
ATOM     12  O   UNL     1       5.490   3.555  16.269  0.00  0.00    +0.000 OA
ATOM     13  C   UNL     1       5.001   3.509  17.395  0.00  0.00    +0.000 C 
ATOM     14  N   UNL     1       5.250   4.441  18.393  0.00  0.00    +0.000 N 
ATOM     15  H   UNL     1       4.666   4.433  19.225  0.00  0.00    +0.000 HD
BRANCH  14  16
ATOM     16  C   UNL     1       6.113   5.558  18.269  0.00  0.00    +0.000 A 
ATOM     17  C   UNL     1       7.302   5.700  18.994  0.00  0.00    +0.000 A 
ATOM     18  C   UNL     1       8.142   6.794  18.772  0.00  0.00    +0.000 A 
ATOM     19  C   UNL     1       7.793   7.752  17.829  0.00  0.00    +0.000 A 
ATOM     20  F   UNL     1       8.616   8.779  17.600  0.00  0.00    +0.000 F 
ATOM     21  C   UNL     1       6.601   7.656  17.123  0.00  0.00    +0.000 A 
ATOM     22  C   UNL     1       5.767   6.568  17.358  0.00  0.00    +0.000 A 
ATOM     23  F   UNL     1       4.622   6.465  16.663  0.00  0.00    +0.000 F 
ENDBRANCH  14  16
ENDBRANCH  11  13
ENDBRANCH  10  11
ENDBRANCH   1  10
BRANCH   7  24
ATOM     24  C   UNL     1       2.509   8.354  17.898  0.00  0.00    +0.000 C 
BRANCH  24  25
ATOM     25  C   UNL     1       2.071   9.815  17.983  0.00  0.00    +0.000 C 
BRANCH  25  26
ATOM     26  N   UNL     1       0.648   9.979  17.733  0.00  0.00    +0.000 N 
ATOM     27  C   UNL     1      -0.108  10.861  18.478  0.00  0.00    +0.000 C 
ATOM     28  O   UNL     1       0.374  11.610  19.321  0.00  0.00    +0.000 OA
ATOM     29  H   UNL     1       0.196   9.308  17.126  0.00  0.00    +0.000 HD
BRANCH  27  30
ATOM     30  C   UNL     1      -1.580  10.842  18.250  0.00  0.00    +0.000 A 
ATOM     31  C   UNL     1      -2.366  11.763  18.956  0.00  0.00    +0.000 A 
ATOM     32  C   UNL     1      -3.750  11.785  18.786  0.00  0.00    +0.000 A 
ATOM     33  C   UNL     1      -4.356  10.894  17.901  0.00  0.00    +0.000 A 
ATOM     34  C   UNL     1      -3.579   9.985  17.183  0.00  0.00    +0.000 A 
ATOM     35  C   UNL     1      -2.192   9.958  17.353  0.00  0.00    +0.000 A 
ENDBRANCH  27  30
ENDBRANCH  25  26
ENDBRANCH  24  25
ENDBRANCH   7  24
TORSDOF 8
ENDMDL
MODEL 2
REMARK VINA RESULT:      -8.6      2.955      8.570
REMARK  Name = 
REMARK  8 active torsions:
REMARK  status: ('A' for Active; 'I' for Inactive)
REMARK    1  A    between atoms: C_2  and  C_3
REMARK    2  A    between atoms: C_3  and  S_4
REMARK    3  A    between atoms: S_4  and  C_5
REMARK    4  A    between atoms: C_11  and  C_12
REMARK    5  A    between atoms: C_12  and  C_13
REMARK    6  A    between atoms: C_13  and  N_14
REMARK    7  A    between atoms: C_15  and  C_17
REMARK    8  A    between atoms: N_25  and  C_26
REMARK                            x       y       z     vdW  Elec       q    Type
REMARK                         _______ _______ _______ _____ _____    ______ ____
ROOT
ATOM      1  C   UNL     1       2.170   6.883  18.876  0.00  0.00    +0.000 A 
ATOM      2  C   UNL     1       1.800   7.154  20.290  0.00  0.00    +0.000 A 
ATOM      3  C   UNL     1       1.486   6.094  21.048  0.00  0.00    +0.000 A 
ATOM      4  C   UNL     1       1.560   4.803  20.483  0.00  0.00    +0.000 A 
ATOM      5  N   UNL     1       1.337   3.603  20.969  0.00  0.00    +0.000 NA
ATOM      6  N   UNL     1       1.600   2.691  19.971  0.00  0.00    +0.000 NA
ATOM      7  C   UNL     1       1.965   3.355  18.891  0.00  0.00    +0.000 A 
ATOM      8  N   UNL     1       1.953   4.702  19.163  0.00  0.00    +0.000 N 
ATOM      9  N   UNL     1       2.265   5.723  18.307  0.00  0.00    +0.000 NA
ENDROOT
BRANCH   1  10
ATOM     10  S   UNL     1       2.495   8.312  17.920  0.00  0.00    +0.000 S 
BRANCH  10  11
ATOM     11  C   UNL     1       1.921   9.567  19.117  0.00  0.00    +0.000 C 
BRANCH  11  13
ATOM     12  O   UNL     1       0.972  11.607  18.222  0.00  0.00    +0.000 OA
ATOM     13  C   UNL     1       0.799  10.434  18.548  0.00  0.00    +0.000 C 
ATOM     14  N   UNL     1      -0.401   9.752  18.400  0.00  0.00    +0.000 N 
ATOM     15  H   UNL     1      -0.405   8.742  18.520  0.00  0.00    +0.000 HD
BRANCH  14  16
ATOM     16  C   UNL     1      -1.595  10.306  17.879  0.00  0.00    +0.000 A 
ATOM     17  C   UNL     1      -2.084  10.020  16.598  0.00  0.00    +0.000 A 
ATOM     18  C   UNL     1      -3.306  10.547  16.171  0.00  0.00    +0.000 A 
ATOM     19  C   UNL     1      -4.040  11.363  17.022  0.00  0.00    +0.000 A 
ATOM     20  F   UNL     1      -5.223  11.837  16.618  0.00  0.00    +0.000 F 
ATOM     21  C   UNL     1      -3.562  11.693  18.282  0.00  0.00    +0.000 A 
ATOM     22  C   UNL     1      -2.339  11.172  18.694  0.00  0.00    +0.000 A 
ATOM     23  F   UNL     1      -1.884  11.477  19.921  0.00  0.00    +0.000 F 
ENDBRANCH  14  16
ENDBRANCH  11  13
ENDBRANCH  10  11
ENDBRANCH   1  10
BRANCH   7  24
ATOM     24  C   UNL     1       2.370   2.791  17.576  0.00  0.00    +0.000 C 
BRANCH  24  25
ATOM     25  C   UNL     1       3.843   2.386  17.576  0.00  0.00    +0.000 C 
BRANCH  25  26
ATOM     26  N   UNL     1       4.727   3.525  17.388  0.00  0.00    +0.000 N 
ATOM     27  C   UNL     1       5.420   4.071  18.449  0.00  0.00    +0.000 C 
ATOM     28  O   UNL     1       5.405   3.590  19.577  0.00  0.00    +0.000 OA
ATOM     29  H   UNL     1       4.684   4.014  16.503  0.00  0.00    +0.000 HD
BRANCH  27  30
ATOM     30  C   UNL     1       6.175   5.327  18.182  0.00  0.00    +0.000 A 
ATOM     31  C   UNL     1       7.368   5.538  18.888  0.00  0.00    +0.000 A 
ATOM     32  C   UNL     1       8.112   6.700  18.682  0.00  0.00    +0.000 A 
ATOM     33  C   UNL     1       7.673   7.653  17.764  0.00  0.00    +0.000 A 
ATOM     34  C   UNL     1       6.496   7.443  17.046  0.00  0.00    +0.000 A 
ATOM     35  C   UNL     1       5.746   6.281  17.252  0.00  0.00    +0.000 A 
ENDBRANCH  27  30
ENDBRANCH  25  26
ENDBRANCH  24  25
ENDBRANCH   7  24
TORSDOF 8
ENDMDL
MODEL 3
REMARK VINA RESULT:      -8.6      3.393      8.038
REMARK  Name = 
REMARK  8 active torsions:
REMARK  status: ('A' for Active; 'I' for Inactive)
REMARK    1  A    between atoms: C_2  and  C_3
REMARK    2  A    between atoms: C_3  and  S_4
REMARK    3  A    between atoms: S_4  and  C_5
REMARK    4  A    between atoms: C_11  and  C_12
REMARK    5  A    between atoms: C_12  and  C_13
REMARK    6  A    between atoms: C_13  and  N_14
REMARK    7  A    between atoms: C_15  and  C_17
REMARK    8  A    between atoms: N_25  and  C_26
REMARK                            x       y       z     vdW  Elec       q    Type
REMARK                         _______ _______ _______ _____ _____    ______ ____
ROOT
ATOM      1  C   UNL     1       2.282   7.023  18.813  0.00  0.00    +0.000 A 
ATOM      2  C   UNL     1       1.904   7.326  20.218  0.00  0.00    +0.000 A 
ATOM      3  C   UNL     1       1.543   6.288  20.985  0.00  0.00    +0.000 A 
ATOM      4  C   UNL     1       1.581   4.988  20.439  0.00  0.00    +0.000 A 
ATOM      5  N   UNL     1       1.311   3.802  20.938  0.00  0.00    +0.000 NA
ATOM      6  N   UNL     1       1.557   2.868  19.956  0.00  0.00    +0.000 NA
ATOM      7  C   UNL     1       1.959   3.504  18.872  0.00  0.00    +0.000 A 
ATOM      8  N   UNL     1       1.988   4.854  19.127  0.00  0.00    +0.000 N 
ATOM      9  N   UNL     1       2.346   5.853  18.261  0.00  0.00    +0.000 NA
ENDROOT
BRANCH   1  10
ATOM     10  S   UNL     1       2.669   8.427  17.843  0.00  0.00    +0.000 S 
BRANCH  10  11
ATOM     11  C   UNL     1       1.088   9.323  18.033  0.00  0.00    +0.000 C 
BRANCH  11  13
ATOM     12  O   UNL     1       1.134  10.746  19.991  0.00  0.00    +0.000 OA
ATOM     13  C   UNL     1       1.263  10.649  18.773  0.00  0.00    +0.000 C 
ATOM     14  N   UNL     1       1.623  11.699  17.940  0.00  0.00    +0.000 N 
ATOM     15  H   UNL     1       1.887  11.492  16.980  0.00  0.00    +0.000 HD
BRANCH  14  16
ATOM     16  C   UNL     1       1.869  13.028  18.363  0.00  0.00    +0.000 A 
ATOM     17  C   UNL     1       3.153  13.554  18.549  0.00  0.00    +0.000 A 
ATOM     18  C   UNL     1       3.326  14.895  18.901  0.00  0.00    +0.000 A 
ATOM     19  C   UNL     1       2.217  15.712  19.072  0.00  0.00    +0.000 A 
ATOM     20  F   UNL     1       2.392  17.001  19.378  0.00  0.00    +0.000 F 
ATOM     21  C   UNL     1       0.931  15.208  18.931  0.00  0.00    +0.000 A 
ATOM     22  C   UNL     1       0.769  13.869  18.591  0.00  0.00    +0.000 A 
ATOM     23  F   UNL     1      -0.475  13.385  18.437  0.00  0.00    +0.000 F 
ENDBRANCH  14  16
ENDBRANCH  11  13
ENDBRANCH  10  11
ENDBRANCH   1  10
BRANCH   7  24
ATOM     24  C   UNL     1       2.361   2.909  17.571  0.00  0.00    +0.000 C 
BRANCH  24  25
ATOM     25  C   UNL     1       3.827   2.478  17.589  0.00  0.00    +0.000 C 
BRANCH  25  26
ATOM     26  N   UNL     1       4.733   3.601  17.413  0.00  0.00    +0.000 N 
ATOM     27  C   UNL     1       5.440   4.119  18.479  0.00  0.00    +0.000 C 
ATOM     28  O   UNL     1       5.417   3.624  19.601  0.00  0.00    +0.000 OA
ATOM     29  H   UNL     1       4.699   4.102  16.535  0.00  0.00    +0.000 HD
BRANCH  27  30
ATOM     30  C   UNL     1       6.220   5.363  18.228  0.00  0.00    +0.000 A 
ATOM     31  C   UNL     1       7.402   5.555  18.956  0.00  0.00    +0.000 A 
ATOM     32  C   UNL     1       8.167   6.705  18.765  0.00  0.00    +0.000 A 
ATOM     33  C   UNL     1       7.762   7.665  17.838  0.00  0.00    +0.000 A 
ATOM     34  C   UNL     1       6.595   7.473  17.098  0.00  0.00    +0.000 A 
ATOM     35  C   UNL     1       5.824   6.323  17.289  0.00  0.00    +0.000 A 
ENDBRANCH  27  30
ENDBRANCH  25  26
ENDBRANCH  24  25
ENDBRANCH   7  24
TORSDOF 8
ENDMDL
MODEL 4
REMARK VINA RESULT:      -8.4      0.894      1.226
REMARK  Name = 
REMARK  8 active torsions:
REMARK  status: ('A' for Active; 'I' for Inactive)
REMARK    1  A    between atoms: C_2  and  C_3
REMARK    2  A    between atoms: C_3  and  S_4
REMARK    3  A    between atoms: S_4  and  C_5
REMARK    4  A    between atoms: C_11  and  C_12
REMARK    5  A    between atoms: C_12  and  C_13
REMARK    6  A    between atoms: C_13  and  N_14
REMARK    7  A    between atoms: C_15  and  C_17
REMARK    8  A    between atoms: N_25  and  C_26
REMARK                            x       y       z     vdW  Elec       q    Type
REMARK                         _______ _______ _______ _____ _____    ______ ____
ROOT
ATOM      1  C   UNL     1       2.251   3.932  18.551  0.00  0.00    +0.000 A 
ATOM      2  C   UNL     1       1.728   3.463  19.862  0.00  0.00    +0.000 A 
ATOM      3  C   UNL     1       1.466   4.404  20.780  0.00  0.00    +0.000 A 
ATOM      4  C   UNL     1       1.659   5.760  20.445  0.00  0.00    +0.000 A 
ATOM      5  N   UNL     1       1.476   6.879  21.111  0.00  0.00    +0.000 NA
ATOM      6  N   UNL     1       1.797   7.923  20.271  0.00  0.00    +0.000 NA
ATOM      7  C   UNL     1       2.184   7.420  19.115  0.00  0.00    +0.000 A 
ATOM      8  N   UNL     1       2.118   6.049  19.175  0.00  0.00    +0.000 N 
ATOM      9  N   UNL     1       2.438   5.159  18.184  0.00  0.00    +0.000 NA
ENDROOT
BRANCH   1  10
ATOM     10  S   UNL     1       2.645   2.653  17.424  0.00  0.00    +0.000 S 
BRANCH  10  11
ATOM     11  C   UNL     1       4.446   2.580  17.724  0.00  0.00    +0.000 C 
BRANCH  11  13
ATOM     12  O   UNL     1       5.215   4.104  16.008  0.00  0.00    +0.000 OA
ATOM     13  C   UNL     1       5.166   3.823  17.203  0.00  0.00    +0.000 C 
ATOM     14  N   UNL     1       5.709   4.607  18.211  0.00  0.00    +0.000 N 
ATOM     15  H   UNL     1       5.464   4.399  19.176  0.00  0.00    +0.000 HD
BRANCH  14  16
ATOM     16  C   UNL     1       6.411   5.821  18.013  0.00  0.00    +0.000 A 
ATOM     17  C   UNL     1       5.973   6.833  17.150  0.00  0.00    +0.000 A 
ATOM     18  C   UNL     1       6.677   8.036  17.054  0.00  0.00    +0.000 A 
ATOM     19  C   UNL     1       7.822   8.228  17.816  0.00  0.00    +0.000 A 
ATOM     20  F   UNL     1       8.473   9.394  17.741  0.00  0.00    +0.000 F 
ATOM     21  C   UNL     1       8.300   7.227  18.650  0.00  0.00    +0.000 A 
ATOM     22  C   UNL     1       7.598   6.029  18.732  0.00  0.00    +0.000 A 
ATOM     23  F   UNL     1       8.049   5.067  19.553  0.00  0.00    +0.000 F 
ENDBRANCH  14  16
ENDBRANCH  11  13
ENDBRANCH  10  11
ENDBRANCH   1  10
BRANCH   7  24
ATOM     24  C   UNL     1       2.602   8.166  17.898  0.00  0.00    +0.000 C 
BRANCH  24  25
ATOM     25  C   UNL     1       2.236   9.645  18.004  0.00  0.00    +0.000 C 
BRANCH  25  26
ATOM     26  N   UNL     1       0.839   9.892  17.686  0.00  0.00    +0.000 N 
ATOM     27  C   UNL     1       0.039  10.636  18.528  0.00  0.00    +0.000 C 
ATOM     28  O   UNL     1       0.463  11.199  19.532  0.00  0.00    +0.000 OA
ATOM     29  H   UNL     1       0.427   9.361  16.931  0.00  0.00    +0.000 HD
BRANCH  27  30
ATOM     30  C   UNL     1      -1.411  10.700  18.193  0.00  0.00    +0.000 A 
ATOM     31  C   UNL     1      -2.211  11.604  18.907  0.00  0.00    +0.000 A 
ATOM     32  C   UNL     1      -3.576  11.701  18.638  0.00  0.00    +0.000 A 
ATOM     33  C   UNL     1      -4.149  10.902  17.650  0.00  0.00    +0.000 A 
ATOM     34  C   UNL     1      -3.357  10.012  16.924  0.00  0.00    +0.000 A 
ATOM     35  C   UNL     1      -1.989   9.910  17.192  0.00  0.00    +0.000 A 
ENDBRANCH  27  30
ENDBRANCH  25  26
ENDBRANCH  24  25
ENDBRANCH   7  24
TORSDOF 8
ENDMDL
MODEL 5
REMARK VINA RESULT:      -8.4      1.049      1.568
REMARK  Name = 
REMARK  8 active torsions:
REMARK  status: ('A' for Active; 'I' for Inactive)
REMARK    1  A    between atoms: C_2  and  C_3
REMARK    2  A    between atoms: C_3  and  S_4
REMARK    3  A    between atoms: S_4  and  C_5
REMARK    4  A    between atoms: C_11  and  C_12
REMARK    5  A    between atoms: C_12  and  C_13
REMARK    6  A    between atoms: C_13  and  N_14
REMARK    7  A    between atoms: C_15  and  C_17
REMARK    8  A    between atoms: N_25  and  C_26
REMARK                            x       y       z     vdW  Elec       q    Type
REMARK                         _______ _______ _______ _____ _____    ______ ____
ROOT
ATOM      1  C   UNL     1       2.080   3.900  18.635  0.00  0.00    +0.000 A 
ATOM      2  C   UNL     1       1.591   3.476  19.974  0.00  0.00    +0.000 A 
ATOM      3  C   UNL     1       1.388   4.444  20.878  0.00  0.00    +0.000 A 
ATOM      4  C   UNL     1       1.606   5.786  20.504  0.00  0.00    +0.000 A 
ATOM      5  N   UNL     1       1.477   6.924  21.150  0.00  0.00    +0.000 NA
ATOM      6  N   UNL     1       1.796   7.940  20.275  0.00  0.00    +0.000 NA
ATOM      7  C   UNL     1       2.128   7.400  19.118  0.00  0.00    +0.000 A 
ATOM      8  N   UNL     1       2.027   6.033  19.213  0.00  0.00    +0.000 N 
ATOM      9  N   UNL     1       2.287   5.113  18.233  0.00  0.00    +0.000 NA
ENDROOT
BRANCH   1  10
ATOM     10  S   UNL     1       2.399   2.586  17.525  0.00  0.00    +0.000 S 
BRANCH  10  11
ATOM     11  C   UNL     1       4.099   2.190  18.064  0.00  0.00    +0.000 C 
BRANCH  11  13
ATOM     12  O   UNL     1       5.158   3.705  19.627  0.00  0.00    +0.000 OA
ATOM     13  C   UNL     1       4.883   3.441  18.459  0.00  0.00    +0.000 C 
ATOM     14  N   UNL     1       5.281   4.205  17.372  0.00  0.00    +0.000 N 
ATOM     15  H   UNL     1       5.172   3.819  16.437  0.00  0.00    +0.000 HD
BRANCH  14  16
ATOM     16  C   UNL     1       6.035   5.402  17.448  0.00  0.00    +0.000 A 
ATOM     17  C   UNL     1       5.535   6.655  17.073  0.00  0.00    +0.000 A 
ATOM     18  C   UNL     1       6.310   7.805  17.239  0.00  0.00    +0.000 A 
ATOM     19  C   UNL     1       7.587   7.706  17.775  0.00  0.00    +0.000 A 
ATOM     20  F   UNL     1       8.310   8.816  17.960  0.00  0.00    +0.000 F 
ATOM     21  C   UNL     1       8.122   6.473  18.121  0.00  0.00    +0.000 A 
ATOM     22  C   UNL     1       7.347   5.331  17.942  0.00  0.00    +0.000 A 
ATOM     23  F   UNL     1       7.856   4.139  18.292  0.00  0.00    +0.000 F 
ENDBRANCH  14  16
ENDBRANCH  11  13
ENDBRANCH  10  11
ENDBRANCH   1  10
BRANCH   7  24
ATOM     24  C   UNL     1       2.522   8.107  17.871  0.00  0.00    +0.000 C 
BRANCH  24  25
ATOM     25  C   UNL     1       2.159   9.589  17.936  0.00  0.00    +0.000 C 
BRANCH  25  26
ATOM     26  N   UNL     1       0.743   9.821  17.702  0.00  0.00    +0.000 N 
ATOM     27  C   UNL     1       0.044  10.754  18.440  0.00  0.00    +0.000 C 
ATOM     28  O   UNL     1       0.575  11.493  19.262  0.00  0.00    +0.000 OA
ATOM     29  H   UNL     1       0.249   9.164  17.115  0.00  0.00    +0.000 HD
BRANCH  27  30
ATOM     30  C   UNL     1      -1.430  10.806  18.233  0.00  0.00    +0.000 A 
ATOM     31  C   UNL     1      -1.992   9.931  17.293  0.00  0.00    +0.000 A 
ATOM     32  C   UNL     1      -3.367   9.941  17.054  0.00  0.00    +0.000 A 
ATOM     33  C   UNL     1      -4.189  10.820  17.759  0.00  0.00    +0.000 A 
ATOM     34  C   UNL     1      -3.639  11.683  18.707  0.00  0.00    +0.000 A 
ATOM     35  C   UNL     1      -2.262  11.677  18.947  0.00  0.00    +0.000 A 
ENDBRANCH  27  30
ENDBRANCH  25  26
ENDBRANCH  24  25
ENDBRANCH   7  24
TORSDOF 8
ENDMDL
MODEL 6
REMARK VINA RESULT:      -8.4      3.214      8.368
REMARK  Name = 
REMARK  8 active torsions:
REMARK  status: ('A' for Active; 'I' for Inactive)
REMARK    1  A    between atoms: C_2  and  C_3
REMARK    2  A    between atoms: C_3  and  S_4
REMARK    3  A    between atoms: S_4  and  C_5
REMARK    4  A    between atoms: C_11  and  C_12
REMARK    5  A    between atoms: C_12  and  C_13
REMARK    6  A    between atoms: C_13  and  N_14
REMARK    7  A    between atoms: C_15  and  C_17
REMARK    8  A    between atoms: N_25  and  C_26
REMARK                            x       y       z     vdW  Elec       q    Type
REMARK                         _______ _______ _______ _____ _____    ______ ____
ROOT
ATOM      1  C   UNL     1       2.407   6.793  18.857  0.00  0.00    +0.000 A 
ATOM      2  C   UNL     1       1.958   7.095  20.242  0.00  0.00    +0.000 A 
ATOM      3  C   UNL     1       1.496   6.066  20.967  0.00  0.00    +0.000 A 
ATOM      4  C   UNL     1       1.501   4.774  20.400  0.00  0.00    +0.000 A 
ATOM      5  N   UNL     1       1.138   3.598  20.861  0.00  0.00    +0.000 NA
ATOM      6  N   UNL     1       1.395   2.667  19.878  0.00  0.00    +0.000 NA
ATOM      7  C   UNL     1       1.896   3.296  18.833  0.00  0.00    +0.000 A 
ATOM      8  N   UNL     1       1.980   4.639  19.113  0.00  0.00    +0.000 N 
ATOM      9  N   UNL     1       2.443   5.630  18.289  0.00  0.00    +0.000 NA
ENDROOT
BRANCH   1  10
ATOM     10  S   UNL     1       2.926   8.188  17.938  0.00  0.00    +0.000 S 
BRANCH  10  11
ATOM     11  C   UNL     1       1.290   8.965  17.689  0.00  0.00    +0.000 C 
BRANCH  11  13
ATOM     12  O   UNL     1       1.635  11.068  18.838  0.00  0.00    +0.000 OA
ATOM     13  C   UNL     1       0.990  10.026  18.748  0.00  0.00    +0.000 C 
ATOM     14  N   UNL     1      -0.097   9.709  19.550  0.00  0.00    +0.000 N 
ATOM     15  H   UNL     1      -0.683   8.920  19.288  0.00  0.00    +0.000 HD
BRANCH  14  16
ATOM     16  C   UNL     1      -0.604  10.521  20.594  0.00  0.00    +0.000 A 
ATOM     17  C   UNL     1      -0.369  10.270  21.952  0.00  0.00    +0.000 A 
ATOM     18  C   UNL     1      -0.841  11.150  22.928  0.00  0.00    +0.000 A 
ATOM     19  C   UNL     1      -1.554  12.281  22.550  0.00  0.00    +0.000 A 
ATOM     20  F   UNL     1      -1.976  13.134  23.489  0.00  0.00    +0.000 F 
ATOM     21  C   UNL     1      -1.834  12.534  21.215  0.00  0.00    +0.000 A 
ATOM     22  C   UNL     1      -1.368  11.646  20.251  0.00  0.00    +0.000 A 
ATOM     23  F   UNL     1      -1.624  11.900  18.957  0.00  0.00    +0.000 F 
ENDBRANCH  14  16
ENDBRANCH  11  13
ENDBRANCH  10  11
ENDBRANCH   1  10
BRANCH   7  24
ATOM     24  C   UNL     1       2.347   2.699  17.548  0.00  0.00    +0.000 C 
BRANCH  24  25
ATOM     25  C   UNL     1       3.843   2.390  17.576  0.00  0.00    +0.000 C 
BRANCH  25  26
ATOM     26  N   UNL     1       4.641   3.556  17.914  0.00  0.00    +0.000 N 
ATOM     27  C   UNL     1       5.416   4.188  16.963  0.00  0.00    +0.000 C 
ATOM     28  O   UNL     1       5.415   3.869  15.779  0.00  0.00    +0.000 OA
ATOM     29  H   UNL     1       4.752   3.784  18.893  0.00  0.00    +0.000 HD
BRANCH  27  30
ATOM     30  C   UNL     1       6.314   5.275  17.443  0.00  0.00    +0.000 A 
ATOM     31  C   UNL     1       7.206   4.979  18.483  0.00  0.00    +0.000 A 
ATOM     32  C   UNL     1       8.065   5.962  18.975  0.00  0.00    +0.000 A 
ATOM     33  C   UNL     1       8.045   7.242  18.425  0.00  0.00    +0.000 A 
ATOM     34  C   UNL     1       7.172   7.541  17.379  0.00  0.00    +0.000 A 
ATOM     35  C   UNL     1       6.307   6.560  16.885  0.00  0.00    +0.000 A 
ENDBRANCH  27  30
ENDBRANCH  25  26
ENDBRANCH  24  25
ENDBRANCH   7  24
TORSDOF 8
ENDMDL
MODEL 7
REMARK VINA RESULT:      -8.2      1.482      1.934
REMARK  Name = 
REMARK  8 active torsions:
REMARK  status: ('A' for Active; 'I' for Inactive)
REMARK    1  A    between atoms: C_2  and  C_3
REMARK    2  A    between atoms: C_3  and  S_4
REMARK    3  A    between atoms: S_4  and  C_5
REMARK    4  A    between atoms: C_11  and  C_12
REMARK    5  A    between atoms: C_12  and  C_13
REMARK    6  A    between atoms: C_13  and  N_14
REMARK    7  A    between atoms: C_15  and  C_17
REMARK    8  A    between atoms: N_25  and  C_26
REMARK                            x       y       z     vdW  Elec       q    Type
REMARK                         _______ _______ _______ _____ _____    ______ ____
ROOT
ATOM      1  C   UNL     1       2.002   4.031  18.486  0.00  0.00    +0.000 A 
ATOM      2  C   UNL     1       1.405   3.500  19.740  0.00  0.00    +0.000 A 
ATOM      3  C   UNL     1       1.184   4.381  20.725  0.00  0.00    +0.000 A 
ATOM      4  C   UNL     1       1.485   5.742  20.507  0.00  0.00    +0.000 A 
ATOM      5  N   UNL     1       1.363   6.814  21.258  0.00  0.00    +0.000 NA
ATOM      6  N   UNL     1       1.786   7.895  20.515  0.00  0.00    +0.000 NA
ATOM      7  C   UNL     1       2.171   7.458  19.332  0.00  0.00    +0.000 A 
ATOM      8  N   UNL     1       2.003   6.095  19.277  0.00  0.00    +0.000 N 
ATOM      9  N   UNL     1       2.289   5.267  18.225  0.00  0.00    +0.000 NA
ENDROOT
BRANCH   1  10
ATOM     10  S   UNL     1       2.337   2.821  17.267  0.00  0.00    +0.000 S 
BRANCH  10  11
ATOM     11  C   UNL     1       3.867   2.133  17.991  0.00  0.00    +0.000 C 
BRANCH  11  13
ATOM     12  O   UNL     1       5.102   3.264  19.739  0.00  0.00    +0.000 OA
ATOM     13  C   UNL     1       4.778   3.224  18.555  0.00  0.00    +0.000 C 
ATOM     14  N   UNL     1       5.224   4.118  17.592  0.00  0.00    +0.000 N 
ATOM     15  H   UNL     1       5.057   3.903  16.612  0.00  0.00    +0.000 HD
BRANCH  14  16
ATOM     16  C   UNL     1       6.093   5.210  17.833  0.00  0.00    +0.000 A 
ATOM     17  C   UNL     1       7.165   5.160  18.733  0.00  0.00    +0.000 A 
ATOM     18  C   UNL     1       8.025   6.252  18.872  0.00  0.00    +0.000 A 
ATOM     19  C   UNL     1       7.814   7.397  18.115  0.00  0.00    +0.000 A 
ATOM     20  F   UNL     1       8.660   8.426  18.232  0.00  0.00    +0.000 F 
ATOM     21  C   UNL     1       6.738   7.488  17.244  0.00  0.00    +0.000 A 
ATOM     22  C   UNL     1       5.880   6.400  17.120  0.00  0.00    +0.000 A 
ATOM     23  F   UNL     1       4.849   6.480  16.264  0.00  0.00    +0.000 F 
ENDBRANCH  14  16
ENDBRANCH  11  13
ENDBRANCH  10  11
ENDBRANCH   1  10
BRANCH   7  24
ATOM     24  C   UNL     1       2.680   8.266  18.192  0.00  0.00    +0.000 C 
BRANCH  24  25
ATOM     25  C   UNL     1       1.545   9.014  17.494  0.00  0.00    +0.000 C 
BRANCH  25  26
ATOM     26  N   UNL     1       0.624   9.623  18.439  0.00  0.00    +0.000 N 
ATOM     27  C   UNL     1       0.864  10.879  18.958  0.00  0.00    +0.000 C 
ATOM     28  O   UNL     1       1.802  11.583  18.600  0.00  0.00    +0.000 OA
ATOM     29  H   UNL     1      -0.097   9.037  18.839  0.00  0.00    +0.000 HD
BRANCH  27  30
ATOM     30  C   UNL     1      -0.055  11.348  20.033  0.00  0.00    +0.000 A 
ATOM     31  C   UNL     1      -1.281  11.909  19.650  0.00  0.00    +0.000 A 
ATOM     32  C   UNL     1      -2.177  12.370  20.615  0.00  0.00    +0.000 A 
ATOM     33  C   UNL     1      -1.856  12.266  21.968  0.00  0.00    +0.000 A 
ATOM     34  C   UNL     1      -0.645  11.695  22.357  0.00  0.00    +0.000 A 
ATOM     35  C   UNL     1       0.257  11.234  21.393  0.00  0.00    +0.000 A 
ENDBRANCH  27  30
ENDBRANCH  25  26
ENDBRANCH  24  25
ENDBRANCH   7  24
TORSDOF 8
ENDMDL
MODEL 8
REMARK VINA RESULT:      -8.2      3.280      8.227
REMARK  Name = 
REMARK  8 active torsions:
REMARK  status: ('A' for Active; 'I' for Inactive)
REMARK    1  A    between atoms: C_2  and  C_3
REMARK    2  A    between atoms: C_3  and  S_4
REMARK    3  A    between atoms: S_4  and  C_5
REMARK    4  A    between atoms: C_11  and  C_12
REMARK    5  A    between atoms: C_12  and  C_13
REMARK    6  A    between atoms: C_13  and  N_14
REMARK    7  A    between atoms: C_15  and  C_17
REMARK    8  A    between atoms: N_25  and  C_26
REMARK                            x       y       z     vdW  Elec       q    Type
REMARK                         _______ _______ _______ _____ _____    ______ ____
ROOT
ATOM      1  C   UNL     1       2.218   7.221  18.976  0.00  0.00    +0.000 A 
ATOM      2  C   UNL     1       1.877   7.392  20.414  0.00  0.00    +0.000 A 
ATOM      3  C   UNL     1       1.568   6.281  21.098  0.00  0.00    +0.000 A 
ATOM      4  C   UNL     1       1.622   5.035  20.441  0.00  0.00    +0.000 A 
ATOM      5  N   UNL     1       1.398   3.803  20.844  0.00  0.00    +0.000 NA
ATOM      6  N   UNL     1       1.636   2.964  19.777  0.00  0.00    +0.000 NA
ATOM      7  C   UNL     1       1.986   3.702  18.741  0.00  0.00    +0.000 A 
ATOM      8  N   UNL     1       1.990   5.026  19.110  0.00  0.00    +0.000 N 
ATOM      9  N   UNL     1       2.294   6.105  18.324  0.00  0.00    +0.000 NA
ENDROOT
BRANCH   1  10
ATOM     10  S   UNL     1       2.537   8.713  18.120  0.00  0.00    +0.000 S 
BRANCH  10  11
ATOM     11  C   UNL     1       0.834   9.066  17.560  0.00  0.00    +0.000 C 
BRANCH  11  13
ATOM     12  O   UNL     1      -0.836  10.744  18.065  0.00  0.00    +0.000 OA
ATOM     13  C   UNL     1       0.141  10.103  18.444  0.00  0.00    +0.000 C 
ATOM     14  N   UNL     1       0.699  10.206  19.710  0.00  0.00    +0.000 N 
ATOM     15  H   UNL     1       1.383   9.511  20.000  0.00  0.00    +0.000 HD
BRANCH  14  16
ATOM     16  C   UNL     1       0.243  11.070  20.735  0.00  0.00    +0.000 A 
ATOM     17  C   UNL     1       0.442  12.457  20.721  0.00  0.00    +0.000 A 
ATOM     18  C   UNL     1      -0.095  13.260  21.730  0.00  0.00    +0.000 A 
ATOM     19  C   UNL     1      -0.828  12.680  22.757  0.00  0.00    +0.000 A 
ATOM     20  F   UNL     1      -1.364  13.459  23.701  0.00  0.00    +0.000 F 
ATOM     21  C   UNL     1      -1.008  11.305  22.816  0.00  0.00    +0.000 A 
ATOM     22  C   UNL     1      -0.461  10.512  21.812  0.00  0.00    +0.000 A 
ATOM     23  F   UNL     1      -0.651   9.183  21.859  0.00  0.00    +0.000 F 
ENDBRANCH  14  16
ENDBRANCH  11  13
ENDBRANCH  10  11
ENDBRANCH   1  10
BRANCH   7  24
ATOM     24  C   UNL     1       2.362   3.232  17.381  0.00  0.00    +0.000 C 
BRANCH  24  25
ATOM     25  C   UNL     1       3.816   2.766  17.338  0.00  0.00    +0.000 C 
BRANCH  25  26
ATOM     26  N   UNL     1       4.748   3.878  17.244  0.00  0.00    +0.000 N 
ATOM     27  C   UNL     1       5.517   4.256  18.326  0.00  0.00    +0.000 C 
ATOM     28  O   UNL     1       5.528   3.640  19.387  0.00  0.00    +0.000 OA
ATOM     29  H   UNL     1       4.690   4.474  16.429  0.00  0.00    +0.000 HD
BRANCH  27  30
ATOM     30  C   UNL     1       6.323   5.499  18.176  0.00  0.00    +0.000 A 
ATOM     31  C   UNL     1       5.854   6.483  17.295  0.00  0.00    +0.000 A 
ATOM     32  C   UNL     1       6.572   7.665  17.111  0.00  0.00    +0.000 A 
ATOM     33  C   UNL     1       7.758   7.874  17.813  0.00  0.00    +0.000 A 
ATOM     34  C   UNL     1       8.223   6.907  18.704  0.00  0.00    +0.000 A 
ATOM     35  C   UNL     1       7.507   5.720  18.889  0.00  0.00    +0.000 A 
ENDBRANCH  27  30
ENDBRANCH  25  26
ENDBRANCH  24  25
ENDBRANCH   7  24
TORSDOF 8
ENDMDL
MODEL 9
REMARK VINA RESULT:      -8.2      3.759      8.268
REMARK  Name = 
REMARK  8 active torsions:
REMARK  status: ('A' for Active; 'I' for Inactive)
REMARK    1  A    between atoms: C_2  and  C_3
REMARK    2  A    between atoms: C_3  and  S_4
REMARK    3  A    between atoms: S_4  and  C_5
REMARK    4  A    between atoms: C_11  and  C_12
REMARK    5  A    between atoms: C_12  and  C_13
REMARK    6  A    between atoms: C_13  and  N_14
REMARK    7  A    between atoms: C_15  and  C_17
REMARK    8  A    between atoms: N_25  and  C_26
REMARK                            x       y       z     vdW  Elec       q    Type
REMARK                         _______ _______ _______ _____ _____    ______ ____
ROOT
ATOM      1  C   UNL     1       4.895   3.668  17.265  0.00  0.00    +0.000 A 
ATOM      2  C   UNL     1       4.950   3.003  15.936  0.00  0.00    +0.000 A 
ATOM      3  C   UNL     1       5.768   3.544  15.022  0.00  0.00    +0.000 A 
ATOM      4  C   UNL     1       6.545   4.667  15.377  0.00  0.00    +0.000 A 
ATOM      5  N   UNL     1       7.427   5.386  14.719  0.00  0.00    +0.000 NA
ATOM      6  N   UNL     1       7.904   6.352  15.578  0.00  0.00    +0.000 NA
ATOM      7  C   UNL     1       7.292   6.212  16.739  0.00  0.00    +0.000 A 
ATOM      8  N   UNL     1       6.415   5.157  16.662  0.00  0.00    +0.000 N 
ATOM      9  N   UNL     1       5.590   4.691  17.650  0.00  0.00    +0.000 NA
ENDROOT
BRANCH   1  10
ATOM     10  S   UNL     1       3.755   2.961  18.387  0.00  0.00    +0.000 S 
BRANCH  10  11
ATOM     11  C   UNL     1       3.736   4.305  19.626  0.00  0.00    +0.000 C 
BRANCH  11  13
ATOM     12  O   UNL     1       1.631   5.050  18.691  0.00  0.00    +0.000 OA
ATOM     13  C   UNL     1       2.630   5.323  19.353  0.00  0.00    +0.000 C 
ATOM     14  N   UNL     1       2.852   6.551  19.961  0.00  0.00    +0.000 N 
ATOM     15  H   UNL     1       3.606   6.631  20.638  0.00  0.00    +0.000 HD
BRANCH  14  16
ATOM     16  C   UNL     1       1.980   7.665  19.890  0.00  0.00    +0.000 A 
ATOM     17  C   UNL     1       1.163   8.075  20.951  0.00  0.00    +0.000 A 
ATOM     18  C   UNL     1       0.378   9.225  20.838  0.00  0.00    +0.000 A 
ATOM     19  C   UNL     1       0.405   9.967  19.664  0.00  0.00    +0.000 A 
ATOM     20  F   UNL     1      -0.325  11.083  19.576  0.00  0.00    +0.000 F 
ATOM     21  C   UNL     1       1.178   9.563  18.584  0.00  0.00    +0.000 A 
ATOM     22  C   UNL     1       1.948   8.410  18.702  0.00  0.00    +0.000 A 
ATOM     23  F   UNL     1       2.709   8.029  17.663  0.00  0.00    +0.000 F 
ENDBRANCH  14  16
ENDBRANCH  11  13
ENDBRANCH  10  11
ENDBRANCH   1  10
BRANCH   7  24
ATOM     24  C   UNL     1       7.501   7.013  17.974  0.00  0.00    +0.000 C 
BRANCH  24  25
ATOM     25  C   UNL     1       7.433   8.511  17.680  0.00  0.00    +0.000 C 
BRANCH  25  26
ATOM     26  N   UNL     1       8.535   9.241  18.283  0.00  0.00    +0.000 N 
ATOM     27  C   UNL     1       8.698  10.594  18.063  0.00  0.00    +0.000 C 
ATOM     28  O   UNL     1       7.894  11.270  17.431  0.00  0.00    +0.000 OA
ATOM     29  H   UNL     1       9.274   8.705  18.718  0.00  0.00    +0.000 HD
BRANCH  27  30
ATOM     30  C   UNL     1       9.941  11.216  18.596  0.00  0.00    +0.000 A 
ATOM     31  C   UNL     1      10.093  11.293  19.988  0.00  0.00    +0.000 A 
ATOM     32  C   UNL     1      11.234  11.872  20.542  0.00  0.00    +0.000 A 
ATOM     33  C   UNL     1      12.236  12.369  19.709  0.00  0.00    +0.000 A 
ATOM     34  C   UNL     1      12.100  12.282  18.323  0.00  0.00    +0.000 A 
ATOM     35  C   UNL     1      10.956  11.705  17.764  0.00  0.00    +0.000 A 
ENDBRANCH  27  30
ENDBRANCH  25  26
ENDBRANCH  24  25
ENDBRANCH   7  24
TORSDOF 8
ENDMDL
