MODEL 1
REMARK VINA RESULT:      -7.7      0.000      0.000
REMARK  Name = 
REMARK  4 active torsions:
REMARK  status: ('A' for Active; 'I' for Inactive)
REMARK    1  A    between atoms: C_1  and  S_2
REMARK    2  A    between atoms: S_2  and  N_5
REMARK    3  A    between atoms: N_8  and  C_9
REMARK    4  A    between atoms: C_9  and  N_10
REMARK                            x       y       z     vdW  Elec       q    Type
REMARK                         _______ _______ _______ _____ _____    ______ ____
ROOT
ATOM      1  N   UNL     1       1.867   6.319  20.347  0.00  0.00    +0.000 N 
ATOM      2  C   UNL     1       2.144   5.007  20.631  0.00  0.00    +0.000 A 
ATOM      3  C   UNL     1       3.160   4.652  19.776  0.00  0.00    +0.000 A 
ATOM      4  C   UNL     1       3.939   3.442  19.680  0.00  0.00    +0.000 A 
ATOM      5  O   UNL     1       3.839   2.504  20.461  0.00  0.00    +0.000 OA
ATOM      6  O   UNL     1       4.866   3.423  18.615  0.00  0.00    +0.000 OA
ATOM      7  C   UNL     1       4.989   4.492  17.681  0.00  0.00    +0.000 A 
ATOM      8  C   UNL     1       5.857   4.286  16.611  0.00  0.00    +0.000 A 
ATOM      9  C   UNL     1       5.984   5.282  15.645  0.00  0.00    +0.000 A 
ATOM     10  C   UNL     1       5.258   6.473  15.762  0.00  0.00    +0.000 A 
ATOM     11  C   UNL     1       4.396   6.677  16.846  0.00  0.00    +0.000 A 
ATOM     12  C   UNL     1       4.254   5.681  17.810  0.00  0.00    +0.000 A 
ATOM     13  C   UNL     1       3.331   5.754  18.921  0.00  0.00    +0.000 A 
ATOM     14  N   UNL     1       2.555   6.789  19.271  0.00  0.00    +0.000 NA
ENDROOT
BRANCH   1  15
ATOM     15  C   UNL     1       0.988   7.216  21.114  0.00  0.00    +0.000 C 
BRANCH  15  19
ATOM     16  N   UNL     1      -0.638  10.522  21.759  0.00  0.00    +0.000 NA
ATOM     17  C   UNL     1      -0.533   9.900  20.402  0.00  0.00    +0.000 C 
ATOM     18  C   UNL     1       0.916   9.461  20.088  0.00  0.00    +0.000 C 
ATOM     19  N   UNL     1       1.544   8.584  21.109  0.00  0.00    +0.000 NA
ATOM     20  C   UNL     1       1.409   9.238  22.432  0.00  0.00    +0.000 C 
ATOM     21  C   UNL     1      -0.031   9.645  22.805  0.00  0.00    +0.000 C 
BRANCH  16  23
ATOM     22  C   UNL     1      -1.400  12.876  20.665  0.00  0.00    +0.000 C 
ATOM     23  S   UNL     1      -0.272  12.184  21.859  0.00  0.00    +0.000 S 
ATOM     24  O   UNL     1       1.075  12.387  21.374  0.00  0.00    +0.000 OA
ATOM     25  O   UNL     1      -0.684  12.664  23.159  0.00  0.00    +0.000 OA
ENDBRANCH  16  23
ENDBRANCH  15  19
ENDBRANCH   1  15
TORSDOF 3
ENDMDL
MODEL 2
REMARK VINA RESULT:      -7.7      1.324      1.754
REMARK  Name = 
REMARK  4 active torsions:
REMARK  status: ('A' for Active; 'I' for Inactive)
REMARK    1  A    between atoms: C_1  and  S_2
REMARK    2  A    between atoms: S_2  and  N_5
REMARK    3  A    between atoms: N_8  and  C_9
REMARK    4  A    between atoms: C_9  and  N_10
REMARK                            x       y       z     vdW  Elec       q    Type
REMARK                         _______ _______ _______ _____ _____    ______ ____
ROOT
ATOM      1  N   UNL     1       1.945   7.045  20.463  0.00  0.00    +0.000 N 
ATOM      2  C   UNL     1       1.554   5.733  20.529  0.00  0.00    +0.000 A 
ATOM      3  C   UNL     1       2.322   5.073  19.599  0.00  0.00    +0.000 A 
ATOM      4  C   UNL     1       2.440   3.669  19.291  0.00  0.00    +0.000 A 
ATOM      5  O   UNL     1       1.869   2.784  19.916  0.00  0.00    +0.000 OA
ATOM      6  O   UNL     1       3.299   3.375  18.210  0.00  0.00    +0.000 OA
ATOM      7  C   UNL     1       3.959   4.385  17.453  0.00  0.00    +0.000 A 
ATOM      8  C   UNL     1       4.679   3.957  16.339  0.00  0.00    +0.000 A 
ATOM      9  C   UNL     1       5.309   4.908  15.538  0.00  0.00    +0.000 A 
ATOM     10  C   UNL     1       5.229   6.267  15.863  0.00  0.00    +0.000 A 
ATOM     11  C   UNL     1       4.514   6.688  16.990  0.00  0.00    +0.000 A 
ATOM     12  C   UNL     1       3.869   5.745  17.789  0.00  0.00    +0.000 A 
ATOM     13  C   UNL     1       3.037   6.077  18.924  0.00  0.00    +0.000 A 
ATOM     14  N   UNL     1       2.826   7.290  19.455  0.00  0.00    +0.000 NA
ENDROOT
BRANCH   1  15
ATOM     15  C   UNL     1       1.558   8.122  21.388  0.00  0.00    +0.000 C 
BRANCH  15  19
ATOM     16  N   UNL     1      -0.185  11.289  22.349  0.00  0.00    +0.000 NA
ATOM     17  C   UNL     1      -0.311  10.008  23.112  0.00  0.00    +0.000 C 
ATOM     18  C   UNL     1      -0.671   8.825  22.183  0.00  0.00    +0.000 C 
ATOM     19  N   UNL     1       0.228   8.645  21.016  0.00  0.00    +0.000 NA
ATOM     20  C   UNL     1       0.326   9.938  20.298  0.00  0.00    +0.000 C 
ATOM     21  C   UNL     1       0.733  11.135  21.180  0.00  0.00    +0.000 C 
BRANCH  16  23
ATOM     22  C   UNL     1      -1.115  13.828  22.345  0.00  0.00    +0.000 C 
ATOM     23  S   UNL     1      -1.632  12.146  22.066  0.00  0.00    +0.000 S 
ATOM     24  O   UNL     1      -2.583  11.791  23.096  0.00  0.00    +0.000 OA
ATOM     25  O   UNL     1      -1.963  12.031  20.664  0.00  0.00    +0.000 OA
ENDBRANCH  16  23
ENDBRANCH  15  19
ENDBRANCH   1  15
TORSDOF 3
ENDMDL
MODEL 3
REMARK VINA RESULT:      -7.7      2.948      8.426
REMARK  Name = 
REMARK  4 active torsions:
REMARK  status: ('A' for Active; 'I' for Inactive)
REMARK    1  A    between atoms: C_1  and  S_2
REMARK    2  A    between atoms: S_2  and  N_5
REMARK    3  A    between atoms: N_8  and  C_9
REMARK    4  A    between atoms: C_9  and  N_10
REMARK                            x       y       z     vdW  Elec       q    Type
REMARK                         _______ _______ _______ _____ _____    ______ ____
ROOT
ATOM      1  N   UNL     1       2.003   8.536  18.565  0.00  0.00    +0.000 N 
ATOM      2  C   UNL     1       2.000   9.760  17.948  0.00  0.00    +0.000 A 
ATOM      3  C   UNL     1       1.462  10.633  18.866  0.00  0.00    +0.000 A 
ATOM      4  C   UNL     1       1.307  12.066  18.832  0.00  0.00    +0.000 A 
ATOM      5  O   UNL     1       1.729  12.776  17.928  0.00  0.00    +0.000 OA
ATOM      6  O   UNL     1       0.640  12.610  19.952  0.00  0.00    +0.000 OA
ATOM      7  C   UNL     1       0.121  11.805  21.006  0.00  0.00    +0.000 A 
ATOM      8  C   UNL     1      -0.619  12.465  21.985  0.00  0.00    +0.000 A 
ATOM      9  C   UNL     1      -1.186  11.720  23.018  0.00  0.00    +0.000 A 
ATOM     10  C   UNL     1      -0.998  10.334  23.071  0.00  0.00    +0.000 A 
ATOM     11  C   UNL     1      -0.244   9.680  22.090  0.00  0.00    +0.000 A 
ATOM     12  C   UNL     1       0.316  10.416  21.047  0.00  0.00    +0.000 A 
ATOM     13  C   UNL     1       1.040   9.831  19.940  0.00  0.00    +0.000 A 
ATOM     14  N   UNL     1       1.380   8.545  19.774  0.00  0.00    +0.000 NA
ENDROOT
BRANCH   1  15
ATOM     15  C   UNL     1       2.651   7.309  18.074  0.00  0.00    +0.000 C 
BRANCH  15  19
ATOM     16  N   UNL     1       4.218   3.982  18.756  0.00  0.00    +0.000 NA
ATOM     17  C   UNL     1       3.340   4.260  17.576  0.00  0.00    +0.000 C 
ATOM     18  C   UNL     1       2.011   4.925  18.000  0.00  0.00    +0.000 C 
ATOM     19  N   UNL     1       2.155   6.144  18.835  0.00  0.00    +0.000 NA
ATOM     20  C   UNL     1       3.035   5.823  19.983  0.00  0.00    +0.000 C 
ATOM     21  C   UNL     1       4.394   5.203  19.599  0.00  0.00    +0.000 C 
BRANCH  16  23
ATOM     22  C   UNL     1       3.509   1.421  18.253  0.00  0.00    +0.000 C 
ATOM     23  S   UNL     1       3.927   2.523  19.589  0.00  0.00    +0.000 S 
ATOM     24  O   UNL     1       2.752   2.694  20.415  0.00  0.00    +0.000 OA
ATOM     25  O   UNL     1       5.177   2.059  20.147  0.00  0.00    +0.000 OA
ENDBRANCH  16  23
ENDBRANCH  15  19
ENDBRANCH   1  15
TORSDOF 3
ENDMDL
MODEL 4
REMARK VINA RESULT:      -7.6      3.062      8.462
REMARK  Name = 
REMARK  4 active torsions:
REMARK  status: ('A' for Active; 'I' for Inactive)
REMARK    1  A    between atoms: C_1  and  S_2
REMARK    2  A    between atoms: S_2  and  N_5
REMARK    3  A    between atoms: N_8  and  C_9
REMARK    4  A    between atoms: C_9  and  N_10
REMARK                            x       y       z     vdW  Elec       q    Type
REMARK                         _______ _______ _______ _____ _____    ______ ____
ROOT
ATOM      1  N   UNL     1       2.102   8.300  18.643  0.00  0.00    +0.000 N 
ATOM      2  C   UNL     1       2.074   9.509  17.997  0.00  0.00    +0.000 A 
ATOM      3  C   UNL     1       1.521  10.392  18.894  0.00  0.00    +0.000 A 
ATOM      4  C   UNL     1       1.337  11.820  18.828  0.00  0.00    +0.000 A 
ATOM      5  O   UNL     1       1.745  12.517  17.906  0.00  0.00    +0.000 OA
ATOM      6  O   UNL     1       0.662  12.378  19.935  0.00  0.00    +0.000 OA
ATOM      7  C   UNL     1       0.159  11.589  21.009  0.00  0.00    +0.000 A 
ATOM      8  C   UNL     1      -0.592  12.257  21.973  0.00  0.00    +0.000 A 
ATOM      9  C   UNL     1      -1.144  11.526  23.024  0.00  0.00    +0.000 A 
ATOM     10  C   UNL     1      -0.928  10.146  23.110  0.00  0.00    +0.000 A 
ATOM     11  C   UNL     1      -0.163   9.483  22.143  0.00  0.00    +0.000 A 
ATOM     12  C   UNL     1       0.381  10.204  21.082  0.00  0.00    +0.000 A 
ATOM     13  C   UNL     1       1.115   9.608  19.988  0.00  0.00    +0.000 A 
ATOM     14  N   UNL     1       1.480   8.326  19.853  0.00  0.00    +0.000 NA
ENDROOT
BRANCH   1  15
ATOM     15  C   UNL     1       2.773   7.074  18.180  0.00  0.00    +0.000 C 
BRANCH  15  19
ATOM     16  N   UNL     1       3.909   3.512  18.291  0.00  0.00    +0.000 NA
ATOM     17  C   UNL     1       2.932   4.041  17.288  0.00  0.00    +0.000 C 
ATOM     18  C   UNL     1       1.785   4.821  17.969  0.00  0.00    +0.000 C 
ATOM     19  N   UNL     1       2.217   5.903  18.889  0.00  0.00    +0.000 NA
ATOM     20  C   UNL     1       3.186   5.335  19.856  0.00  0.00    +0.000 C 
ATOM     21  C   UNL     1       4.375   4.592  19.214  0.00  0.00    +0.000 C 
BRANCH  16  23
ATOM     22  C   UNL     1       4.635   1.984  20.401  0.00  0.00    +0.000 C 
ATOM     23  S   UNL     1       3.521   2.017  19.011  0.00  0.00    +0.000 S 
ATOM     24  O   UNL     1       3.903   0.958  18.103  0.00  0.00    +0.000 OA
ATOM     25  O   UNL     1       2.180   2.103  19.545  0.00  0.00    +0.000 OA
ENDBRANCH  16  23
ENDBRANCH  15  19
ENDBRANCH   1  15
TORSDOF 3
ENDMDL
MODEL 5
REMARK VINA RESULT:      -7.5      1.859      3.656
REMARK  Name = 
REMARK  4 active torsions:
REMARK  status: ('A' for Active; 'I' for Inactive)
REMARK    1  A    between atoms: C_1  and  S_2
REMARK    2  A    between atoms: S_2  and  N_5
REMARK    3  A    between atoms: N_8  and  C_9
REMARK    4  A    between atoms: C_9  and  N_10
REMARK                            x       y       z     vdW  Elec       q    Type
REMARK                         _______ _______ _______ _____ _____    ______ ____
ROOT
ATOM      1  N   UNL     1       2.240   8.343  18.562  0.00  0.00    +0.000 N 
ATOM      2  C   UNL     1       3.200   7.881  17.699  0.00  0.00    +0.000 A 
ATOM      3  C   UNL     1       3.365   6.552  18.011  0.00  0.00    +0.000 A 
ATOM      4  C   UNL     1       4.150   5.520  17.380  0.00  0.00    +0.000 A 
ATOM      5  O   UNL     1       4.786   5.685  16.346  0.00  0.00    +0.000 OA
ATOM      6  O   UNL     1       4.116   4.271  18.037  0.00  0.00    +0.000 OA
ATOM      7  C   UNL     1       3.402   4.058  19.251  0.00  0.00    +0.000 A 
ATOM      8  C   UNL     1       3.555   2.810  19.851  0.00  0.00    +0.000 A 
ATOM      9  C   UNL     1       2.913   2.562  21.063  0.00  0.00    +0.000 A 
ATOM     10  C   UNL     1       2.116   3.550  21.653  0.00  0.00    +0.000 A 
ATOM     11  C   UNL     1       1.958   4.798  21.038  0.00  0.00    +0.000 A 
ATOM     12  C   UNL     1       2.608   5.059  19.833  0.00  0.00    +0.000 A 
ATOM     13  C   UNL     1       2.579   6.337  19.157  0.00  0.00    +0.000 A 
ATOM     14  N   UNL     1       1.873   7.424  19.495  0.00  0.00    +0.000 NA
ENDROOT
BRANCH   1  15
ATOM     15  C   UNL     1       1.573   9.654  18.510  0.00  0.00    +0.000 C 
BRANCH  15  19
ATOM     16  N   UNL     1      -0.501  12.505  19.758  0.00  0.00    +0.000 NA
ATOM     17  C   UNL     1       0.768  12.054  20.411  0.00  0.00    +0.000 C 
ATOM     18  C   UNL     1       0.763  10.531  20.671  0.00  0.00    +0.000 C 
ATOM     19  N   UNL     1       0.464   9.689  19.485  0.00  0.00    +0.000 NA
ATOM     20  C   UNL     1      -0.793  10.177  18.871  0.00  0.00    +0.000 C 
ATOM     21  C   UNL     1      -0.809  11.685  18.548  0.00  0.00    +0.000 C 
BRANCH  16  23
ATOM     22  C   UNL     1      -1.758  14.618  20.886  0.00  0.00    +0.000 C 
ATOM     23  S   UNL     1      -1.810  12.839  20.799  0.00  0.00    +0.000 S 
ATOM     24  O   UNL     1      -1.497  12.316  22.110  0.00  0.00    +0.000 OA
ATOM     25  O   UNL     1      -3.035  12.483  20.119  0.00  0.00    +0.000 OA
ENDBRANCH  16  23
ENDBRANCH  15  19
ENDBRANCH   1  15
TORSDOF 3
ENDMDL
MODEL 6
REMARK VINA RESULT:      -7.5      3.198      8.333
REMARK  Name = 
REMARK  4 active torsions:
REMARK  status: ('A' for Active; 'I' for Inactive)
REMARK    1  A    between atoms: C_1  and  S_2
REMARK    2  A    between atoms: S_2  and  N_5
REMARK    3  A    between atoms: N_8  and  C_9
REMARK    4  A    between atoms: C_9  and  N_10
REMARK                            x       y       z     vdW  Elec       q    Type
REMARK                         _______ _______ _______ _____ _____    ______ ____
ROOT
ATOM      1  N   UNL     1       2.360   6.858  19.348  0.00  0.00    +0.000 N 
ATOM      2  C   UNL     1       2.283   7.833  18.387  0.00  0.00    +0.000 A 
ATOM      3  C   UNL     1       1.734   8.926  19.015  0.00  0.00    +0.000 A 
ATOM      4  C   UNL     1       1.513  10.273  18.552  0.00  0.00    +0.000 A 
ATOM      5  O   UNL     1       1.877  10.685  17.456  0.00  0.00    +0.000 OA
ATOM      6  O   UNL     1       0.857  11.113  19.478  0.00  0.00    +0.000 OA
ATOM      7  C   UNL     1       0.406  10.654  20.748  0.00  0.00    +0.000 A 
ATOM      8  C   UNL     1      -0.333  11.558  21.509  0.00  0.00    +0.000 A 
ATOM      9  C   UNL     1      -0.836  11.148  22.743  0.00  0.00    +0.000 A 
ATOM     10  C   UNL     1      -0.584   9.853  23.210  0.00  0.00    +0.000 A 
ATOM     11  C   UNL     1       0.169   8.954  22.445  0.00  0.00    +0.000 A 
ATOM     12  C   UNL     1       0.664   9.352  21.204  0.00  0.00    +0.000 A 
ATOM     13  C   UNL     1       1.381   8.480  20.300  0.00  0.00    +0.000 A 
ATOM     14  N   UNL     1       1.773   7.218  20.522  0.00  0.00    +0.000 NA
ENDROOT
BRANCH   1  15
ATOM     15  C   UNL     1       3.047   5.562  19.229  0.00  0.00    +0.000 C 
BRANCH  15  19
ATOM     16  N   UNL     1       5.485   4.920  16.466  0.00  0.00    +0.000 NA
ATOM     17  C   UNL     1       5.144   3.916  17.522  0.00  0.00    +0.000 C 
ATOM     18  C   UNL     1       5.266   4.518  18.940  0.00  0.00    +0.000 C 
ATOM     19  N   UNL     1       4.507   5.776  19.158  0.00  0.00    +0.000 NA
ATOM     20  C   UNL     1       4.871   6.733  18.088  0.00  0.00    +0.000 C 
ATOM     21  C   UNL     1       4.714   6.187  16.655  0.00  0.00    +0.000 C 
BRANCH  16  23
ATOM     22  C   UNL     1       7.165   4.637  14.366  0.00  0.00    +0.000 C 
ATOM     23  S   UNL     1       7.138   5.090  16.089  0.00  0.00    +0.000 S 
ATOM     24  O   UNL     1       7.881   4.093  16.827  0.00  0.00    +0.000 OA
ATOM     25  O   UNL     1       7.481   6.492  16.164  0.00  0.00    +0.000 OA
ENDBRANCH  16  23
ENDBRANCH  15  19
ENDBRANCH   1  15
TORSDOF 3
ENDMDL
MODEL 7
REMARK VINA RESULT:      -7.5      1.904      3.138
REMARK  Name = 
REMARK  4 active torsions:
REMARK  status: ('A' for Active; 'I' for Inactive)
REMARK    1  A    between atoms: C_1  and  S_2
REMARK    2  A    between atoms: S_2  and  N_5
REMARK    3  A    between atoms: N_8  and  C_9
REMARK    4  A    between atoms: C_9  and  N_10
REMARK                            x       y       z     vdW  Elec       q    Type
REMARK                         _______ _______ _______ _____ _____    ______ ____
ROOT
ATOM      1  N   UNL     1       2.106   8.195  17.998  0.00  0.00    +0.000 N 
ATOM      2  C   UNL     1       3.408   8.165  17.570  0.00  0.00    +0.000 A 
ATOM      3  C   UNL     1       3.708   6.834  17.397  0.00  0.00    +0.000 A 
ATOM      4  C   UNL     1       4.881   6.189  16.862  0.00  0.00    +0.000 A 
ATOM      5  O   UNL     1       5.833   6.794  16.382  0.00  0.00    +0.000 OA
ATOM      6  O   UNL     1       4.847   4.778  16.905  0.00  0.00    +0.000 OA
ATOM      7  C   UNL     1       3.763   4.051  17.475  0.00  0.00    +0.000 A 
ATOM      8  C   UNL     1       3.918   2.669  17.559  0.00  0.00    +0.000 A 
ATOM      9  C   UNL     1       2.906   1.912  18.147  0.00  0.00    +0.000 A 
ATOM     10  C   UNL     1       1.749   2.536  18.628  0.00  0.00    +0.000 A 
ATOM     11  C   UNL     1       1.596   3.924  18.530  0.00  0.00    +0.000 A 
ATOM     12  C   UNL     1       2.609   4.689  17.956  0.00  0.00    +0.000 A 
ATOM     13  C   UNL     1       2.589   6.134  17.879  0.00  0.00    +0.000 A 
ATOM     14  N   UNL     1       1.594   6.957  18.236  0.00  0.00    +0.000 NA
ENDROOT
BRANCH   1  15
ATOM     15  C   UNL     1       1.258   9.389  18.144  0.00  0.00    +0.000 C 
BRANCH  15  19
ATOM     16  N   UNL     1      -0.875  10.949  20.790  0.00  0.00    +0.000 NA
ATOM     17  C   UNL     1      -0.387  11.681  19.579  0.00  0.00    +0.000 C 
ATOM     18  C   UNL     1       1.138  11.516  19.391  0.00  0.00    +0.000 C 
ATOM     19  N   UNL     1       1.624  10.113  19.378  0.00  0.00    +0.000 NA
ATOM     20  C   UNL     1       1.111   9.430  20.589  0.00  0.00    +0.000 C 
ATOM     21  C   UNL     1      -0.415   9.528  20.785  0.00  0.00    +0.000 C 
BRANCH  16  23
ATOM     22  C   UNL     1      -2.440  12.290  22.542  0.00  0.00    +0.000 C 
ATOM     23  S   UNL     1      -0.754  11.778  22.275  0.00  0.00    +0.000 S 
ATOM     24  O   UNL     1       0.049  12.964  22.073  0.00  0.00    +0.000 OA
ATOM     25  O   UNL     1      -0.434  10.819  23.308  0.00  0.00    +0.000 OA
ENDBRANCH  16  23
ENDBRANCH  15  19
ENDBRANCH   1  15
TORSDOF 3
ENDMDL
MODEL 8
REMARK VINA RESULT:      -7.4      2.813      8.479
REMARK  Name = 
REMARK  4 active torsions:
REMARK  status: ('A' for Active; 'I' for Inactive)
REMARK    1  A    between atoms: C_1  and  S_2
REMARK    2  A    between atoms: S_2  and  N_5
REMARK    3  A    between atoms: N_8  and  C_9
REMARK    4  A    between atoms: C_9  and  N_10
REMARK                            x       y       z     vdW  Elec       q    Type
REMARK                         _______ _______ _______ _____ _____    ______ ____
ROOT
ATOM      1  N   UNL     1       1.744   8.836  18.492  0.00  0.00    +0.000 N 
ATOM      2  C   UNL     1       1.929  10.072  17.930  0.00  0.00    +0.000 A 
ATOM      3  C   UNL     1       1.487  10.973  18.870  0.00  0.00    +0.000 A 
ATOM      4  C   UNL     1       1.531  12.414  18.896  0.00  0.00    +0.000 A 
ATOM      5  O   UNL     1       2.077  13.095  18.035  0.00  0.00    +0.000 OA
ATOM      6  O   UNL     1       0.910  13.001  20.019  0.00  0.00    +0.000 OA
ATOM      7  C   UNL     1       0.251  12.235  21.023  0.00  0.00    +0.000 A 
ATOM      8  C   UNL     1      -0.423  12.952  22.010  0.00  0.00    +0.000 A 
ATOM      9  C   UNL     1      -1.121  12.253  22.993  0.00  0.00    +0.000 A 
ATOM     10  C   UNL     1      -1.127  10.853  22.991  0.00  0.00    +0.000 A 
ATOM     11  C   UNL     1      -0.439  10.140  22.002  0.00  0.00    +0.000 A 
ATOM     12  C   UNL     1       0.250  10.831  21.008  0.00  0.00    +0.000 A 
ATOM     13  C   UNL     1       0.923  10.197  19.896  0.00  0.00    +0.000 A 
ATOM     14  N   UNL     1       1.088   8.884  19.684  0.00  0.00    +0.000 NA
ENDROOT
BRANCH   1  15
ATOM     15  C   UNL     1       2.232   7.551  17.966  0.00  0.00    +0.000 C 
BRANCH  15  19
ATOM     16  N   UNL     1       2.966   3.920  18.482  0.00  0.00    +0.000 NA
ATOM     17  C   UNL     1       1.802   4.628  19.102  0.00  0.00    +0.000 C 
ATOM     18  C   UNL     1       2.243   5.923  19.822  0.00  0.00    +0.000 C 
ATOM     19  N   UNL     1       3.039   6.864  18.995  0.00  0.00    +0.000 NA
ATOM     20  C   UNL     1       4.172   6.118  18.398  0.00  0.00    +0.000 C 
ATOM     21  C   UNL     1       3.768   4.845  17.626  0.00  0.00    +0.000 C 
BRANCH  16  23
ATOM     22  C   UNL     1       3.753   1.336  18.609  0.00  0.00    +0.000 C 
ATOM     23  S   UNL     1       3.847   2.876  19.501  0.00  0.00    +0.000 S 
ATOM     24  O   UNL     1       3.118   2.722  20.741  0.00  0.00    +0.000 OA
ATOM     25  O   UNL     1       5.232   3.289  19.489  0.00  0.00    +0.000 OA
ENDBRANCH  16  23
ENDBRANCH  15  19
ENDBRANCH   1  15
TORSDOF 3
ENDMDL
MODEL 9
REMARK VINA RESULT:      -7.3      1.216      1.234
REMARK  Name = 
REMARK  4 active torsions:
REMARK  status: ('A' for Active; 'I' for Inactive)
REMARK    1  A    between atoms: C_1  and  S_2
REMARK    2  A    between atoms: S_2  and  N_5
REMARK    3  A    between atoms: N_8  and  C_9
REMARK    4  A    between atoms: C_9  and  N_10
REMARK                            x       y       z     vdW  Elec       q    Type
REMARK                         _______ _______ _______ _____ _____    ______ ____
ROOT
ATOM      1  N   UNL     1       2.004   6.216  19.745  0.00  0.00    +0.000 N 
ATOM      2  C   UNL     1       1.553   5.072  19.140  0.00  0.00    +0.000 A 
ATOM      3  C   UNL     1       2.614   4.603  18.402  0.00  0.00    +0.000 A 
ATOM      4  C   UNL     1       2.778   3.387  17.646  0.00  0.00    +0.000 A 
ATOM      5  O   UNL     1       1.943   2.491  17.605  0.00  0.00    +0.000 OA
ATOM      6  O   UNL     1       4.007   3.284  16.958  0.00  0.00    +0.000 OA
ATOM      7  C   UNL     1       4.986   4.318  16.971  0.00  0.00    +0.000 A 
ATOM      8  C   UNL     1       6.097   4.133  16.151  0.00  0.00    +0.000 A 
ATOM      9  C   UNL     1       7.066   5.133  16.092  0.00  0.00    +0.000 A 
ATOM     10  C   UNL     1       6.926   6.294  16.861  0.00  0.00    +0.000 A 
ATOM     11  C   UNL     1       5.813   6.468  17.691  0.00  0.00    +0.000 A 
ATOM     12  C   UNL     1       4.832   5.479  17.745  0.00  0.00    +0.000 A 
ATOM     13  C   UNL     1       3.606   5.593  18.503  0.00  0.00    +0.000 A 
ATOM     14  N   UNL     1       3.250   6.581  19.336  0.00  0.00    +0.000 NA
ENDROOT
BRANCH   1  15
ATOM     15  C   UNL     1       1.311   6.989  20.788  0.00  0.00    +0.000 C 
BRANCH  15  19
ATOM     16  N   UNL     1      -0.463  10.177  21.615  0.00  0.00    +0.000 NA
ATOM     17  C   UNL     1      -0.426   9.580  20.243  0.00  0.00    +0.000 C 
ATOM     18  C   UNL     1       1.018   9.238  19.811  0.00  0.00    +0.000 C 
ATOM     19  N   UNL     1       1.778   8.391  20.764  0.00  0.00    +0.000 NA
ATOM     20  C   UNL     1       1.707   9.017  22.105  0.00  0.00    +0.000 C 
ATOM     21  C   UNL     1       0.278   9.327  22.595  0.00  0.00    +0.000 C 
BRANCH  16  23
ATOM     22  C   UNL     1      -1.374  12.483  20.536  0.00  0.00    +0.000 C 
ATOM     23  S   UNL     1      -0.195  11.857  21.716  0.00  0.00    +0.000 S 
ATOM     24  O   UNL     1       1.133  12.140  21.218  0.00  0.00    +0.000 OA
ATOM     25  O   UNL     1      -0.621  12.309  23.021  0.00  0.00    +0.000 OA
ENDBRANCH  16  23
ENDBRANCH  15  19
ENDBRANCH   1  15
TORSDOF 3
ENDMDL
