MODEL 1
REMARK VINA RESULT:      -8.2      0.000      0.000
REMARK  Name = 
REMARK  6 active torsions:
REMARK  status: ('A' for Active; 'I' for Inactive)
REMARK    1  A    between atoms: C_1  and  C_2
REMARK    2  A    between atoms: C_2  and  N_3
REMARK    3  A    between atoms: C_5  and  C_6
REMARK    4  A    between atoms: N_8  and  N_9
REMARK    5  A    between atoms: C_10  and  C_11
REMARK    6  A    between atoms: C_26  and  C_27
REMARK                            x       y       z     vdW  Elec       q    Type
REMARK                         _______ _______ _______ _____ _____    ______ ____
ROOT
ATOM      1  C   UNL     1       1.020  10.632  18.964  0.00  0.00    +0.000 C 
ATOM      2  O   UNL     1       0.563   9.912  19.850  0.00  0.00    +0.000 OA
ATOM      3  N   UNL     1       1.649  10.175  17.818  0.00  0.00    +0.000 N 
ATOM      4  H   UNL     1       2.008  10.834  17.122  0.00  0.00    +0.000 HD
ENDROOT
BRANCH   1   7
ATOM      5  N   UNL     1      -0.392  14.028  19.794  0.00  0.00    +0.000 N 
ATOM      6  C   UNL     1      -0.160  12.670  19.636  0.00  0.00    +0.000 A 
ATOM      7  C   UNL     1       0.919  12.116  19.061  0.00  0.00    +0.000 A 
ATOM      8  C   UNL     1       1.946  13.047  18.545  0.00  0.00    +0.000 A 
ATOM      9  O   UNL     1       2.984  12.633  18.031  0.00  0.00    +0.000 OA
ATOM     10  C   UNL     1       1.693  14.496  18.652  0.00  0.00    +0.000 A 
ATOM     11  C   UNL     1       2.614  15.394  18.112  0.00  0.00    +0.000 A 
ATOM     12  C   UNL     1       2.376  16.752  18.228  0.00  0.00    +0.000 A 
ATOM     13  C   UNL     1       1.224  17.169  18.884  0.00  0.00    +0.000 A 
ATOM     14  C   UNL     1       0.969  18.631  19.095  0.00  0.00    +0.000 C 
ATOM     15  N   UNL     1       0.315  16.300  19.402  0.00  0.00    +0.000 NA
ATOM     16  C   UNL     1       0.537  14.967  19.284  0.00  0.00    +0.000 A 
BRANCH   5  18
ATOM     17  C   UNL     1      -2.583  13.448  20.765  0.00  0.00    +0.000 C 
ATOM     18  C   UNL     1      -1.645  14.569  20.336  0.00  0.00    +0.000 C 
ENDBRANCH   5  18
ENDBRANCH   1   7
BRANCH   3  19
ATOM     19  N   UNL     1       1.803   8.839  17.636  0.00  0.00    +0.000 NA
ATOM     20  C   UNL     1       2.919   8.310  18.012  0.00  0.00    +0.000 C 
BRANCH  20  21
ATOM     21  C   UNL     1       3.132   6.858  17.829  0.00  0.00    +0.000 A 
ATOM     22  C   UNL     1       4.321   6.411  17.240  0.00  0.00    +0.000 A 
ATOM     23  C   UNL     1       4.559   5.046  17.097  0.00  0.00    +0.000 A 
ATOM     24  C   UNL     1       3.617   4.112  17.543  0.00  0.00    +0.000 A 
ATOM     25  C   UNL     1       3.869   2.737  17.440  0.00  0.00    +0.000 A 
ATOM     26  C   UNL     1       2.935   1.808  17.896  0.00  0.00    +0.000 A 
ATOM     27  C   UNL     1       1.731   2.243  18.441  0.00  0.00    +0.000 A 
ATOM     28  C   UNL     1       1.462   3.610  18.546  0.00  0.00    +0.000 A 
ATOM     29  C   UNL     1       2.401   4.562  18.116  0.00  0.00    +0.000 A 
ATOM     30  C   UNL     1       2.169   5.942  18.253  0.00  0.00    +0.000 A 
ENDBRANCH  20  21
ENDBRANCH   3  19
TORSDOF 4
ENDMDL
MODEL 2
REMARK VINA RESULT:      -8.1      3.678     10.426
REMARK  Name = 
REMARK  6 active torsions:
REMARK  status: ('A' for Active; 'I' for Inactive)
REMARK    1  A    between atoms: C_1  and  C_2
REMARK    2  A    between atoms: C_2  and  N_3
REMARK    3  A    between atoms: C_5  and  C_6
REMARK    4  A    between atoms: N_8  and  N_9
REMARK    5  A    between atoms: C_10  and  C_11
REMARK    6  A    between atoms: C_26  and  C_27
REMARK                            x       y       z     vdW  Elec       q    Type
REMARK                         _______ _______ _______ _____ _____    ______ ____
ROOT
ATOM      1  C   UNL     1       0.585   8.176  21.250  0.00  0.00    +0.000 C 
ATOM      2  O   UNL     1      -0.537   7.796  21.582  0.00  0.00    +0.000 OA
ATOM      3  N   UNL     1       1.143   9.395  21.598  0.00  0.00    +0.000 N 
ATOM      4  H   UNL     1       2.085   9.646  21.284  0.00  0.00    +0.000 HD
ENDROOT
BRANCH   1   7
ATOM      5  N   UNL     1       2.442   5.107  20.088  0.00  0.00    +0.000 N 
ATOM      6  C   UNL     1       1.652   6.026  20.762  0.00  0.00    +0.000 A 
ATOM      7  C   UNL     1       1.466   7.310  20.417  0.00  0.00    +0.000 A 
ATOM      8  C   UNL     1       2.181   7.780  19.210  0.00  0.00    +0.000 A 
ATOM      9  O   UNL     1       2.049   8.931  18.797  0.00  0.00    +0.000 OA
ATOM     10  C   UNL     1       3.071   6.835  18.511  0.00  0.00    +0.000 A 
ATOM     11  C   UNL     1       3.808   7.274  17.411  0.00  0.00    +0.000 A 
ATOM     12  C   UNL     1       4.631   6.376  16.752  0.00  0.00    +0.000 A 
ATOM     13  C   UNL     1       4.687   5.067  17.214  0.00  0.00    +0.000 A 
ATOM     14  C   UNL     1       5.509   4.049  16.483  0.00  0.00    +0.000 C 
ATOM     15  N   UNL     1       3.981   4.635  18.293  0.00  0.00    +0.000 NA
ATOM     16  C   UNL     1       3.180   5.511  18.950  0.00  0.00    +0.000 A 
BRANCH   5  18
ATOM     17  C   UNL     1       1.432   3.167  21.226  0.00  0.00    +0.000 C 
ATOM     18  C   UNL     1       2.685   3.746  20.582  0.00  0.00    +0.000 C 
ENDBRANCH   5  18
ENDBRANCH   1   7
BRANCH   3  19
ATOM     19  N   UNL     1       0.420  10.264  22.348  0.00  0.00    +0.000 NA
ATOM     20  C   UNL     1      -0.240  11.183  21.726  0.00  0.00    +0.000 C 
BRANCH  20  21
ATOM     21  C   UNL     1      -1.039  12.156  22.502  0.00  0.00    +0.000 A 
ATOM     22  C   UNL     1      -2.272  11.759  23.031  0.00  0.00    +0.000 A 
ATOM     23  C   UNL     1      -3.020  12.647  23.800  0.00  0.00    +0.000 A 
ATOM     24  C   UNL     1      -2.544  13.939  24.054  0.00  0.00    +0.000 A 
ATOM     25  C   UNL     1      -3.273  14.824  24.862  0.00  0.00    +0.000 A 
ATOM     26  C   UNL     1      -2.791  16.106  25.124  0.00  0.00    +0.000 A 
ATOM     27  C   UNL     1      -1.588  16.525  24.563  0.00  0.00    +0.000 A 
ATOM     28  C   UNL     1      -0.853  15.657  23.752  0.00  0.00    +0.000 A 
ATOM     29  C   UNL     1      -1.308  14.352  23.498  0.00  0.00    +0.000 A 
ATOM     30  C   UNL     1      -0.562  13.449  22.720  0.00  0.00    +0.000 A 
ENDBRANCH  20  21
ENDBRANCH   3  19
TORSDOF 4
ENDMDL
MODEL 3
REMARK VINA RESULT:      -8.1      3.155     10.038
REMARK  Name = 
REMARK  6 active torsions:
REMARK  status: ('A' for Active; 'I' for Inactive)
REMARK    1  A    between atoms: C_1  and  C_2
REMARK    2  A    between atoms: C_2  and  N_3
REMARK    3  A    between atoms: C_5  and  C_6
REMARK    4  A    between atoms: N_8  and  N_9
REMARK    5  A    between atoms: C_10  and  C_11
REMARK    6  A    between atoms: C_26  and  C_27
REMARK                            x       y       z     vdW  Elec       q    Type
REMARK                         _______ _______ _______ _____ _____    ______ ____
ROOT
ATOM      1  C   UNL     1       1.444   8.111  20.480  0.00  0.00    +0.000 C 
ATOM      2  O   UNL     1       1.422   7.956  21.700  0.00  0.00    +0.000 OA
ATOM      3  N   UNL     1       0.770   9.111  19.797  0.00  0.00    +0.000 N 
ATOM      4  H   UNL     1       0.833   9.179  18.778  0.00  0.00    +0.000 HD
ENDROOT
BRANCH   1   7
ATOM      5  N   UNL     1       3.051   4.938  19.231  0.00  0.00    +0.000 N 
ATOM      6  C   UNL     1       2.348   5.901  19.939  0.00  0.00    +0.000 A 
ATOM      7  C   UNL     1       2.237   7.198  19.610  0.00  0.00    +0.000 A 
ATOM      8  C   UNL     1       2.940   7.631  18.383  0.00  0.00    +0.000 A 
ATOM      9  O   UNL     1       2.872   8.793  17.984  0.00  0.00    +0.000 OA
ATOM     10  C   UNL     1       3.740   6.635  17.646  0.00  0.00    +0.000 A 
ATOM     11  C   UNL     1       4.467   7.036  16.525  0.00  0.00    +0.000 A 
ATOM     12  C   UNL     1       5.205   6.092  15.832  0.00  0.00    +0.000 A 
ATOM     13  C   UNL     1       5.190   4.778  16.281  0.00  0.00    +0.000 A 
ATOM     14  C   UNL     1       5.916   3.714  15.514  0.00  0.00    +0.000 C 
ATOM     15  N   UNL     1       4.494   4.383  17.381  0.00  0.00    +0.000 NA
ATOM     16  C   UNL     1       3.775   5.303  18.071  0.00  0.00    +0.000 A 
BRANCH   5  18
ATOM     17  C   UNL     1       2.450   3.329  21.000  0.00  0.00    +0.000 C 
ATOM     18  C   UNL     1       3.219   3.559  19.706  0.00  0.00    +0.000 C 
ENDBRANCH   5  18
ENDBRANCH   1   7
BRANCH   3  19
ATOM     19  N   UNL     1       0.010   9.991  20.494  0.00  0.00    +0.000 NA
ATOM     20  C   UNL     1       0.582  11.066  20.923  0.00  0.00    +0.000 C 
BRANCH  20  21
ATOM     21  C   UNL     1      -0.207  12.053  21.692  0.00  0.00    +0.000 A 
ATOM     22  C   UNL     1       0.205  13.390  21.712  0.00  0.00    +0.000 A 
ATOM     23  C   UNL     1      -0.548  14.342  22.396  0.00  0.00    +0.000 A 
ATOM     24  C   UNL     1      -1.722  13.972  23.063  0.00  0.00    +0.000 A 
ATOM     25  C   UNL     1      -2.506  14.932  23.718  0.00  0.00    +0.000 A 
ATOM     26  C   UNL     1      -3.681  14.563  24.371  0.00  0.00    +0.000 A 
ATOM     27  C   UNL     1      -4.074  13.228  24.395  0.00  0.00    +0.000 A 
ATOM     28  C   UNL     1      -3.300  12.258  23.752  0.00  0.00    +0.000 A 
ATOM     29  C   UNL     1      -2.127  12.614  23.066  0.00  0.00    +0.000 A 
ATOM     30  C   UNL     1      -1.358  11.660  22.375  0.00  0.00    +0.000 A 
ENDBRANCH  20  21
ENDBRANCH   3  19
TORSDOF 4
ENDMDL
MODEL 4
REMARK VINA RESULT:      -7.9      3.514      4.703
REMARK  Name = 
REMARK  6 active torsions:
REMARK  status: ('A' for Active; 'I' for Inactive)
REMARK    1  A    between atoms: C_1  and  C_2
REMARK    2  A    between atoms: C_2  and  N_3
REMARK    3  A    between atoms: C_5  and  C_6
REMARK    4  A    between atoms: N_8  and  N_9
REMARK    5  A    between atoms: C_10  and  C_11
REMARK    6  A    between atoms: C_26  and  C_27
REMARK                            x       y       z     vdW  Elec       q    Type
REMARK                         _______ _______ _______ _____ _____    ______ ____
ROOT
ATOM      1  C   UNL     1       0.350  10.054  19.254  0.00  0.00    +0.000 C 
ATOM      2  O   UNL     1       1.007  10.020  20.293  0.00  0.00    +0.000 OA
ATOM      3  N   UNL     1       0.736   9.478  18.055  0.00  0.00    +0.000 N 
ATOM      4  H   UNL     1       0.138   9.547  17.227  0.00  0.00    +0.000 HD
ENDROOT
BRANCH   1   7
ATOM      5  N   UNL     1      -2.508  12.278  20.302  0.00  0.00    +0.000 N 
ATOM      6  C   UNL     1      -1.318  11.572  20.207  0.00  0.00    +0.000 A 
ATOM      7  C   UNL     1      -0.969  10.744  19.209  0.00  0.00    +0.000 A 
ATOM      8  C   UNL     1      -1.955  10.568  18.121  0.00  0.00    +0.000 A 
ATOM      9  O   UNL     1      -1.714   9.855  17.149  0.00  0.00    +0.000 OA
ATOM     10  C   UNL     1      -3.251  11.265  18.231  0.00  0.00    +0.000 A 
ATOM     11  C   UNL     1      -4.223  11.061  17.252  0.00  0.00    +0.000 A 
ATOM     12  C   UNL     1      -5.431  11.730  17.356  0.00  0.00    +0.000 A 
ATOM     13  C   UNL     1      -5.626  12.582  18.435  0.00  0.00    +0.000 A 
ATOM     14  C   UNL     1      -6.891  13.380  18.542  0.00  0.00    +0.000 C 
ATOM     15  N   UNL     1      -4.687  12.776  19.400  0.00  0.00    +0.000 NA
ATOM     16  C   UNL     1      -3.504  12.118  19.311  0.00  0.00    +0.000 A 
BRANCH   5  18
ATOM     17  C   UNL     1      -2.624  12.311  22.765  0.00  0.00    +0.000 C 
ATOM     18  C   UNL     1      -2.868  13.084  21.475  0.00  0.00    +0.000 C 
ENDBRANCH   5  18
ENDBRANCH   1   7
BRANCH   3  19
ATOM     19  N   UNL     1       1.927   8.833  17.983  0.00  0.00    +0.000 NA
ATOM     20  C   UNL     1       1.936   7.565  18.229  0.00  0.00    +0.000 C 
BRANCH  20  21
ATOM     21  C   UNL     1       3.212   6.821  18.168  0.00  0.00    +0.000 A 
ATOM     22  C   UNL     1       3.659   6.135  19.303  0.00  0.00    +0.000 A 
ATOM     23  C   UNL     1       4.837   5.395  19.252  0.00  0.00    +0.000 A 
ATOM     24  C   UNL     1       5.581   5.327  18.069  0.00  0.00    +0.000 A 
ATOM     25  C   UNL     1       6.746   4.549  17.999  0.00  0.00    +0.000 A 
ATOM     26  C   UNL     1       7.479   4.473  16.815  0.00  0.00    +0.000 A 
ATOM     27  C   UNL     1       7.067   5.189  15.695  0.00  0.00    +0.000 A 
ATOM     28  C   UNL     1       5.912   5.972  15.750  0.00  0.00    +0.000 A 
ATOM     29  C   UNL     1       5.146   6.041  16.925  0.00  0.00    +0.000 A 
ATOM     30  C   UNL     1       3.956   6.789  16.988  0.00  0.00    +0.000 A 
ENDBRANCH  20  21
ENDBRANCH   3  19
TORSDOF 4
ENDMDL
MODEL 5
REMARK VINA RESULT:      -7.9      3.485     10.178
REMARK  Name = 
REMARK  6 active torsions:
REMARK  status: ('A' for Active; 'I' for Inactive)
REMARK    1  A    between atoms: C_1  and  C_2
REMARK    2  A    between atoms: C_2  and  N_3
REMARK    3  A    between atoms: C_5  and  C_6
REMARK    4  A    between atoms: N_8  and  N_9
REMARK    5  A    between atoms: C_10  and  C_11
REMARK    6  A    between atoms: C_26  and  C_27
REMARK                            x       y       z     vdW  Elec       q    Type
REMARK                         _______ _______ _______ _____ _____    ______ ____
ROOT
ATOM      1  C   UNL     1       1.836   7.089  20.125  0.00  0.00    +0.000 C 
ATOM      2  O   UNL     1       1.398   6.520  21.124  0.00  0.00    +0.000 OA
ATOM      3  N   UNL     1       1.652   8.431  19.834  0.00  0.00    +0.000 N 
ATOM      4  H   UNL     1       2.045   8.838  18.981  0.00  0.00    +0.000 HD
ENDROOT
BRANCH   1   7
ATOM      5  N   UNL     1       3.457   4.187  18.347  0.00  0.00    +0.000 N 
ATOM      6  C   UNL     1       2.747   5.009  19.209  0.00  0.00    +0.000 A 
ATOM      7  C   UNL     1       2.636   6.344  19.114  0.00  0.00    +0.000 A 
ATOM      8  C   UNL     1       3.348   6.988  17.988  0.00  0.00    +0.000 A 
ATOM      9  O   UNL     1       3.280   8.201  17.799  0.00  0.00    +0.000 OA
ATOM     10  C   UNL     1       4.155   6.138  17.093  0.00  0.00    +0.000 A 
ATOM     11  C   UNL     1       4.890   6.730  16.065  0.00  0.00    +0.000 A 
ATOM     12  C   UNL     1       5.634   5.923  15.221  0.00  0.00    +0.000 A 
ATOM     13  C   UNL     1       5.618   4.550  15.432  0.00  0.00    +0.000 A 
ATOM     14  C   UNL     1       6.351   3.639  14.494  0.00  0.00    +0.000 C 
ATOM     15  N   UNL     1       4.914   3.967  16.439  0.00  0.00    +0.000 NA
ATOM     16  C   UNL     1       4.189   4.751  17.276  0.00  0.00    +0.000 A 
BRANCH   5  18
ATOM     17  C   UNL     1       2.276   2.036  18.595  0.00  0.00    +0.000 C 
ATOM     18  C   UNL     1       3.624   2.745  18.573  0.00  0.00    +0.000 C 
ENDBRANCH   5  18
ENDBRANCH   1   7
BRANCH   3  19
ATOM     19  N   UNL     1       0.928   9.199  20.686  0.00  0.00    +0.000 NA
ATOM     20  C   UNL     1       0.061  10.007  20.172  0.00  0.00    +0.000 C 
BRANCH  20  21
ATOM     21  C   UNL     1      -0.748  10.868  21.061  0.00  0.00    +0.000 A 
ATOM     22  C   UNL     1      -0.766  10.604  22.435  0.00  0.00    +0.000 A 
ATOM     23  C   UNL     1      -1.488  11.429  23.295  0.00  0.00    +0.000 A 
ATOM     24  C   UNL     1      -2.197  12.527  22.794  0.00  0.00    +0.000 A 
ATOM     25  C   UNL     1      -2.892  13.385  23.658  0.00  0.00    +0.000 A 
ATOM     26  C   UNL     1      -3.587  14.485  23.159  0.00  0.00    +0.000 A 
ATOM     27  C   UNL     1      -3.613  14.728  21.788  0.00  0.00    +0.000 A 
ATOM     28  C   UNL     1      -2.930  13.879  20.913  0.00  0.00    +0.000 A 
ATOM     29  C   UNL     1      -2.202  12.781  21.400  0.00  0.00    +0.000 A 
ATOM     30  C   UNL     1      -1.472  11.940  20.540  0.00  0.00    +0.000 A 
ENDBRANCH  20  21
ENDBRANCH   3  19
TORSDOF 4
ENDMDL
MODEL 6
REMARK VINA RESULT:      -7.8      3.637     10.317
REMARK  Name = 
REMARK  6 active torsions:
REMARK  status: ('A' for Active; 'I' for Inactive)
REMARK    1  A    between atoms: C_1  and  C_2
REMARK    2  A    between atoms: C_2  and  N_3
REMARK    3  A    between atoms: C_5  and  C_6
REMARK    4  A    between atoms: N_8  and  N_9
REMARK    5  A    between atoms: C_10  and  C_11
REMARK    6  A    between atoms: C_26  and  C_27
REMARK                            x       y       z     vdW  Elec       q    Type
REMARK                         _______ _______ _______ _____ _____    ______ ____
ROOT
ATOM      1  C   UNL     1       0.397   8.495  21.343  0.00  0.00    +0.000 C 
ATOM      2  O   UNL     1      -0.676   8.098  21.795  0.00  0.00    +0.000 OA
ATOM      3  N   UNL     1       0.903   9.773  21.513  0.00  0.00    +0.000 N 
ATOM      4  H   UNL     1       1.805  10.035  21.105  0.00  0.00    +0.000 HD
ENDROOT
BRANCH   1   7
ATOM      5  N   UNL     1       2.242   5.370  20.322  0.00  0.00    +0.000 N 
ATOM      6  C   UNL     1       1.459   6.323  20.956  0.00  0.00    +0.000 A 
ATOM      7  C   UNL     1       1.270   7.588  20.546  0.00  0.00    +0.000 A 
ATOM      8  C   UNL     1       1.972   7.995  19.310  0.00  0.00    +0.000 A 
ATOM      9  O   UNL     1       1.836   9.123  18.839  0.00  0.00    +0.000 OA
ATOM     10  C   UNL     1       2.855   7.014  18.652  0.00  0.00    +0.000 A 
ATOM     11  C   UNL     1       3.581   7.395  17.523  0.00  0.00    +0.000 A 
ATOM     12  C   UNL     1       4.398   6.464  16.904  0.00  0.00    +0.000 A 
ATOM     13  C   UNL     1       4.459   5.181  17.433  0.00  0.00    +0.000 A 
ATOM     14  C   UNL     1       5.273   4.126  16.747  0.00  0.00    +0.000 C 
ATOM     15  N   UNL     1       3.764   4.806  18.539  0.00  0.00    +0.000 NA
ATOM     16  C   UNL     1       2.969   5.714  19.158  0.00  0.00    +0.000 A 
BRANCH   5  18
ATOM     17  C   UNL     1       1.209   3.214  20.925  0.00  0.00    +0.000 C 
ATOM     18  C   UNL     1       2.490   4.036  20.884  0.00  0.00    +0.000 C 
ENDBRANCH   5  18
ENDBRANCH   1   7
BRANCH   3  19
ATOM     19  N   UNL     1       0.181  10.683  22.214  0.00  0.00    +0.000 NA
ATOM     20  C   UNL     1      -0.520  11.534  21.543  0.00  0.00    +0.000 C 
BRANCH  20  21
ATOM     21  C   UNL     1      -1.319  12.547  22.265  0.00  0.00    +0.000 A 
ATOM     22  C   UNL     1      -0.665  13.613  22.893  0.00  0.00    +0.000 A 
ATOM     23  C   UNL     1      -1.403  14.600  23.543  0.00  0.00    +0.000 A 
ATOM     24  C   UNL     1      -2.801  14.538  23.569  0.00  0.00    +0.000 A 
ATOM     25  C   UNL     1      -3.551  15.550  24.184  0.00  0.00    +0.000 A 
ATOM     26  C   UNL     1      -4.944  15.493  24.198  0.00  0.00    +0.000 A 
ATOM     27  C   UNL     1      -5.601  14.413  23.616  0.00  0.00    +0.000 A 
ATOM     28  C   UNL     1      -4.868  13.394  23.003  0.00  0.00    +0.000 A 
ATOM     29  C   UNL     1      -3.465  13.446  22.956  0.00  0.00    +0.000 A 
ATOM     30  C   UNL     1      -2.711  12.453  22.306  0.00  0.00    +0.000 A 
ENDBRANCH  20  21
ENDBRANCH   3  19
TORSDOF 4
ENDMDL
MODEL 7
REMARK VINA RESULT:      -7.8      3.034      3.809
REMARK  Name = 
REMARK  6 active torsions:
REMARK  status: ('A' for Active; 'I' for Inactive)
REMARK    1  A    between atoms: C_1  and  C_2
REMARK    2  A    between atoms: C_2  and  N_3
REMARK    3  A    between atoms: C_5  and  C_6
REMARK    4  A    between atoms: N_8  and  N_9
REMARK    5  A    between atoms: C_10  and  C_11
REMARK    6  A    between atoms: C_26  and  C_27
REMARK                            x       y       z     vdW  Elec       q    Type
REMARK                         _______ _______ _______ _____ _____    ______ ____
ROOT
ATOM      1  C   UNL     1      -0.217  10.402  19.008  0.00  0.00    +0.000 C 
ATOM      2  O   UNL     1      -0.620  10.151  17.873  0.00  0.00    +0.000 OA
ATOM      3  N   UNL     1       0.901   9.834  19.595  0.00  0.00    +0.000 N 
ATOM      4  H   UNL     1       1.177  10.091  20.547  0.00  0.00    +0.000 HD
ENDROOT
BRANCH   1   7
ATOM      5  N   UNL     1      -3.019  12.540  20.347  0.00  0.00    +0.000 N 
ATOM      6  C   UNL     1      -2.228  11.652  19.634  0.00  0.00    +0.000 A 
ATOM      7  C   UNL     1      -0.934  11.384  19.869  0.00  0.00    +0.000 A 
ATOM      8  C   UNL     1      -0.300  12.115  20.989  0.00  0.00    +0.000 A 
ATOM      9  O   UNL     1       0.872  11.915  21.301  0.00  0.00    +0.000 OA
ATOM     10  C   UNL     1      -1.109  13.106  21.724  0.00  0.00    +0.000 A 
ATOM     11  C   UNL     1      -0.515  13.857  22.738  0.00  0.00    +0.000 A 
ATOM     12  C   UNL     1      -1.284  14.775  23.432  0.00  0.00    +0.000 A 
ATOM     13  C   UNL     1      -2.623  14.911  23.089  0.00  0.00    +0.000 A 
ATOM     14  C   UNL     1      -3.506  15.841  23.867  0.00  0.00    +0.000 C 
ATOM     15  N   UNL     1      -3.206  14.192  22.093  0.00  0.00    +0.000 NA
ATOM     16  C   UNL     1      -2.457  13.296  21.402  0.00  0.00    +0.000 A 
BRANCH   5  18
ATOM     17  C   UNL     1      -4.904  11.921  18.882  0.00  0.00    +0.000 C 
ATOM     18  C   UNL     1      -4.400  12.864  19.967  0.00  0.00    +0.000 C 
ENDBRANCH   5  18
ENDBRANCH   1   7
BRANCH   3  19
ATOM     19  N   UNL     1       1.620   8.918  18.900  0.00  0.00    +0.000 NA
ATOM     20  C   UNL     1       1.913   7.811  19.496  0.00  0.00    +0.000 C 
BRANCH  20  21
ATOM     21  C   UNL     1       2.700   6.785  18.779  0.00  0.00    +0.000 A 
ATOM     22  C   UNL     1       2.557   5.440  19.138  0.00  0.00    +0.000 A 
ATOM     23  C   UNL     1       3.257   4.454  18.446  0.00  0.00    +0.000 A 
ATOM     24  C   UNL     1       4.104   4.799  17.387  0.00  0.00    +0.000 A 
ATOM     25  C   UNL     1       4.780   3.808  16.659  0.00  0.00    +0.000 A 
ATOM     26  C   UNL     1       5.613   4.152  15.596  0.00  0.00    +0.000 A 
ATOM     27  C   UNL     1       5.797   5.491  15.262  0.00  0.00    +0.000 A 
ATOM     28  C   UNL     1       5.135   6.490  15.980  0.00  0.00    +0.000 A 
ATOM     29  C   UNL     1       4.271   6.162  17.037  0.00  0.00    +0.000 A 
ATOM     30  C   UNL     1       3.562   7.149  17.744  0.00  0.00    +0.000 A 
ENDBRANCH  20  21
ENDBRANCH   3  19
TORSDOF 4
ENDMDL
MODEL 8
REMARK VINA RESULT:      -7.8      3.212      3.878
REMARK  Name = 
REMARK  6 active torsions:
REMARK  status: ('A' for Active; 'I' for Inactive)
REMARK    1  A    between atoms: C_1  and  C_2
REMARK    2  A    between atoms: C_2  and  N_3
REMARK    3  A    between atoms: C_5  and  C_6
REMARK    4  A    between atoms: N_8  and  N_9
REMARK    5  A    between atoms: C_10  and  C_11
REMARK    6  A    between atoms: C_26  and  C_27
REMARK                            x       y       z     vdW  Elec       q    Type
REMARK                         _______ _______ _______ _____ _____    ______ ____
ROOT
ATOM      1  C   UNL     1      -0.367  10.507  22.602  0.00  0.00    +0.000 C 
ATOM      2  O   UNL     1       0.018   9.913  23.608  0.00  0.00    +0.000 OA
ATOM      3  N   UNL     1      -0.277  10.017  21.310  0.00  0.00    +0.000 N 
ATOM      4  H   UNL     1      -0.618  10.569  20.518  0.00  0.00    +0.000 HD
ENDROOT
BRANCH   1   7
ATOM      5  N   UNL     1      -2.897  13.169  23.455  0.00  0.00    +0.000 N 
ATOM      6  C   UNL     1      -2.195  11.984  23.290  0.00  0.00    +0.000 A 
ATOM      7  C   UNL     1      -0.992  11.855  22.707  0.00  0.00    +0.000 A 
ATOM      8  C   UNL     1      -0.371  13.095  22.191  0.00  0.00    +0.000 A 
ATOM      9  O   UNL     1       0.743  13.082  21.670  0.00  0.00    +0.000 OA
ATOM     10  C   UNL     1      -1.126  14.356  22.307  0.00  0.00    +0.000 A 
ATOM     11  C   UNL     1      -0.591  15.526  21.767  0.00  0.00    +0.000 A 
ATOM     12  C   UNL     1      -1.300  16.708  21.891  0.00  0.00    +0.000 A 
ATOM     13  C   UNL     1      -2.520  16.682  22.554  0.00  0.00    +0.000 A 
ATOM     14  C   UNL     1      -3.282  17.955  22.773  0.00  0.00    +0.000 C 
ATOM     15  N   UNL     1      -3.054  15.544  23.072  0.00  0.00    +0.000 NA
ATOM     16  C   UNL     1      -2.370  14.379  22.946  0.00  0.00    +0.000 A 
BRANCH   5  18
ATOM     17  C   UNL     1      -5.293  12.905  22.935  0.00  0.00    +0.000 C 
ATOM     18  C   UNL     1      -4.258  13.223  24.006  0.00  0.00    +0.000 C 
ENDBRANCH   5  18
ENDBRANCH   1   7
BRANCH   3  19
ATOM     19  N   UNL     1       0.286   8.800  21.101  0.00  0.00    +0.000 NA
ATOM     20  C   UNL     1       1.227   8.721  20.220  0.00  0.00    +0.000 C 
BRANCH  20  21
ATOM     21  C   UNL     1       1.867   7.415  19.956  0.00  0.00    +0.000 A 
ATOM     22  C   UNL     1       2.761   7.296  18.886  0.00  0.00    +0.000 A 
ATOM     23  C   UNL     1       3.405   6.084  18.646  0.00  0.00    +0.000 A 
ATOM     24  C   UNL     1       3.170   4.981  19.474  0.00  0.00    +0.000 A 
ATOM     25  C   UNL     1       3.848   3.771  19.263  0.00  0.00    +0.000 A 
ATOM     26  C   UNL     1       3.621   2.676  20.096  0.00  0.00    +0.000 A 
ATOM     27  C   UNL     1       2.699   2.772  21.135  0.00  0.00    +0.000 A 
ATOM     28  C   UNL     1       2.013   3.968  21.355  0.00  0.00    +0.000 A 
ATOM     29  C   UNL     1       2.246   5.090  20.543  0.00  0.00    +0.000 A 
ATOM     30  C   UNL     1       1.598   6.317  20.774  0.00  0.00    +0.000 A 
ENDBRANCH  20  21
ENDBRANCH   3  19
TORSDOF 4
ENDMDL
MODEL 9
REMARK VINA RESULT:      -7.8      3.816      5.313
REMARK  Name = 
REMARK  6 active torsions:
REMARK  status: ('A' for Active; 'I' for Inactive)
REMARK    1  A    between atoms: C_1  and  C_2
REMARK    2  A    between atoms: C_2  and  N_3
REMARK    3  A    between atoms: C_5  and  C_6
REMARK    4  A    between atoms: N_8  and  N_9
REMARK    5  A    between atoms: C_10  and  C_11
REMARK    6  A    between atoms: C_26  and  C_27
REMARK                            x       y       z     vdW  Elec       q    Type
REMARK                         _______ _______ _______ _____ _____    ______ ____
ROOT
ATOM      1  C   UNL     1      -0.918  11.588  22.740  0.00  0.00    +0.000 C 
ATOM      2  O   UNL     1      -0.804  10.543  23.378  0.00  0.00    +0.000 OA
ATOM      3  N   UNL     1      -0.262  11.866  21.552  0.00  0.00    +0.000 N 
ATOM      4  H   UNL     1      -0.404  12.761  21.076  0.00  0.00    +0.000 HD
ENDROOT
BRANCH   1   7
ATOM      5  N   UNL     1      -4.069  13.337  23.848  0.00  0.00    +0.000 N 
ATOM      6  C   UNL     1      -3.119  12.426  23.411  0.00  0.00    +0.000 A 
ATOM      7  C   UNL     1      -1.815  12.678  23.218  0.00  0.00    +0.000 A 
ATOM      8  C   UNL     1      -1.360  14.059  23.492  0.00  0.00    +0.000 A 
ATOM      9  O   UNL     1      -0.179  14.378  23.375  0.00  0.00    +0.000 OA
ATOM     10  C   UNL     1      -2.365  15.057  23.903  0.00  0.00    +0.000 A 
ATOM     11  C   UNL     1      -1.973  16.381  24.101  0.00  0.00    +0.000 A 
ATOM     12  C   UNL     1      -2.920  17.310  24.500  0.00  0.00    +0.000 A 
ATOM     13  C   UNL     1      -4.227  16.882  24.690  0.00  0.00    +0.000 A 
ATOM     14  C   UNL     1      -5.264  17.841  25.193  0.00  0.00    +0.000 C 
ATOM     15  N   UNL     1      -4.620  15.596  24.487  0.00  0.00    +0.000 NA
ATOM     16  C   UNL     1      -3.700  14.682  24.087  0.00  0.00    +0.000 A 
BRANCH   5  18
ATOM     17  C   UNL     1      -6.106  12.847  22.547  0.00  0.00    +0.000 C 
ATOM     18  C   UNL     1      -5.501  13.021  23.934  0.00  0.00    +0.000 C 
ENDBRANCH   5  18
ENDBRANCH   1   7
BRANCH   3  19
ATOM     19  N   UNL     1       0.587  10.944  21.034  0.00  0.00    +0.000 NA
ATOM     20  C   UNL     1       0.180  10.263  20.016  0.00  0.00    +0.000 C 
BRANCH  20  21
ATOM     21  C   UNL     1       1.070   9.243  19.421  0.00  0.00    +0.000 A 
ATOM     22  C   UNL     1       1.594   9.457  18.141  0.00  0.00    +0.000 A 
ATOM     23  C   UNL     1       2.468   8.529  17.580  0.00  0.00    +0.000 A 
ATOM     24  C   UNL     1       2.832   7.379  18.290  0.00  0.00    +0.000 A 
ATOM     25  C   UNL     1       3.743   6.462  17.748  0.00  0.00    +0.000 A 
ATOM     26  C   UNL     1       4.114   5.323  18.463  0.00  0.00    +0.000 A 
ATOM     27  C   UNL     1       3.562   5.079  19.717  0.00  0.00    +0.000 A 
ATOM     28  C   UNL     1       2.648   5.981  20.268  0.00  0.00    +0.000 A 
ATOM     29  C   UNL     1       2.282   7.146  19.576  0.00  0.00    +0.000 A 
ATOM     30  C   UNL     1       1.399   8.089  20.132  0.00  0.00    +0.000 A 
ENDBRANCH  20  21
ENDBRANCH   3  19
TORSDOF 4
ENDMDL
