MODEL 1
REMARK VINA RESULT:      -9.3      0.000      0.000
REMARK  Name = 
REMARK  5 active torsions:
REMARK  status: ('A' for Active; 'I' for Inactive)
REMARK    1  A    between atoms: C_5  and  C_6
REMARK    2  A    between atoms: C_6  and  C_7
REMARK    3  A    between atoms: C_6  and  C_24
REMARK    4  A    between atoms: C_7  and  C_8
REMARK    5  A    between atoms: C_13  and  C_14
REMARK                            x       y       z     vdW  Elec       q    Type
REMARK                         _______ _______ _______ _____ _____    ______ ____
ROOT
ATOM      1  C   UNL     1       3.451   4.601  18.620  0.00  0.00    +0.000 A 
ATOM      2  C   UNL     1       3.631   3.313  19.193  0.00  0.00    +0.000 A 
ATOM      3  C   UNL     1       3.084   2.948  20.415  0.00  0.00    +0.000 A 
ATOM      4  C   UNL     1       2.254   3.834  21.065  0.00  0.00    +0.000 A 
ATOM      5  C   UNL     1       2.034   5.096  20.511  0.00  0.00    +0.000 A 
ATOM      6  C   UNL     1       2.682   5.569  19.338  0.00  0.00    +0.000 A 
ENDROOT
BRANCH   6   7
ATOM      7  C   UNL     1       2.474   7.020  18.950  0.00  0.00    +0.000 A 
ATOM      8  C   UNL     1       2.900   7.508  17.708  0.00  0.00    +0.000 A 
ATOM      9  N   UNL     1       2.730   8.760  17.225  0.00  0.00    +0.000 NA
ATOM     10  C   UNL     1       1.969   9.580  17.963  0.00  0.00    +0.000 A 
ATOM     11  C   UNL     1       1.395   9.227  19.176  0.00  0.00    +0.000 A 
ATOM     12  C   UNL     1       0.479  10.098  19.793  0.00  0.00    +0.000 A 
ATOM     13  C   UNL     1      -0.109   9.768  21.008  0.00  0.00    +0.000 A 
ATOM     14  C   UNL     1       0.305   8.623  21.668  0.00  0.00    +0.000 A 
ATOM     15  C   UNL     1       1.235   7.765  21.065  0.00  0.00    +0.000 A 
ATOM     16  C   UNL     1       1.725   7.970  19.745  0.00  0.00    +0.000 A 
ENDBRANCH   6   7
BRANCH   1  17
ATOM     17  C   UNL     1       4.027   4.857  17.222  0.00  0.00    +0.000 C 
BRANCH  17  18
ATOM     18  C   UNL     1       5.557   4.680  16.970  0.00  0.00    +0.000 C 
BRANCH  18  23
ATOM     19  C   UNL     1       8.205   6.475  19.065  0.00  0.00    +0.000 A 
ATOM     20  C   UNL     1       8.190   7.691  18.404  0.00  0.00    +0.000 A 
ATOM     21  N   UNL     1       7.312   8.003  17.424  0.00  0.00    +0.000 NA
ATOM     22  C   UNL     1       6.441   7.037  17.064  0.00  0.00    +0.000 A 
ATOM     23  C   UNL     1       6.411   5.759  17.618  0.00  0.00    +0.000 A 
ATOM     24  C   UNL     1       7.292   5.506  18.676  0.00  0.00    +0.000 A 
ENDBRANCH  18  23
BRANCH  18  25
ATOM     25  C   UNL     1       5.854   4.471  15.495  0.00  0.00    +0.000 A 
ATOM     26  C   UNL     1       4.930   3.896  14.620  0.00  0.00    +0.000 A 
ATOM     27  C   UNL     1       5.268   3.711  13.280  0.00  0.00    +0.000 A 
ATOM     28  C   UNL     1       6.527   4.100  12.859  0.00  0.00    +0.000 A 
ATOM     29  N   UNL     1       7.449   4.651  13.671  0.00  0.00    +0.000 NA
ATOM     30  C   UNL     1       7.090   4.822  14.965  0.00  0.00    +0.000 A 
ENDBRANCH  18  25
ENDBRANCH  17  18
ENDBRANCH   1  17
TORSDOF 5
ENDMDL
MODEL 2
REMARK VINA RESULT:      -9.2      1.036      1.303
REMARK  Name = 
REMARK  5 active torsions:
REMARK  status: ('A' for Active; 'I' for Inactive)
REMARK    1  A    between atoms: C_5  and  C_6
REMARK    2  A    between atoms: C_6  and  C_7
REMARK    3  A    between atoms: C_6  and  C_24
REMARK    4  A    between atoms: C_7  and  C_8
REMARK    5  A    between atoms: C_13  and  C_14
REMARK                            x       y       z     vdW  Elec       q    Type
REMARK                         _______ _______ _______ _____ _____    ______ ____
ROOT
ATOM      1  C   UNL     1       3.687   4.154  17.700  0.00  0.00    +0.000 A 
ATOM      2  C   UNL     1       3.790   2.773  18.020  0.00  0.00    +0.000 A 
ATOM      3  C   UNL     1       3.125   2.196  19.093  0.00  0.00    +0.000 A 
ATOM      4  C   UNL     1       2.255   2.967  19.830  0.00  0.00    +0.000 A 
ATOM      5  C   UNL     1       2.111   4.320  19.520  0.00  0.00    +0.000 A 
ATOM      6  C   UNL     1       2.873   4.990  18.526  0.00  0.00    +0.000 A 
ENDROOT
BRANCH   6   7
ATOM      7  C   UNL     1       2.728   6.495  18.417  0.00  0.00    +0.000 A 
ATOM      8  C   UNL     1       3.116   7.179  17.258  0.00  0.00    +0.000 A 
ATOM      9  N   UNL     1       2.994   8.505  17.017  0.00  0.00    +0.000 NA
ATOM     10  C   UNL     1       2.320   9.212  17.935  0.00  0.00    +0.000 A 
ATOM     11  C   UNL     1       1.789   8.672  19.098  0.00  0.00    +0.000 A 
ATOM     12  C   UNL     1       0.958   9.459  19.915  0.00  0.00    +0.000 A 
ATOM     13  C   UNL     1       0.415   8.942  21.085  0.00  0.00    +0.000 A 
ATOM     14  C   UNL     1       0.796   7.678  21.503  0.00  0.00    +0.000 A 
ATOM     15  C   UNL     1       1.643   6.901  20.701  0.00  0.00    +0.000 A 
ATOM     16  C   UNL     1       2.076   7.319  19.412  0.00  0.00    +0.000 A 
ENDBRANCH   6   7
BRANCH   1  17
ATOM     17  C   UNL     1       4.394   4.657  16.436  0.00  0.00    +0.000 C 
BRANCH  17  18
ATOM     18  C   UNL     1       5.912   4.359  16.227  0.00  0.00    +0.000 C 
BRANCH  18  23
ATOM     19  C   UNL     1       7.582   7.359  17.910  0.00  0.00    +0.000 A 
ATOM     20  C   UNL     1       8.184   6.687  18.961  0.00  0.00    +0.000 A 
ATOM     21  N   UNL     1       8.187   5.341  19.088  0.00  0.00    +0.000 NA
ATOM     22  C   UNL     1       7.520   4.644  18.145  0.00  0.00    +0.000 A 
ATOM     23  C   UNL     1       6.827   5.221  17.083  0.00  0.00    +0.000 A 
ATOM     24  C   UNL     1       6.910   6.613  16.954  0.00  0.00    +0.000 A 
ENDBRANCH  18  23
BRANCH  18  25
ATOM     25  C   UNL     1       6.277   4.361  14.751  0.00  0.00    +0.000 A 
ATOM     26  C   UNL     1       5.586   3.597  13.809  0.00  0.00    +0.000 A 
ATOM     27  C   UNL     1       5.981   3.624  12.473  0.00  0.00    +0.000 A 
ATOM     28  C   UNL     1       7.064   4.409  12.122  0.00  0.00    +0.000 A 
ATOM     29  N   UNL     1       7.763   5.154  13.000  0.00  0.00    +0.000 NA
ATOM     30  C   UNL     1       7.351   5.111  14.290  0.00  0.00    +0.000 A 
ENDBRANCH  18  25
ENDBRANCH  17  18
ENDBRANCH   1  17
TORSDOF 5
ENDMDL
MODEL 3
REMARK VINA RESULT:      -9.0      3.387      8.984
REMARK  Name = 
REMARK  5 active torsions:
REMARK  status: ('A' for Active; 'I' for Inactive)
REMARK    1  A    between atoms: C_5  and  C_6
REMARK    2  A    between atoms: C_6  and  C_7
REMARK    3  A    between atoms: C_6  and  C_24
REMARK    4  A    between atoms: C_7  and  C_8
REMARK    5  A    between atoms: C_13  and  C_14
REMARK                            x       y       z     vdW  Elec       q    Type
REMARK                         _______ _______ _______ _____ _____    ______ ____
ROOT
ATOM      1  C   UNL     1      -0.096   9.726  20.558  0.00  0.00    +0.000 A 
ATOM      2  C   UNL     1      -0.748  10.281  21.692  0.00  0.00    +0.000 A 
ATOM      3  C   UNL     1      -0.340  10.029  22.995  0.00  0.00    +0.000 A 
ATOM      4  C   UNL     1       0.798   9.284  23.204  0.00  0.00    +0.000 A 
ATOM      5  C   UNL     1       1.477   8.751  22.107  0.00  0.00    +0.000 A 
ATOM      6  C   UNL     1       1.022   8.860  20.766  0.00  0.00    +0.000 A 
ENDROOT
BRANCH   6   7
ATOM      7  C   UNL     1       1.771   8.087  19.699  0.00  0.00    +0.000 A 
ATOM      8  C   UNL     1       2.332   8.736  18.591  0.00  0.00    +0.000 A 
ATOM      9  N   UNL     1       3.063   8.171  17.602  0.00  0.00    +0.000 NA
ATOM     10  C   UNL     1       3.383   6.880  17.768  0.00  0.00    +0.000 A 
ATOM     11  C   UNL     1       2.985   6.112  18.853  0.00  0.00    +0.000 A 
ATOM     12  C   UNL     1       3.509   4.818  19.019  0.00  0.00    +0.000 A 
ATOM     13  C   UNL     1       3.125   4.029  20.097  0.00  0.00    +0.000 A 
ATOM     14  C   UNL     1       2.129   4.484  20.945  0.00  0.00    +0.000 A 
ATOM     15  C   UNL     1       1.590   5.765  20.767  0.00  0.00    +0.000 A 
ATOM     16  C   UNL     1       2.080   6.675  19.789  0.00  0.00    +0.000 A 
ENDBRANCH   6   7
BRANCH   1  17
ATOM     17  C   UNL     1      -0.581  10.151  19.167  0.00  0.00    +0.000 C 
BRANCH  17  18
ATOM     18  C   UNL     1      -1.803  11.112  19.032  0.00  0.00    +0.000 C 
BRANCH  18  23
ATOM     19  C   UNL     1      -4.478  11.388  16.314  0.00  0.00    +0.000 A 
ATOM     20  C   UNL     1      -3.844  10.642  15.335  0.00  0.00    +0.000 A 
ATOM     21  N   UNL     1      -2.689   9.968  15.534  0.00  0.00    +0.000 NA
ATOM     22  C   UNL     1      -2.125  10.084  16.755  0.00  0.00    +0.000 A 
ATOM     23  C   UNL     1      -2.643  10.859  17.790  0.00  0.00    +0.000 A 
ATOM     24  C   UNL     1      -3.876  11.482  17.560  0.00  0.00    +0.000 A 
ENDBRANCH  18  23
BRANCH  18  25
ATOM     25  C   UNL     1      -1.386  12.564  19.201  0.00  0.00    +0.000 A 
ATOM     26  C   UNL     1      -0.415  13.163  18.397  0.00  0.00    +0.000 A 
ATOM     27  C   UNL     1      -0.061  14.493  18.614  0.00  0.00    +0.000 A 
ATOM     28  C   UNL     1      -0.685  15.182  19.639  0.00  0.00    +0.000 A 
ATOM     29  N   UNL     1      -1.619  14.640  20.443  0.00  0.00    +0.000 NA
ATOM     30  C   UNL     1      -1.946  13.347  20.203  0.00  0.00    +0.000 A 
ENDBRANCH  18  25
ENDBRANCH  17  18
ENDBRANCH   1  17
TORSDOF 5
ENDMDL
MODEL 4
REMARK VINA RESULT:      -8.9      3.269      8.620
REMARK  Name = 
REMARK  5 active torsions:
REMARK  status: ('A' for Active; 'I' for Inactive)
REMARK    1  A    between atoms: C_5  and  C_6
REMARK    2  A    between atoms: C_6  and  C_7
REMARK    3  A    between atoms: C_6  and  C_24
REMARK    4  A    between atoms: C_7  and  C_8
REMARK    5  A    between atoms: C_13  and  C_14
REMARK                            x       y       z     vdW  Elec       q    Type
REMARK                         _______ _______ _______ _____ _____    ______ ____
ROOT
ATOM      1  C   UNL     1      -0.153   9.629  20.630  0.00  0.00    +0.000 A 
ATOM      2  C   UNL     1      -0.782  10.179  21.780  0.00  0.00    +0.000 A 
ATOM      3  C   UNL     1      -0.306   9.978  23.069  0.00  0.00    +0.000 A 
ATOM      4  C   UNL     1       0.875   9.293  23.243  0.00  0.00    +0.000 A 
ATOM      5  C   UNL     1       1.531   8.767  22.129  0.00  0.00    +0.000 A 
ATOM      6  C   UNL     1       1.014   8.823  20.807  0.00  0.00    +0.000 A 
ENDROOT
BRANCH   6   7
ATOM      7  C   UNL     1       1.753   8.061  19.725  0.00  0.00    +0.000 A 
ATOM      8  C   UNL     1       2.290   8.720  18.611  0.00  0.00    +0.000 A 
ATOM      9  N   UNL     1       3.010   8.166  17.608  0.00  0.00    +0.000 NA
ATOM     10  C   UNL     1       3.345   6.878  17.763  0.00  0.00    +0.000 A 
ATOM     11  C   UNL     1       2.972   6.102  18.851  0.00  0.00    +0.000 A 
ATOM     12  C   UNL     1       3.510   4.811  19.003  0.00  0.00    +0.000 A 
ATOM     13  C   UNL     1       3.151   4.014  20.083  0.00  0.00    +0.000 A 
ATOM     14  C   UNL     1       2.164   4.457  20.949  0.00  0.00    +0.000 A 
ATOM     15  C   UNL     1       1.610   5.733  20.785  0.00  0.00    +0.000 A 
ATOM     16  C   UNL     1       2.077   6.652  19.804  0.00  0.00    +0.000 A 
ENDBRANCH   6   7
BRANCH   1  17
ATOM     17  C   UNL     1      -0.718   9.997  19.253  0.00  0.00    +0.000 C 
BRANCH  17  18
ATOM     18  C   UNL     1      -1.320  11.417  19.016  0.00  0.00    +0.000 C 
BRANCH  18  23
ATOM     19  C   UNL     1      -3.192  10.889  15.725  0.00  0.00    +0.000 A 
ATOM     20  C   UNL     1      -4.469  11.181  16.174  0.00  0.00    +0.000 A 
ATOM     21  N   UNL     1      -4.741  11.646  17.414  0.00  0.00    +0.000 NA
ATOM     22  C   UNL     1      -3.692  11.782  18.252  0.00  0.00    +0.000 A 
ATOM     23  C   UNL     1      -2.377  11.457  17.924  0.00  0.00    +0.000 A 
ATOM     24  C   UNL     1      -2.135  11.046  16.608  0.00  0.00    +0.000 A 
ENDBRANCH  18  23
BRANCH  18  25
ATOM     25  C   UNL     1      -0.227  12.460  18.847  0.00  0.00    +0.000 A 
ATOM     26  C   UNL     1       1.098  12.117  18.572  0.00  0.00    +0.000 A 
ATOM     27  C   UNL     1       2.060  13.118  18.447  0.00  0.00    +0.000 A 
ATOM     28  C   UNL     1       1.666  14.434  18.611  0.00  0.00    +0.000 A 
ATOM     29  N   UNL     1       0.402  14.807  18.885  0.00  0.00    +0.000 NA
ATOM     30  C   UNL     1      -0.510  13.812  18.995  0.00  0.00    +0.000 A 
ENDBRANCH  18  25
ENDBRANCH  17  18
ENDBRANCH   1  17
TORSDOF 5
ENDMDL
MODEL 5
REMARK VINA RESULT:      -8.8      7.143     11.363
REMARK  Name = 
REMARK  5 active torsions:
REMARK  status: ('A' for Active; 'I' for Inactive)
REMARK    1  A    between atoms: C_5  and  C_6
REMARK    2  A    between atoms: C_6  and  C_7
REMARK    3  A    between atoms: C_6  and  C_24
REMARK    4  A    between atoms: C_7  and  C_8
REMARK    5  A    between atoms: C_13  and  C_14
REMARK                            x       y       z     vdW  Elec       q    Type
REMARK                         _______ _______ _______ _____ _____    ______ ____
ROOT
ATOM      1  C   UNL     1      -3.220  12.174  19.284  0.00  0.00    +0.000 A 
ATOM      2  C   UNL     1      -2.633  11.589  18.129  0.00  0.00    +0.000 A 
ATOM      3  C   UNL     1      -3.374  11.196  17.023  0.00  0.00    +0.000 A 
ATOM      4  C   UNL     1      -4.724  11.462  16.997  0.00  0.00    +0.000 A 
ATOM      5  C   UNL     1      -5.324  12.063  18.106  0.00  0.00    +0.000 A 
ATOM      6  C   UNL     1      -4.638  12.354  19.315  0.00  0.00    +0.000 A 
ENDROOT
BRANCH   6   7
ATOM      7  C   UNL     1      -5.456  12.849  20.491  0.00  0.00    +0.000 A 
ATOM      8  C   UNL     1      -6.224  11.968  21.264  0.00  0.00    +0.000 A 
ATOM      9  N   UNL     1      -6.953  12.275  22.362  0.00  0.00    +0.000 NA
ATOM     10  C   UNL     1      -6.827  13.526  22.825  0.00  0.00    +0.000 A 
ATOM     11  C   UNL     1      -6.036  14.499  22.231  0.00  0.00    +0.000 A 
ATOM     12  C   UNL     1      -5.839  15.730  22.884  0.00  0.00    +0.000 A 
ATOM     13  C   UNL     1      -5.053  16.721  22.309  0.00  0.00    +0.000 A 
ATOM     14  C   UNL     1      -4.558  16.532  21.029  0.00  0.00    +0.000 A 
ATOM     15  C   UNL     1      -4.774  15.316  20.368  0.00  0.00    +0.000 A 
ATOM     16  C   UNL     1      -5.416  14.208  20.989  0.00  0.00    +0.000 A 
ENDBRANCH   6   7
BRANCH   1  17
ATOM     17  C   UNL     1      -2.289  12.652  20.404  0.00  0.00    +0.000 C 
BRANCH  17  18
ATOM     18  C   UNL     1      -2.274  11.902  21.773  0.00  0.00    +0.000 C 
BRANCH  18  23
ATOM     19  C   UNL     1      -2.278  14.935  24.101  0.00  0.00    +0.000 A 
ATOM     20  C   UNL     1      -3.294  14.531  24.951  0.00  0.00    +0.000 A 
ATOM     21  N   UNL     1      -3.881  13.314  24.895  0.00  0.00    +0.000 NA
ATOM     22  C   UNL     1      -3.460  12.486  23.917  0.00  0.00    +0.000 A 
ATOM     23  C   UNL     1      -2.492  12.814  22.970  0.00  0.00    +0.000 A 
ATOM     24  C   UNL     1      -1.864  14.057  23.110  0.00  0.00    +0.000 A 
ENDBRANCH  18  23
BRANCH  18  25
ATOM     25  C   UNL     1      -1.051  11.009  21.901  0.00  0.00    +0.000 A 
ATOM     26  C   UNL     1      -0.267  10.652  20.802  0.00  0.00    +0.000 A 
ATOM     27  C   UNL     1       0.832   9.813  20.979  0.00  0.00    +0.000 A 
ATOM     28  C   UNL     1       1.106   9.348  22.253  0.00  0.00    +0.000 A 
ATOM     29  N   UNL     1       0.371   9.660  23.337  0.00  0.00    +0.000 NA
ATOM     30  C   UNL     1      -0.686  10.482  23.133  0.00  0.00    +0.000 A 
ENDBRANCH  18  25
ENDBRANCH  17  18
ENDBRANCH   1  17
TORSDOF 5
ENDMDL
MODEL 6
REMARK VINA RESULT:      -8.7      1.010      1.450
REMARK  Name = 
REMARK  5 active torsions:
REMARK  status: ('A' for Active; 'I' for Inactive)
REMARK    1  A    between atoms: C_5  and  C_6
REMARK    2  A    between atoms: C_6  and  C_7
REMARK    3  A    between atoms: C_6  and  C_24
REMARK    4  A    between atoms: C_7  and  C_8
REMARK    5  A    between atoms: C_13  and  C_14
REMARK                            x       y       z     vdW  Elec       q    Type
REMARK                         _______ _______ _______ _____ _____    ______ ____
ROOT
ATOM      1  C   UNL     1       3.596   5.455  18.713  0.00  0.00    +0.000 A 
ATOM      2  C   UNL     1       3.876   4.142  19.180  0.00  0.00    +0.000 A 
ATOM      3  C   UNL     1       3.178   3.547  20.222  0.00  0.00    +0.000 A 
ATOM      4  C   UNL     1       2.107   4.214  20.773  0.00  0.00    +0.000 A 
ATOM      5  C   UNL     1       1.790   5.494  20.314  0.00  0.00    +0.000 A 
ATOM      6  C   UNL     1       2.558   6.202  19.352  0.00  0.00    +0.000 A 
ENDROOT
BRANCH   6   7
ATOM      7  C   UNL     1       2.190   7.647  19.076  0.00  0.00    +0.000 A 
ATOM      8  C   UNL     1       2.360   8.209  17.804  0.00  0.00    +0.000 A 
ATOM      9  N   UNL     1       2.026   9.463  17.419  0.00  0.00    +0.000 NA
ATOM     10  C   UNL     1       1.352  10.197  18.315  0.00  0.00    +0.000 A 
ATOM     11  C   UNL     1       1.022   9.759  19.590  0.00  0.00    +0.000 A 
ATOM     12  C   UNL     1       0.173  10.538  20.395  0.00  0.00    +0.000 A 
ATOM     13  C   UNL     1      -0.171  10.122  21.676  0.00  0.00    +0.000 A 
ATOM     14  C   UNL     1       0.426   8.986  22.199  0.00  0.00    +0.000 A 
ATOM     15  C   UNL     1       1.291   8.222  21.405  0.00  0.00    +0.000 A 
ATOM     16  C   UNL     1       1.529   8.510  20.032  0.00  0.00    +0.000 A 
ENDBRANCH   6   7
BRANCH   1  17
ATOM     17  C   UNL     1       4.373   5.969  17.496  0.00  0.00    +0.000 C 
BRANCH  17  18
ATOM     18  C   UNL     1       5.838   5.490  17.251  0.00  0.00    +0.000 C 
BRANCH  18  23
ATOM     19  C   UNL     1       7.755   8.770  17.680  0.00  0.00    +0.000 A 
ATOM     20  C   UNL     1       8.565   8.390  18.737  0.00  0.00    +0.000 A 
ATOM     21  N   UNL     1       8.617   7.131  19.229  0.00  0.00    +0.000 NA
ATOM     22  C   UNL     1       7.788   6.228  18.664  0.00  0.00    +0.000 A 
ATOM     23  C   UNL     1       6.888   6.518  17.641  0.00  0.00    +0.000 A 
ATOM     24  C   UNL     1       6.920   7.817  17.118  0.00  0.00    +0.000 A 
ENDBRANCH  18  23
BRANCH  18  25
ATOM     25  C   UNL     1       6.013   4.941  15.845  0.00  0.00    +0.000 A 
ATOM     26  C   UNL     1       7.188   5.119  15.113  0.00  0.00    +0.000 A 
ATOM     27  C   UNL     1       7.281   4.609  13.819  0.00  0.00    +0.000 A 
ATOM     28  C   UNL     1       6.189   3.942  13.295  0.00  0.00    +0.000 A 
ATOM     29  N   UNL     1       5.035   3.755  13.963  0.00  0.00    +0.000 NA
ATOM     30  C   UNL     1       4.977   4.258  15.219  0.00  0.00    +0.000 A 
ENDBRANCH  18  25
ENDBRANCH  17  18
ENDBRANCH   1  17
TORSDOF 5
ENDMDL
MODEL 7
REMARK VINA RESULT:      -8.7      8.038     11.441
REMARK  Name = 
REMARK  5 active torsions:
REMARK  status: ('A' for Active; 'I' for Inactive)
REMARK    1  A    between atoms: C_5  and  C_6
REMARK    2  A    between atoms: C_6  and  C_7
REMARK    3  A    between atoms: C_6  and  C_24
REMARK    4  A    between atoms: C_7  and  C_8
REMARK    5  A    between atoms: C_13  and  C_14
REMARK                            x       y       z     vdW  Elec       q    Type
REMARK                         _______ _______ _______ _____ _____    ______ ____
ROOT
ATOM      1  C   UNL     1       9.619  12.104  20.551  0.00  0.00    +0.000 A 
ATOM      2  C   UNL     1       9.215  10.768  20.281  0.00  0.00    +0.000 A 
ATOM      3  C   UNL     1       9.323  10.188  19.024  0.00  0.00    +0.000 A 
ATOM      4  C   UNL     1       9.928  10.897  18.012  0.00  0.00    +0.000 A 
ATOM      5  C   UNL     1      10.362  12.201  18.256  0.00  0.00    +0.000 A 
ATOM      6  C   UNL     1      10.148  12.890  19.481  0.00  0.00    +0.000 A 
ENDROOT
BRANCH   6   7
ATOM      7  C   UNL     1      10.524  14.357  19.543  0.00  0.00    +0.000 A 
ATOM      8  C   UNL     1      11.856  14.759  19.703  0.00  0.00    +0.000 A 
ATOM      9  N   UNL     1      12.325  16.028  19.724  0.00  0.00    +0.000 NA
ATOM     10  C   UNL     1      11.438  16.991  19.438  0.00  0.00    +0.000 A 
ATOM     11  C   UNL     1      10.098  16.758  19.164  0.00  0.00    +0.000 A 
ATOM     12  C   UNL     1       9.285  17.814  18.714  0.00  0.00    +0.000 A 
ATOM     13  C   UNL     1       7.940  17.606  18.435  0.00  0.00    +0.000 A 
ATOM     14  C   UNL     1       7.375  16.373  18.717  0.00  0.00    +0.000 A 
ATOM     15  C   UNL     1       8.179  15.327  19.189  0.00  0.00    +0.000 A 
ATOM     16  C   UNL     1       9.591  15.442  19.316  0.00  0.00    +0.000 A 
ENDBRANCH   6   7
BRANCH   1  17
ATOM     17  C   UNL     1       9.538  12.604  21.998  0.00  0.00    +0.000 C 
BRANCH  17  18
ATOM     18  C   UNL     1       8.288  13.410  22.471  0.00  0.00    +0.000 C 
BRANCH  18  23
ATOM     19  C   UNL     1      10.076  16.760  22.920  0.00  0.00    +0.000 A 
ATOM     20  C   UNL     1       8.982  17.592  22.757  0.00  0.00    +0.000 A 
ATOM     21  N   UNL     1       7.710  17.147  22.637  0.00  0.00    +0.000 NA
ATOM     22  C   UNL     1       7.537  15.809  22.636  0.00  0.00    +0.000 A 
ATOM     23  C   UNL     1       8.573  14.882  22.728  0.00  0.00    +0.000 A 
ATOM     24  C   UNL     1       9.863  15.389  22.921  0.00  0.00    +0.000 A 
ENDBRANCH  18  23
BRANCH  18  25
ATOM     25  C   UNL     1       7.585  12.714  23.624  0.00  0.00    +0.000 A 
ATOM     26  C   UNL     1       8.125  12.665  24.911  0.00  0.00    +0.000 A 
ATOM     27  C   UNL     1       7.442  11.993  25.923  0.00  0.00    +0.000 A 
ATOM     28  C   UNL     1       6.241  11.382  25.613  0.00  0.00    +0.000 A 
ATOM     29  N   UNL     1       5.689  11.398  24.385  0.00  0.00    +0.000 NA
ATOM     30  C   UNL     1       6.374  12.063  23.424  0.00  0.00    +0.000 A 
ENDBRANCH  18  25
ENDBRANCH  17  18
ENDBRANCH   1  17
TORSDOF 5
ENDMDL
MODEL 8
REMARK VINA RESULT:      -8.7      7.373     11.615
REMARK  Name = 
REMARK  5 active torsions:
REMARK  status: ('A' for Active; 'I' for Inactive)
REMARK    1  A    between atoms: C_5  and  C_6
REMARK    2  A    between atoms: C_6  and  C_7
REMARK    3  A    between atoms: C_6  and  C_24
REMARK    4  A    between atoms: C_7  and  C_8
REMARK    5  A    between atoms: C_13  and  C_14
REMARK                            x       y       z     vdW  Elec       q    Type
REMARK                         _______ _______ _______ _____ _____    ______ ____
ROOT
ATOM      1  C   UNL     1      -3.679  12.511  19.695  0.00  0.00    +0.000 A 
ATOM      2  C   UNL     1      -3.572  11.468  18.735  0.00  0.00    +0.000 A 
ATOM      3  C   UNL     1      -4.623  11.093  17.909  0.00  0.00    +0.000 A 
ATOM      4  C   UNL     1      -5.793  11.816  17.950  0.00  0.00    +0.000 A 
ATOM      5  C   UNL     1      -5.916  12.866  18.862  0.00  0.00    +0.000 A 
ATOM      6  C   UNL     1      -4.925  13.198  19.825  0.00  0.00    +0.000 A 
ENDROOT
BRANCH   6   7
ATOM      7  C   UNL     1      -5.268  14.251  20.859  0.00  0.00    +0.000 A 
ATOM      8  C   UNL     1      -5.020  15.610  20.622  0.00  0.00    +0.000 A 
ATOM      9  N   UNL     1      -5.323  16.646  21.437  0.00  0.00    +0.000 NA
ATOM     10  C   UNL     1      -6.045  16.349  22.527  0.00  0.00    +0.000 A 
ATOM     11  C   UNL     1      -6.453  15.066  22.864  0.00  0.00    +0.000 A 
ATOM     12  C   UNL     1      -7.344  14.879  23.936  0.00  0.00    +0.000 A 
ATOM     13  C   UNL     1      -7.766  13.604  24.294  0.00  0.00    +0.000 A 
ATOM     14  C   UNL     1      -7.208  12.506  23.661  0.00  0.00    +0.000 A 
ATOM     15  C   UNL     1      -6.301  12.691  22.609  0.00  0.00    +0.000 A 
ATOM     16  C   UNL     1      -5.980  13.976  22.090  0.00  0.00    +0.000 A 
ENDBRANCH   6   7
BRANCH   1  17
ATOM     17  C   UNL     1      -2.422  12.896  20.485  0.00  0.00    +0.000 C 
BRANCH  17  18
ATOM     18  C   UNL     1      -2.241  12.386  21.949  0.00  0.00    +0.000 C 
BRANCH  18  23
ATOM     19  C   UNL     1      -2.831  14.645  24.976  0.00  0.00    +0.000 A 
ATOM     20  C   UNL     1      -1.588  15.255  25.015  0.00  0.00    +0.000 A 
ATOM     21  N   UNL     1      -0.635  15.077  24.072  0.00  0.00    +0.000 NA
ATOM     22  C   UNL     1      -0.927  14.217  23.073  0.00  0.00    +0.000 A 
ATOM     23  C   UNL     1      -2.119  13.504  22.973  0.00  0.00    +0.000 A 
ATOM     24  C   UNL     1      -3.102  13.773  23.933  0.00  0.00    +0.000 A 
ENDBRANCH  18  23
BRANCH  18  25
ATOM     25  C   UNL     1      -1.133  11.350  22.041  0.00  0.00    +0.000 A 
ATOM     26  C   UNL     1      -0.340  11.004  20.945  0.00  0.00    +0.000 A 
ATOM     27  C   UNL     1       0.649  10.031  21.086  0.00  0.00    +0.000 A 
ATOM     28  C   UNL     1       0.806   9.428  22.320  0.00  0.00    +0.000 A 
ATOM     29  N   UNL     1       0.058   9.726  23.399  0.00  0.00    +0.000 NA
ATOM     30  C   UNL     1      -0.890  10.678  23.232  0.00  0.00    +0.000 A 
ENDBRANCH  18  25
ENDBRANCH  17  18
ENDBRANCH   1  17
TORSDOF 5
ENDMDL
MODEL 9
REMARK VINA RESULT:      -8.6      4.736      8.813
REMARK  Name = 
REMARK  5 active torsions:
REMARK  status: ('A' for Active; 'I' for Inactive)
REMARK    1  A    between atoms: C_5  and  C_6
REMARK    2  A    between atoms: C_6  and  C_7
REMARK    3  A    between atoms: C_6  and  C_24
REMARK    4  A    between atoms: C_7  and  C_8
REMARK    5  A    between atoms: C_13  and  C_14
REMARK                            x       y       z     vdW  Elec       q    Type
REMARK                         _______ _______ _______ _____ _____    ______ ____
ROOT
ATOM      1  C   UNL     1      -2.235  10.583  17.957  0.00  0.00    +0.000 A 
ATOM      2  C   UNL     1      -2.093   9.886  16.727  0.00  0.00    +0.000 A 
ATOM      3  C   UNL     1      -2.991  10.018  15.677  0.00  0.00    +0.000 A 
ATOM      4  C   UNL     1      -4.016  10.930  15.788  0.00  0.00    +0.000 A 
ATOM      5  C   UNL     1      -4.163  11.652  16.974  0.00  0.00    +0.000 A 
ATOM      6  C   UNL     1      -3.358  11.451  18.127  0.00  0.00    +0.000 A 
ENDROOT
BRANCH   6   7
ATOM      7  C   UNL     1      -3.742  12.187  19.395  0.00  0.00    +0.000 A 
ATOM      8  C   UNL     1      -2.865  13.096  20.001  0.00  0.00    +0.000 A 
ATOM      9  N   UNL     1      -3.106  13.850  21.099  0.00  0.00    +0.000 NA
ATOM     10  C   UNL     1      -4.355  13.809  21.581  0.00  0.00    +0.000 A 
ATOM     11  C   UNL     1      -5.371  13.030  21.045  0.00  0.00    +0.000 A 
ATOM     12  C   UNL     1      -6.688  13.182  21.517  0.00  0.00    +0.000 A 
ATOM     13  C   UNL     1      -7.722  12.413  20.998  0.00  0.00    +0.000 A 
ATOM     14  C   UNL     1      -7.426  11.409  20.090  0.00  0.00    +0.000 A 
ATOM     15  C   UNL     1      -6.111  11.242  19.636  0.00  0.00    +0.000 A 
ATOM     16  C   UNL     1      -5.055  12.121  20.003  0.00  0.00    +0.000 A 
ENDBRANCH   6   7
BRANCH   1  17
ATOM     17  C   UNL     1      -1.129  10.427  19.008  0.00  0.00    +0.000 C 
BRANCH  17  18
ATOM     18  C   UNL     1       0.368  10.512  18.576  0.00  0.00    +0.000 C 
BRANCH  18  23
ATOM     19  C   UNL     1       2.742   7.567  18.024  0.00  0.00    +0.000 A 
ATOM     20  C   UNL     1       2.782   7.097  19.326  0.00  0.00    +0.000 A 
ATOM     21  N   UNL     1       2.011   7.585  20.324  0.00  0.00    +0.000 NA
ATOM     22  C   UNL     1       1.200   8.617  20.011  0.00  0.00    +0.000 A 
ATOM     23  C   UNL     1       1.129   9.208  18.752  0.00  0.00    +0.000 A 
ATOM     24  C   UNL     1       1.893   8.624  17.734  0.00  0.00    +0.000 A 
ENDBRANCH  18  23
BRANCH  18  25
ATOM     25  C   UNL     1       1.058  11.711  19.207  0.00  0.00    +0.000 A 
ATOM     26  C   UNL     1       0.644  12.257  20.423  0.00  0.00    +0.000 A 
ATOM     27  C   UNL     1       1.305  13.371  20.941  0.00  0.00    +0.000 A 
ATOM     28  C   UNL     1       2.355  13.908  20.219  0.00  0.00    +0.000 A 
ATOM     29  N   UNL     1       2.779  13.418  19.040  0.00  0.00    +0.000 NA
ATOM     30  C   UNL     1       2.121  12.333  18.565  0.00  0.00    +0.000 A 
ENDBRANCH  18  25
ENDBRANCH  17  18
ENDBRANCH   1  17
TORSDOF 5
ENDMDL
