MODEL 1
REMARK VINA RESULT:      -6.8      0.000      0.000
REMARK  Name = 
REMARK  13 active torsions:
REMARK  status: ('A' for Active; 'I' for Inactive)
REMARK    1  A    between atoms: C_1  and  C_2
REMARK    2  A    between atoms: C_2  and  C_3
REMARK    3  A    between atoms: C_3  and  C_4
REMARK    4  A    between atoms: C_4  and  C_5
REMARK    5  A    between atoms: C_5  and  C_6
REMARK    6  A    between atoms: C_6  and  C_7
REMARK    7  A    between atoms: C_7  and  C_8
REMARK    8  A    between atoms: N_10  and  C_11
REMARK    9  A    between atoms: C_14  and  N_15
REMARK   10  A    between atoms: C_21  and  C_22
REMARK   11  A    between atoms: N_24  and  C_25
REMARK   12  A    between atoms: N_24  and  C_26
REMARK   13  A    between atoms: N_27  and  C_28
REMARK                            x       y       z     vdW  Elec       q    Type
REMARK                         _______ _______ _______ _____ _____    ______ ____
ROOT
ATOM      1  N   UNL     1      -0.405  10.048  20.620  0.00  0.00    +0.000 N 
ATOM      2  C   UNL     1      -0.377  11.347  21.136  0.00  0.00    +0.000 A 
ATOM      3  N   UNL     1      -1.155  11.546  22.219  0.00  0.00    +0.000 NA
ATOM      4  C   UNL     1      -1.109  12.742  22.854  0.00  0.00    +0.000 A 
ATOM      5  C   UNL     1      -0.279  13.746  22.372  0.00  0.00    +0.000 A 
ATOM      6  C   UNL     1       0.096  15.048  22.751  0.00  0.00    +0.000 A 
ATOM      7  C   UNL     1       0.916  15.615  21.772  0.00  0.00    +0.000 A 
ATOM      8  N   UNL     1       1.211  14.555  20.896  0.00  0.00    +0.000 N 
ATOM      9  C   UNL     1       0.435  13.454  21.236  0.00  0.00    +0.000 A 
ATOM     10  N   UNL     1       0.415  12.280  20.591  0.00  0.00    +0.000 NA
ATOM     11  H   UNL     1      -0.983   9.483  21.225  0.00  0.00    +0.000 HD
ENDROOT
BRANCH   1  15
ATOM     12  C   UNL     1       2.536   7.885  18.470  0.00  0.00    +0.000 A 
ATOM     13  C   UNL     1       2.245   7.589  19.800  0.00  0.00    +0.000 A 
ATOM     14  C   UNL     1       1.259   8.304  20.489  0.00  0.00    +0.000 A 
ATOM     15  C   UNL     1       0.554   9.346  19.875  0.00  0.00    +0.000 A 
ATOM     16  C   UNL     1       0.832   9.602  18.529  0.00  0.00    +0.000 A 
ATOM     17  C   UNL     1       1.825   8.902  17.839  0.00  0.00    +0.000 A 
BRANCH  12  20
ATOM     18  C   UNL     1       3.594   5.857  17.500  0.00  0.00    +0.000 C 
ATOM     19  O   UNL     1       2.777   5.010  17.857  0.00  0.00    +0.000 OA
ATOM     20  N   UNL     1       3.519   7.216  17.720  0.00  0.00    +0.000 N 
ATOM     21  H   UNL     1       4.190   7.799  17.236  0.00  0.00    +0.000 HD
BRANCH  18  22
ATOM     22  C   UNL     1       4.823   5.441  16.721  0.00  0.00    +0.000 C 
BRANCH  22  23
ATOM     23  C   UNL     1       5.759   4.608  17.588  0.00  0.00    +0.000 C 
BRANCH  23  24
ATOM     24  C   UNL     1       6.187   5.368  18.841  0.00  0.00    +0.000 C 
BRANCH  24  25
ATOM     25  C   UNL     1       7.608   5.908  18.684  0.00  0.00    +0.000 C 
BRANCH  25  26
ATOM     26  C   UNL     1       7.637   7.172  17.828  0.00  0.00    +0.000 C 
BRANCH  26  28
ATOM     27  C   UNL     1       8.197   9.625  17.858  0.00  0.00    +0.000 C 
ATOM     28  C   UNL     1       8.453   8.274  18.503  0.00  0.00    +0.000 C 
ENDBRANCH  26  28
ENDBRANCH  25  26
ENDBRANCH  24  25
ENDBRANCH  23  24
ENDBRANCH  22  23
ENDBRANCH  18  22
ENDBRANCH  12  20
ENDBRANCH   1  15
BRANCH   7  29
ATOM     29  C   UNL     1       1.468  16.976  21.719  0.00  0.00    +0.000 C 
ATOM     30  O   UNL     1       0.807  17.900  21.245  0.00  0.00    +0.000 OA
ATOM     31  N   UNL     1       2.774  17.254  22.187  0.00  0.00    +0.000 N 
ATOM     32  C   UNL     1       3.505  16.506  23.203  0.00  0.00    +0.000 C 
ATOM     33  C   UNL     1       3.256  18.622  22.028  0.00  0.00    +0.000 C 
ENDBRANCH   7  29
BRANCH   8  34
ATOM     34  C   UNL     1       2.154  14.457  19.792  0.00  0.00    +0.000 C 
ATOM     35  C   UNL     1       2.031  15.460  18.651  0.00  0.00    +0.000 C 
ATOM     36  C   UNL     1       3.251  15.127  17.791  0.00  0.00    +0.000 C 
ATOM     37  C   UNL     1       4.338  14.666  18.765  0.00  0.00    +0.000 C 
ATOM     38  C   UNL     1       3.651  14.402  20.110  0.00  0.00    +0.000 C 
ENDBRANCH   8  34
TORSDOF 10
ENDMDL
MODEL 2
REMARK VINA RESULT:      -6.4      2.528      3.909
REMARK  Name = 
REMARK  13 active torsions:
REMARK  status: ('A' for Active; 'I' for Inactive)
REMARK    1  A    between atoms: C_1  and  C_2
REMARK    2  A    between atoms: C_2  and  C_3
REMARK    3  A    between atoms: C_3  and  C_4
REMARK    4  A    between atoms: C_4  and  C_5
REMARK    5  A    between atoms: C_5  and  C_6
REMARK    6  A    between atoms: C_6  and  C_7
REMARK    7  A    between atoms: C_7  and  C_8
REMARK    8  A    between atoms: N_10  and  C_11
REMARK    9  A    between atoms: C_14  and  N_15
REMARK   10  A    between atoms: C_21  and  C_22
REMARK   11  A    between atoms: N_24  and  C_25
REMARK   12  A    between atoms: N_24  and  C_26
REMARK   13  A    between atoms: N_27  and  C_28
REMARK                            x       y       z     vdW  Elec       q    Type
REMARK                         _______ _______ _______ _____ _____    ______ ____
ROOT
ATOM      1  N   UNL     1       0.420   7.515  21.415  0.00  0.00    +0.000 N 
ATOM      2  C   UNL     1       0.028   8.831  21.681  0.00  0.00    +0.000 A 
ATOM      3  N   UNL     1      -0.609   9.007  22.855  0.00  0.00    +0.000 NA
ATOM      4  C   UNL     1      -0.930  10.263  23.250  0.00  0.00    +0.000 A 
ATOM      5  C   UNL     1      -0.613  11.342  22.435  0.00  0.00    +0.000 A 
ATOM      6  C   UNL     1      -0.707  12.745  22.494  0.00  0.00    +0.000 A 
ATOM      7  C   UNL     1      -0.304  13.305  21.278  0.00  0.00    +0.000 A 
ATOM      8  N   UNL     1       0.243  12.230  20.555  0.00  0.00    +0.000 N 
ATOM      9  C   UNL     1      -0.006  11.047  21.239  0.00  0.00    +0.000 A 
ATOM     10  N   UNL     1       0.328   9.817  20.826  0.00  0.00    +0.000 NA
ATOM     11  H   UNL     1       0.186   6.950  22.218  0.00  0.00    +0.000 HD
ENDROOT
BRANCH   1  15
ATOM     12  C   UNL     1       3.540   6.113  18.913  0.00  0.00    +0.000 A 
ATOM     13  C   UNL     1       3.009   7.393  18.765  0.00  0.00    +0.000 A 
ATOM     14  C   UNL     1       1.990   7.843  19.610  0.00  0.00    +0.000 A 
ATOM     15  C   UNL     1       1.459   7.022  20.612  0.00  0.00    +0.000 A 
ATOM     16  C   UNL     1       2.031   5.756  20.772  0.00  0.00    +0.000 A 
ATOM     17  C   UNL     1       3.040   5.294  19.922  0.00  0.00    +0.000 A 
BRANCH  12  20
ATOM     18  C   UNL     1       5.838   5.271  18.489  0.00  0.00    +0.000 C 
ATOM     19  O   UNL     1       6.288   5.319  19.632  0.00  0.00    +0.000 OA
ATOM     20  N   UNL     1       4.556   5.590  18.095  0.00  0.00    +0.000 N 
ATOM     21  H   UNL     1       4.294   5.358  17.145  0.00  0.00    +0.000 HD
BRANCH  18  22
ATOM     22  C   UNL     1       6.720   4.810  17.349  0.00  0.00    +0.000 C 
BRANCH  22  23
ATOM     23  C   UNL     1       5.883   4.218  16.220  0.00  0.00    +0.000 C 
BRANCH  23  24
ATOM     24  C   UNL     1       6.434   4.609  14.851  0.00  0.00    +0.000 C 
BRANCH  24  25
ATOM     25  C   UNL     1       5.531   4.081  13.737  0.00  0.00    +0.000 C 
BRANCH  25  26
ATOM     26  C   UNL     1       6.345   3.547  12.561  0.00  0.00    +0.000 C 
BRANCH  26  28
ATOM     27  C   UNL     1       6.535   1.550  11.040  0.00  0.00    +0.000 C 
ATOM     28  C   UNL     1       5.588   2.442  11.825  0.00  0.00    +0.000 C 
ENDBRANCH  26  28
ENDBRANCH  25  26
ENDBRANCH  24  25
ENDBRANCH  23  24
ENDBRANCH  22  23
ENDBRANCH  18  22
ENDBRANCH  12  20
ENDBRANCH   1  15
BRANCH   7  29
ATOM     29  C   UNL     1      -0.317  14.718  20.874  0.00  0.00    +0.000 C 
ATOM     30  O   UNL     1      -1.322  15.211  20.364  0.00  0.00    +0.000 OA
ATOM     31  N   UNL     1       0.826  15.536  21.038  0.00  0.00    +0.000 N 
ATOM     32  C   UNL     1       1.882  15.355  22.027  0.00  0.00    +0.000 C 
ATOM     33  C   UNL     1       0.735  16.905  20.544  0.00  0.00    +0.000 C 
ENDBRANCH   7  29
BRANCH   8  34
ATOM     34  C   UNL     1       0.992  12.196  19.308  0.00  0.00    +0.000 C 
ATOM     35  C   UNL     1       2.332  12.920  19.254  0.00  0.00    +0.000 C 
ATOM     36  C   UNL     1       2.854  12.539  17.868  0.00  0.00    +0.000 C 
ATOM     37  C   UNL     1       2.333  11.126  17.597  0.00  0.00    +0.000 C 
ATOM     38  C   UNL     1       1.248  10.841  18.643  0.00  0.00    +0.000 C 
ENDBRANCH   8  34
TORSDOF 10
ENDMDL
MODEL 3
REMARK VINA RESULT:      -6.4      2.436      3.631
REMARK  Name = 
REMARK  13 active torsions:
REMARK  status: ('A' for Active; 'I' for Inactive)
REMARK    1  A    between atoms: C_1  and  C_2
REMARK    2  A    between atoms: C_2  and  C_3
REMARK    3  A    between atoms: C_3  and  C_4
REMARK    4  A    between atoms: C_4  and  C_5
REMARK    5  A    between atoms: C_5  and  C_6
REMARK    6  A    between atoms: C_6  and  C_7
REMARK    7  A    between atoms: C_7  and  C_8
REMARK    8  A    between atoms: N_10  and  C_11
REMARK    9  A    between atoms: C_14  and  N_15
REMARK   10  A    between atoms: C_21  and  C_22
REMARK   11  A    between atoms: N_24  and  C_25
REMARK   12  A    between atoms: N_24  and  C_26
REMARK   13  A    between atoms: N_27  and  C_28
REMARK                            x       y       z     vdW  Elec       q    Type
REMARK                         _______ _______ _______ _____ _____    ______ ____
ROOT
ATOM      1  N   UNL     1       0.053   8.729  20.765  0.00  0.00    +0.000 N 
ATOM      2  C   UNL     1      -0.241   9.980  21.317  0.00  0.00    +0.000 A 
ATOM      3  N   UNL     1      -0.934   9.944  22.472  0.00  0.00    +0.000 NA
ATOM      4  C   UNL     1      -1.170  11.100  23.137  0.00  0.00    +0.000 A 
ATOM      5  C   UNL     1      -0.711  12.301  22.612  0.00  0.00    +0.000 A 
ATOM      6  C   UNL     1      -0.688  13.655  22.996  0.00  0.00    +0.000 A 
ATOM      7  C   UNL     1      -0.163  14.437  21.963  0.00  0.00    +0.000 A 
ATOM      8  N   UNL     1       0.335  13.509  21.031  0.00  0.00    +0.000 N 
ATOM      9  C   UNL     1      -0.057  12.231  21.407  0.00  0.00    +0.000 A 
ATOM     10  N   UNL     1       0.196  11.103  20.730  0.00  0.00    +0.000 NA
ATOM     11  H   UNL     1      -0.279   8.020  21.403  0.00  0.00    +0.000 HD
ENDROOT
BRANCH   1  15
ATOM     12  C   UNL     1       3.244   7.468  18.278  0.00  0.00    +0.000 A 
ATOM     13  C   UNL     1       2.911   6.775  19.440  0.00  0.00    +0.000 A 
ATOM     14  C   UNL     1       1.844   7.197  20.241  0.00  0.00    +0.000 A 
ATOM     15  C   UNL     1       1.095   8.334  19.913  0.00  0.00    +0.000 A 
ATOM     16  C   UNL     1       1.418   8.993  18.724  0.00  0.00    +0.000 A 
ATOM     17  C   UNL     1       2.491   8.585  17.927  0.00  0.00    +0.000 A 
BRANCH  12  20
ATOM     18  C   UNL     1       4.588   5.840  16.970  0.00  0.00    +0.000 C 
ATOM     19  O   UNL     1       3.918   4.826  17.156  0.00  0.00    +0.000 OA
ATOM     20  N   UNL     1       4.307   7.108  17.433  0.00  0.00    +0.000 N 
ATOM     21  H   UNL     1       4.873   7.866  17.073  0.00  0.00    +0.000 HD
BRANCH  18  22
ATOM     22  C   UNL     1       5.856   5.768  16.146  0.00  0.00    +0.000 C 
BRANCH  22  23
ATOM     23  C   UNL     1       5.953   4.435  15.413  0.00  0.00    +0.000 C 
BRANCH  23  24
ATOM     24  C   UNL     1       6.228   4.634  13.925  0.00  0.00    +0.000 C 
BRANCH  24  25
ATOM     25  C   UNL     1       5.997   3.332  13.157  0.00  0.00    +0.000 C 
BRANCH  25  26
ATOM     26  C   UNL     1       5.549   3.600  11.722  0.00  0.00    +0.000 C 
BRANCH  26  28
ATOM     27  C   UNL     1       3.453   3.770  10.338  0.00  0.00    +0.000 C 
ATOM     28  C   UNL     1       4.152   3.034  11.468  0.00  0.00    +0.000 C 
ENDBRANCH  26  28
ENDBRANCH  25  26
ENDBRANCH  24  25
ENDBRANCH  23  24
ENDBRANCH  22  23
ENDBRANCH  18  22
ENDBRANCH  12  20
ENDBRANCH   1  15
BRANCH   7  29
ATOM     29  C   UNL     1      -0.030  15.899  21.902  0.00  0.00    +0.000 C 
ATOM     30  O   UNL     1       1.019  16.445  22.245  0.00  0.00    +0.000 OA
ATOM     31  N   UNL     1      -1.103  16.715  21.473  0.00  0.00    +0.000 N 
ATOM     32  C   UNL     1      -2.183  16.319  20.576  0.00  0.00    +0.000 C 
ATOM     33  C   UNL     1      -0.894  18.158  21.512  0.00  0.00    +0.000 C 
ENDBRANCH   7  29
BRANCH   8  34
ATOM     34  C   UNL     1       1.156  13.690  19.842  0.00  0.00    +0.000 C 
ATOM     35  C   UNL     1       2.664  13.815  20.023  0.00  0.00    +0.000 C 
ATOM     36  C   UNL     1       3.164  13.844  18.578  0.00  0.00    +0.000 C 
ATOM     37  C   UNL     1       2.201  12.960  17.783  0.00  0.00    +0.000 C 
ATOM     38  C   UNL     1       0.977  12.717  18.674  0.00  0.00    +0.000 C 
ENDBRANCH   8  34
TORSDOF 10
ENDMDL
MODEL 4
REMARK VINA RESULT:      -6.3      5.565      7.951
REMARK  Name = 
REMARK  13 active torsions:
REMARK  status: ('A' for Active; 'I' for Inactive)
REMARK    1  A    between atoms: C_1  and  C_2
REMARK    2  A    between atoms: C_2  and  C_3
REMARK    3  A    between atoms: C_3  and  C_4
REMARK    4  A    between atoms: C_4  and  C_5
REMARK    5  A    between atoms: C_5  and  C_6
REMARK    6  A    between atoms: C_6  and  C_7
REMARK    7  A    between atoms: C_7  and  C_8
REMARK    8  A    between atoms: N_10  and  C_11
REMARK    9  A    between atoms: C_14  and  N_15
REMARK   10  A    between atoms: C_21  and  C_22
REMARK   11  A    between atoms: N_24  and  C_25
REMARK   12  A    between atoms: N_24  and  C_26
REMARK   13  A    between atoms: N_27  and  C_28
REMARK                            x       y       z     vdW  Elec       q    Type
REMARK                         _______ _______ _______ _____ _____    ______ ____
ROOT
ATOM      1  N   UNL     1      10.764  13.082  19.448  0.00  0.00    +0.000 N 
ATOM      2  C   UNL     1      10.569  13.952  20.525  0.00  0.00    +0.000 A 
ATOM      3  N   UNL     1      11.213  15.132  20.426  0.00  0.00    +0.000 NA
ATOM      4  C   UNL     1      10.999  16.082  21.368  0.00  0.00    +0.000 A 
ATOM      5  C   UNL     1      10.136  15.821  22.424  0.00  0.00    +0.000 A 
ATOM      6  C   UNL     1       9.611  16.520  23.528  0.00  0.00    +0.000 A 
ATOM      7  C   UNL     1       8.848  15.660  24.321  0.00  0.00    +0.000 A 
ATOM      8  N   UNL     1       8.737  14.480  23.563  0.00  0.00    +0.000 N 
ATOM      9  C   UNL     1       9.569  14.572  22.455  0.00  0.00    +0.000 A 
ATOM     10  N   UNL     1       9.757  13.615  21.535  0.00  0.00    +0.000 NA
ATOM     11  H   UNL     1      11.326  13.559  18.758  0.00  0.00    +0.000 HD
ENDROOT
BRANCH   1  15
ATOM     12  C   UNL     1       8.374   9.888  18.018  0.00  0.00    +0.000 A 
ATOM     13  C   UNL     1       9.260   9.713  19.079  0.00  0.00    +0.000 A 
ATOM     14  C   UNL     1      10.030  10.784  19.547  0.00  0.00    +0.000 A 
ATOM     15  C   UNL     1       9.950  12.050  18.955  0.00  0.00    +0.000 A 
ATOM     16  C   UNL     1       9.027  12.216  17.919  0.00  0.00    +0.000 A 
ATOM     17  C   UNL     1       8.266  11.148  17.436  0.00  0.00    +0.000 A 
BRANCH  12  20
ATOM     18  C   UNL     1       7.623   7.527  17.849  0.00  0.00    +0.000 C 
ATOM     19  O   UNL     1       8.309   7.029  18.740  0.00  0.00    +0.000 OA
ATOM     20  N   UNL     1       7.579   8.857  17.489  0.00  0.00    +0.000 N 
ATOM     21  H   UNL     1       6.856   9.135  16.838  0.00  0.00    +0.000 HD
BRANCH  18  22
ATOM     22  C   UNL     1       6.697   6.652  17.031  0.00  0.00    +0.000 C 
BRANCH  22  23
ATOM     23  C   UNL     1       5.251   6.821  17.482  0.00  0.00    +0.000 C 
BRANCH  23  24
ATOM     24  C   UNL     1       4.734   5.568  18.187  0.00  0.00    +0.000 C 
BRANCH  24  25
ATOM     25  C   UNL     1       4.730   4.377  17.230  0.00  0.00    +0.000 C 
BRANCH  25  26
ATOM     26  C   UNL     1       3.390   3.644  17.253  0.00  0.00    +0.000 C 
BRANCH  26  28
ATOM     27  C   UNL     1       1.392   3.846  18.769  0.00  0.00    +0.000 C 
ATOM     28  C   UNL     1       2.273   4.557  17.756  0.00  0.00    +0.000 C 
ENDBRANCH  26  28
ENDBRANCH  25  26
ENDBRANCH  24  25
ENDBRANCH  23  24
ENDBRANCH  22  23
ENDBRANCH  18  22
ENDBRANCH  12  20
ENDBRANCH   1  15
BRANCH   7  29
ATOM     29  C   UNL     1       8.185  15.945  25.601  0.00  0.00    +0.000 C 
ATOM     30  O   UNL     1       8.782  15.774  26.664  0.00  0.00    +0.000 OA
ATOM     31  N   UNL     1       6.846  16.398  25.647  0.00  0.00    +0.000 N 
ATOM     32  C   UNL     1       6.147  17.134  24.600  0.00  0.00    +0.000 C 
ATOM     33  C   UNL     1       6.256  16.588  26.968  0.00  0.00    +0.000 C 
ENDBRANCH   7  29
BRANCH   8  34
ATOM     34  C   UNL     1       7.922  13.290  23.756  0.00  0.00    +0.000 C 
ATOM     35  C   UNL     1       8.185  12.430  24.986  0.00  0.00    +0.000 C 
ATOM     36  C   UNL     1       7.065  11.391  24.905  0.00  0.00    +0.000 C 
ATOM     37  C   UNL     1       5.870  12.113  24.277  0.00  0.00    +0.000 C 
ATOM     38  C   UNL     1       6.399  13.426  23.687  0.00  0.00    +0.000 C 
ENDBRANCH   8  34
TORSDOF 10
ENDMDL
MODEL 5
REMARK VINA RESULT:      -6.3      4.217      5.960
REMARK  Name = 
REMARK  13 active torsions:
REMARK  status: ('A' for Active; 'I' for Inactive)
REMARK    1  A    between atoms: C_1  and  C_2
REMARK    2  A    between atoms: C_2  and  C_3
REMARK    3  A    between atoms: C_3  and  C_4
REMARK    4  A    between atoms: C_4  and  C_5
REMARK    5  A    between atoms: C_5  and  C_6
REMARK    6  A    between atoms: C_6  and  C_7
REMARK    7  A    between atoms: C_7  and  C_8
REMARK    8  A    between atoms: N_10  and  C_11
REMARK    9  A    between atoms: C_14  and  N_15
REMARK   10  A    between atoms: C_21  and  C_22
REMARK   11  A    between atoms: N_24  and  C_25
REMARK   12  A    between atoms: N_24  and  C_26
REMARK   13  A    between atoms: N_27  and  C_28
REMARK                            x       y       z     vdW  Elec       q    Type
REMARK                         _______ _______ _______ _____ _____    ______ ____
ROOT
ATOM      1  N   UNL     1      -4.558  12.126  18.665  0.00  0.00    +0.000 N 
ATOM      2  C   UNL     1      -5.021  12.913  19.724  0.00  0.00    +0.000 A 
ATOM      3  N   UNL     1      -6.346  12.832  19.955  0.00  0.00    +0.000 NA
ATOM      4  C   UNL     1      -6.870  13.473  21.028  0.00  0.00    +0.000 A 
ATOM      5  C   UNL     1      -6.040  14.214  21.859  0.00  0.00    +0.000 A 
ATOM      6  C   UNL     1      -6.161  14.946  23.055  0.00  0.00    +0.000 A 
ATOM      7  C   UNL     1      -4.952  15.577  23.355  0.00  0.00    +0.000 A 
ATOM      8  N   UNL     1      -4.031  15.040  22.438  0.00  0.00    +0.000 N 
ATOM      9  C   UNL     1      -4.715  14.269  21.507  0.00  0.00    +0.000 A 
ATOM     10  N   UNL     1      -4.168  13.641  20.457  0.00  0.00    +0.000 NA
ATOM     11  H   UNL     1      -5.336  11.589  18.310  0.00  0.00    +0.000 HD
ENDROOT
BRANCH   1  15
ATOM     12  C   UNL     1      -0.775  10.371  17.914  0.00  0.00    +0.000 A 
ATOM     13  C   UNL     1      -1.942   9.845  17.362  0.00  0.00    +0.000 A 
ATOM     14  C   UNL     1      -3.180  10.448  17.609  0.00  0.00    +0.000 A 
ATOM     15  C   UNL     1      -3.288  11.578  18.429  0.00  0.00    +0.000 A 
ATOM     16  C   UNL     1      -2.103  12.114  18.941  0.00  0.00    +0.000 A 
ATOM     17  C   UNL     1      -0.865  11.509  18.711  0.00  0.00    +0.000 A 
BRANCH  12  20
ATOM     18  C   UNL     1       1.270   9.183  18.672  0.00  0.00    +0.000 C 
ATOM     19  O   UNL     1       0.946   8.938  19.833  0.00  0.00    +0.000 OA
ATOM     20  N   UNL     1       0.500   9.812  17.718  0.00  0.00    +0.000 N 
ATOM     21  H   UNL     1       0.848   9.808  16.767  0.00  0.00    +0.000 HD
BRANCH  18  22
ATOM     22  C   UNL     1       2.634   8.766  18.165  0.00  0.00    +0.000 C 
BRANCH  22  23
ATOM     23  C   UNL     1       2.621   7.315  17.699  0.00  0.00    +0.000 C 
BRANCH  23  24
ATOM     24  C   UNL     1       3.408   6.416  18.649  0.00  0.00    +0.000 C 
BRANCH  24  25
ATOM     25  C   UNL     1       2.531   5.273  19.160  0.00  0.00    +0.000 C 
BRANCH  25  26
ATOM     26  C   UNL     1       1.883   4.506  18.009  0.00  0.00    +0.000 C 
BRANCH  26  28
ATOM     27  C   UNL     1       0.821   3.212  19.888  0.00  0.00    +0.000 C 
ATOM     28  C   UNL     1       1.375   3.143  18.475  0.00  0.00    +0.000 C 
ENDBRANCH  26  28
ENDBRANCH  25  26
ENDBRANCH  24  25
ENDBRANCH  23  24
ENDBRANCH  22  23
ENDBRANCH  18  22
ENDBRANCH  12  20
ENDBRANCH   1  15
BRANCH   7  29
ATOM     29  C   UNL     1      -4.652  16.499  24.460  0.00  0.00    +0.000 C 
ATOM     30  O   UNL     1      -3.819  16.199  25.315  0.00  0.00    +0.000 OA
ATOM     31  N   UNL     1      -5.326  17.737  24.583  0.00  0.00    +0.000 N 
ATOM     32  C   UNL     1      -5.923  18.507  23.498  0.00  0.00    +0.000 C 
ATOM     33  C   UNL     1      -5.007  18.551  25.752  0.00  0.00    +0.000 C 
ENDBRANCH   7  29
BRANCH   8  34
ATOM     34  C   UNL     1      -2.582  15.153  22.355  0.00  0.00    +0.000 C 
ATOM     35  C   UNL     1      -1.745  13.928  22.701  0.00  0.00    +0.000 C 
ATOM     36  C   UNL     1      -0.328  14.394  22.361  0.00  0.00    +0.000 C 
ATOM     37  C   UNL     1      -0.475  15.353  21.178  0.00  0.00    +0.000 C 
ATOM     38  C   UNL     1      -1.963  15.705  21.068  0.00  0.00    +0.000 C 
ENDBRANCH   8  34
TORSDOF 10
ENDMDL
MODEL 6
REMARK VINA RESULT:      -6.3      4.085      5.647
REMARK  Name = 
REMARK  13 active torsions:
REMARK  status: ('A' for Active; 'I' for Inactive)
REMARK    1  A    between atoms: C_1  and  C_2
REMARK    2  A    between atoms: C_2  and  C_3
REMARK    3  A    between atoms: C_3  and  C_4
REMARK    4  A    between atoms: C_4  and  C_5
REMARK    5  A    between atoms: C_5  and  C_6
REMARK    6  A    between atoms: C_6  and  C_7
REMARK    7  A    between atoms: C_7  and  C_8
REMARK    8  A    between atoms: N_10  and  C_11
REMARK    9  A    between atoms: C_14  and  N_15
REMARK   10  A    between atoms: C_21  and  C_22
REMARK   11  A    between atoms: N_24  and  C_25
REMARK   12  A    between atoms: N_24  and  C_26
REMARK   13  A    between atoms: N_27  and  C_28
REMARK                            x       y       z     vdW  Elec       q    Type
REMARK                         _______ _______ _______ _____ _____    ______ ____
ROOT
ATOM      1  N   UNL     1      -1.103  11.423  23.045  0.00  0.00    +0.000 N 
ATOM      2  C   UNL     1      -2.181  12.294  22.855  0.00  0.00    +0.000 A 
ATOM      3  N   UNL     1      -2.300  13.262  23.784  0.00  0.00    +0.000 NA
ATOM      4  C   UNL     1      -3.248  14.218  23.624  0.00  0.00    +0.000 A 
ATOM      5  C   UNL     1      -4.088  14.175  22.519  0.00  0.00    +0.000 A 
ATOM      6  C   UNL     1      -5.112  14.967  21.967  0.00  0.00    +0.000 A 
ATOM      7  C   UNL     1      -5.670  14.326  20.859  0.00  0.00    +0.000 A 
ATOM      8  N   UNL     1      -4.821  13.231  20.615  0.00  0.00    +0.000 N 
ATOM      9  C   UNL     1      -3.911  13.120  21.658  0.00  0.00    +0.000 A 
ATOM     10  N   UNL     1      -2.980  12.165  21.787  0.00  0.00    +0.000 NA
ATOM     11  H   UNL     1      -0.577  11.746  23.844  0.00  0.00    +0.000 HD
ENDROOT
BRANCH   1  15
ATOM     12  C   UNL     1       1.133   9.050  20.338  0.00  0.00    +0.000 A 
ATOM     13  C   UNL     1       1.117   8.775  21.704  0.00  0.00    +0.000 A 
ATOM     14  C   UNL     1       0.360   9.560  22.580  0.00  0.00    +0.000 A 
ATOM     15  C   UNL     1      -0.383  10.653  22.120  0.00  0.00    +0.000 A 
ATOM     16  C   UNL     1      -0.388  10.890  20.742  0.00  0.00    +0.000 A 
ATOM     17  C   UNL     1       0.377  10.119  19.863  0.00  0.00    +0.000 A 
BRANCH  12  20
ATOM     18  C   UNL     1       2.217   6.979  19.499  0.00  0.00    +0.000 C 
ATOM     19  O   UNL     1       1.867   6.195  20.379  0.00  0.00    +0.000 OA
ATOM     20  N   UNL     1       1.877   8.312  19.402  0.00  0.00    +0.000 N 
ATOM     21  H   UNL     1       2.119   8.788  18.543  0.00  0.00    +0.000 HD
BRANCH  18  22
ATOM     22  C   UNL     1       3.099   6.500  18.366  0.00  0.00    +0.000 C 
BRANCH  22  23
ATOM     23  C   UNL     1       3.176   4.978  18.344  0.00  0.00    +0.000 C 
BRANCH  23  24
ATOM     24  C   UNL     1       4.623   4.491  18.352  0.00  0.00    +0.000 C 
BRANCH  24  25
ATOM     25  C   UNL     1       5.588   5.668  18.213  0.00  0.00    +0.000 C 
BRANCH  25  26
ATOM     26  C   UNL     1       6.783   5.529  19.153  0.00  0.00    +0.000 C 
BRANCH  26  28
ATOM     27  C   UNL     1       7.510   7.368  17.597  0.00  0.00    +0.000 C 
ATOM     28  C   UNL     1       7.934   6.435  18.718  0.00  0.00    +0.000 C 
ENDBRANCH  26  28
ENDBRANCH  25  26
ENDBRANCH  24  25
ENDBRANCH  23  24
ENDBRANCH  22  23
ENDBRANCH  18  22
ENDBRANCH  12  20
ENDBRANCH   1  15
BRANCH   7  29
ATOM     29  C   UNL     1      -6.810  14.752  20.034  0.00  0.00    +0.000 C 
ATOM     30  O   UNL     1      -7.911  14.220  20.169  0.00  0.00    +0.000 OA
ATOM     31  N   UNL     1      -6.666  15.763  19.055  0.00  0.00    +0.000 N 
ATOM     32  C   UNL     1      -5.682  16.840  19.063  0.00  0.00    +0.000 C 
ATOM     33  C   UNL     1      -7.839  16.068  18.242  0.00  0.00    +0.000 C 
ENDBRANCH   7  29
BRANCH   8  34
ATOM     34  C   UNL     1      -4.758  12.296  19.501  0.00  0.00    +0.000 C 
ATOM     35  C   UNL     1      -5.751  12.471  18.359  0.00  0.00    +0.000 C 
ATOM     36  C   UNL     1      -5.281  11.420  17.353  0.00  0.00    +0.000 C 
ATOM     37  C   UNL     1      -3.761  11.337  17.513  0.00  0.00    +0.000 C 
ATOM     38  C   UNL     1      -3.408  12.060  18.819  0.00  0.00    +0.000 C 
ENDBRANCH   8  34
TORSDOF 10
ENDMDL
MODEL 7
REMARK VINA RESULT:      -6.3      1.623      2.323
REMARK  Name = 
REMARK  13 active torsions:
REMARK  status: ('A' for Active; 'I' for Inactive)
REMARK    1  A    between atoms: C_1  and  C_2
REMARK    2  A    between atoms: C_2  and  C_3
REMARK    3  A    between atoms: C_3  and  C_4
REMARK    4  A    between atoms: C_4  and  C_5
REMARK    5  A    between atoms: C_5  and  C_6
REMARK    6  A    between atoms: C_6  and  C_7
REMARK    7  A    between atoms: C_7  and  C_8
REMARK    8  A    between atoms: N_10  and  C_11
REMARK    9  A    between atoms: C_14  and  N_15
REMARK   10  A    between atoms: C_21  and  C_22
REMARK   11  A    between atoms: N_24  and  C_25
REMARK   12  A    between atoms: N_24  and  C_26
REMARK   13  A    between atoms: N_27  and  C_28
REMARK                            x       y       z     vdW  Elec       q    Type
REMARK                         _______ _______ _______ _____ _____    ______ ____
ROOT
ATOM      1  N   UNL     1       0.296   7.779  21.251  0.00  0.00    +0.000 N 
ATOM      2  C   UNL     1      -0.067   9.085  21.595  0.00  0.00    +0.000 A 
ATOM      3  N   UNL     1      -0.704   9.205  22.777  0.00  0.00    +0.000 NA
ATOM      4  C   UNL     1      -0.999  10.442  23.245  0.00  0.00    +0.000 A 
ATOM      5  C   UNL     1      -0.657  11.560  22.496  0.00  0.00    +0.000 A 
ATOM      6  C   UNL     1      -0.720  12.959  22.639  0.00  0.00    +0.000 A 
ATOM      7  C   UNL     1      -0.302  13.581  21.460  0.00  0.00    +0.000 A 
ATOM      8  N   UNL     1       0.225  12.539  20.675  0.00  0.00    +0.000 N 
ATOM      9  C   UNL     1      -0.053  11.323  21.287  0.00  0.00    +0.000 A 
ATOM     10  N   UNL     1       0.256  10.114  20.801  0.00  0.00    +0.000 NA
ATOM     11  H   UNL     1       0.048   7.172  22.019  0.00  0.00    +0.000 HD
ENDROOT
BRANCH   1  15
ATOM     12  C   UNL     1       3.438   6.287  18.829  0.00  0.00    +0.000 A 
ATOM     13  C   UNL     1       2.939   5.555  19.905  0.00  0.00    +0.000 A 
ATOM     14  C   UNL     1       1.891   6.057  20.684  0.00  0.00    +0.000 A 
ATOM     15  C   UNL     1       1.328   7.312  20.423  0.00  0.00    +0.000 A 
ATOM     16  C   UNL     1       1.813   8.014  19.316  0.00  0.00    +0.000 A 
ATOM     17  C   UNL     1       2.869   7.525  18.543  0.00  0.00    +0.000 A 
BRANCH  12  20
ATOM     18  C   UNL     1       4.582   4.632  17.374  0.00  0.00    +0.000 C 
ATOM     19  O   UNL     1       3.724   3.752  17.351  0.00  0.00    +0.000 OA
ATOM     20  N   UNL     1       4.494   5.851  18.012  0.00  0.00    +0.000 N 
ATOM     21  H   UNL     1       5.221   6.528  17.815  0.00  0.00    +0.000 HD
BRANCH  18  22
ATOM     22  C   UNL     1       5.889   4.432  16.637  0.00  0.00    +0.000 C 
BRANCH  22  23
ATOM     23  C   UNL     1       7.055   5.008  17.432  0.00  0.00    +0.000 C 
BRANCH  23  24
ATOM     24  C   UNL     1       7.399   6.424  16.976  0.00  0.00    +0.000 C 
BRANCH  24  25
ATOM     25  C   UNL     1       7.912   7.257  18.150  0.00  0.00    +0.000 C 
BRANCH  25  26
ATOM     26  C   UNL     1       7.985   8.741  17.795  0.00  0.00    +0.000 C 
BRANCH  26  28
ATOM     27  C   UNL     1       9.234  10.875  18.262  0.00  0.00    +0.000 C 
ATOM     28  C   UNL     1       8.858   9.502  18.792  0.00  0.00    +0.000 C 
ENDBRANCH  26  28
ENDBRANCH  25  26
ENDBRANCH  24  25
ENDBRANCH  23  24
ENDBRANCH  22  23
ENDBRANCH  18  22
ENDBRANCH  12  20
ENDBRANCH   1  15
BRANCH   7  29
ATOM     29  C   UNL     1      -0.283  15.015  21.140  0.00  0.00    +0.000 C 
ATOM     30  O   UNL     1      -1.276  15.560  20.659  0.00  0.00    +0.000 OA
ATOM     31  N   UNL     1       0.877  15.797  21.355  0.00  0.00    +0.000 N 
ATOM     32  C   UNL     1       1.926  15.535  22.333  0.00  0.00    +0.000 C 
ATOM     33  C   UNL     1       0.817  17.195  20.943  0.00  0.00    +0.000 C 
ENDBRANCH   7  29
BRANCH   8  34
ATOM     34  C   UNL     1       0.976  12.563  19.428  0.00  0.00    +0.000 C 
ATOM     35  C   UNL     1       2.369  13.181  19.441  0.00  0.00    +0.000 C 
ATOM     36  C   UNL     1       2.868  12.891  18.025  0.00  0.00    +0.000 C 
ATOM     37  C   UNL     1       2.238  11.556  17.623  0.00  0.00    +0.000 C 
ATOM     38  C   UNL     1       1.128  11.261  18.639  0.00  0.00    +0.000 C 
ENDBRANCH   8  34
TORSDOF 10
ENDMDL
MODEL 8
REMARK VINA RESULT:      -6.3      1.062      1.638
REMARK  Name = 
REMARK  13 active torsions:
REMARK  status: ('A' for Active; 'I' for Inactive)
REMARK    1  A    between atoms: C_1  and  C_2
REMARK    2  A    between atoms: C_2  and  C_3
REMARK    3  A    between atoms: C_3  and  C_4
REMARK    4  A    between atoms: C_4  and  C_5
REMARK    5  A    between atoms: C_5  and  C_6
REMARK    6  A    between atoms: C_6  and  C_7
REMARK    7  A    between atoms: C_7  and  C_8
REMARK    8  A    between atoms: N_10  and  C_11
REMARK    9  A    between atoms: C_14  and  N_15
REMARK   10  A    between atoms: C_21  and  C_22
REMARK   11  A    between atoms: N_24  and  C_25
REMARK   12  A    between atoms: N_24  and  C_26
REMARK   13  A    between atoms: N_27  and  C_28
REMARK                            x       y       z     vdW  Elec       q    Type
REMARK                         _______ _______ _______ _____ _____    ______ ____
ROOT
ATOM      1  N   UNL     1      -0.554   9.733  21.497  0.00  0.00    +0.000 N 
ATOM      2  C   UNL     1      -0.574  11.105  21.767  0.00  0.00    +0.000 A 
ATOM      3  N   UNL     1      -1.258  11.457  22.874  0.00  0.00    +0.000 NA
ATOM      4  C   UNL     1      -1.243  12.750  23.277  0.00  0.00    +0.000 A 
ATOM      5  C   UNL     1      -0.540  13.692  22.539  0.00  0.00    +0.000 A 
ATOM      6  C   UNL     1      -0.229  15.062  22.637  0.00  0.00    +0.000 A 
ATOM      7  C   UNL     1       0.450  15.483  21.491  0.00  0.00    +0.000 A 
ATOM      8  N   UNL     1       0.739  14.297  20.791  0.00  0.00    +0.000 N 
ATOM      9  C   UNL     1       0.084  13.237  21.403  0.00  0.00    +0.000 A 
ATOM     10  N   UNL     1       0.091  11.964  20.984  0.00  0.00    +0.000 NA
ATOM     11  H   UNL     1      -1.028   9.258  22.252  0.00  0.00    +0.000 HD
ENDROOT
BRANCH   1  15
ATOM     12  C   UNL     1       2.236   7.455  19.264  0.00  0.00    +0.000 A 
ATOM     13  C   UNL     1       1.664   8.615  18.745  0.00  0.00    +0.000 A 
ATOM     14  C   UNL     1       0.756   9.362  19.504  0.00  0.00    +0.000 A 
ATOM     15  C   UNL     1       0.380   8.961  20.791  0.00  0.00    +0.000 A 
ATOM     16  C   UNL     1       0.994   7.818  21.310  0.00  0.00    +0.000 A 
ATOM     17  C   UNL     1       1.890   7.058  20.553  0.00  0.00    +0.000 A 
BRANCH  12  20
ATOM     18  C   UNL     1       2.871   5.435  17.968  0.00  0.00    +0.000 C 
ATOM     19  O   UNL     1       1.774   4.884  17.897  0.00  0.00    +0.000 OA
ATOM     20  N   UNL     1       3.145   6.650  18.557  0.00  0.00    +0.000 N 
ATOM     21  H   UNL     1       4.066   7.040  18.403  0.00  0.00    +0.000 HD
BRANCH  18  22
ATOM     22  C   UNL     1       4.088   4.776  17.354  0.00  0.00    +0.000 C 
BRANCH  22  23
ATOM     23  C   UNL     1       4.784   5.721  16.381  0.00  0.00    +0.000 C 
BRANCH  23  24
ATOM     24  C   UNL     1       5.962   5.042  15.687  0.00  0.00    +0.000 C 
BRANCH  24  25
ATOM     25  C   UNL     1       7.286   5.525  16.277  0.00  0.00    +0.000 C 
BRANCH  25  26
ATOM     26  C   UNL     1       7.347   5.290  17.785  0.00  0.00    +0.000 C 
BRANCH  26  28
ATOM     27  C   UNL     1       7.685   7.780  17.644  0.00  0.00    +0.000 C 
ATOM     28  C   UNL     1       7.819   6.544  18.518  0.00  0.00    +0.000 C 
ENDBRANCH  26  28
ENDBRANCH  25  26
ENDBRANCH  24  25
ENDBRANCH  23  24
ENDBRANCH  22  23
ENDBRANCH  18  22
ENDBRANCH  12  20
ENDBRANCH   1  15
BRANCH   7  29
ATOM     29  C   UNL     1       0.891  16.839  21.137  0.00  0.00    +0.000 C 
ATOM     30  O   UNL     1       0.135  17.606  20.542  0.00  0.00    +0.000 OA
ATOM     31  N   UNL     1       2.197  17.288  21.449  0.00  0.00    +0.000 N 
ATOM     32  C   UNL     1       3.040  16.804  22.536  0.00  0.00    +0.000 C 
ATOM     33  C   UNL     1       2.562  18.626  20.996  0.00  0.00    +0.000 C 
ENDBRANCH   7  29
BRANCH   8  34
ATOM     34  C   UNL     1       1.579  14.050  19.628  0.00  0.00    +0.000 C 
ATOM     35  C   UNL     1       3.090  14.134  19.803  0.00  0.00    +0.000 C 
ATOM     36  C   UNL     1       3.603  13.683  18.434  0.00  0.00    +0.000 C 
ATOM     37  C   UNL     1       2.589  12.656  17.924  0.00  0.00    +0.000 C 
ATOM     38  C   UNL     1       1.345  12.776  18.813  0.00  0.00    +0.000 C 
ENDBRANCH   8  34
TORSDOF 10
ENDMDL
MODEL 9
REMARK VINA RESULT:      -6.3      5.763      8.169
REMARK  Name = 
REMARK  13 active torsions:
REMARK  status: ('A' for Active; 'I' for Inactive)
REMARK    1  A    between atoms: C_1  and  C_2
REMARK    2  A    between atoms: C_2  and  C_3
REMARK    3  A    between atoms: C_3  and  C_4
REMARK    4  A    between atoms: C_4  and  C_5
REMARK    5  A    between atoms: C_5  and  C_6
REMARK    6  A    between atoms: C_6  and  C_7
REMARK    7  A    between atoms: C_7  and  C_8
REMARK    8  A    between atoms: N_10  and  C_11
REMARK    9  A    between atoms: C_14  and  N_15
REMARK   10  A    between atoms: C_21  and  C_22
REMARK   11  A    between atoms: N_24  and  C_25
REMARK   12  A    between atoms: N_24  and  C_26
REMARK   13  A    between atoms: N_27  and  C_28
REMARK                            x       y       z     vdW  Elec       q    Type
REMARK                         _______ _______ _______ _____ _____    ______ ____
ROOT
ATOM      1  N   UNL     1      10.837  13.307  19.493  0.00  0.00    +0.000 N 
ATOM      2  C   UNL     1      10.660  14.168  20.581  0.00  0.00    +0.000 A 
ATOM      3  N   UNL     1      11.275  15.362  20.467  0.00  0.00    +0.000 NA
ATOM      4  C   UNL     1      11.072  16.302  21.421  0.00  0.00    +0.000 A 
ATOM      5  C   UNL     1      10.250  16.018  22.503  0.00  0.00    +0.000 A 
ATOM      6  C   UNL     1       9.747  16.700  23.627  0.00  0.00    +0.000 A 
ATOM      7  C   UNL     1       9.028  15.820  24.440  0.00  0.00    +0.000 A 
ATOM      8  N   UNL     1       8.918  14.642  23.680  0.00  0.00    +0.000 N 
ATOM      9  C   UNL     1       9.710  14.757  22.545  0.00  0.00    +0.000 A 
ATOM     10  N   UNL     1       9.888  13.809  21.615  0.00  0.00    +0.000 NA
ATOM     11  H   UNL     1      11.366  13.799  18.787  0.00  0.00    +0.000 HD
ENDROOT
BRANCH   1  15
ATOM     12  C   UNL     1       8.470  10.070  18.124  0.00  0.00    +0.000 A 
ATOM     13  C   UNL     1       9.391   9.911  19.158  0.00  0.00    +0.000 A 
ATOM     14  C   UNL     1      10.152  10.995  19.607  0.00  0.00    +0.000 A 
ATOM     15  C   UNL     1      10.030  12.261  19.022  0.00  0.00    +0.000 A 
ATOM     16  C   UNL     1       9.074  12.411  18.013  0.00  0.00    +0.000 A 
ATOM     17  C   UNL     1       8.320  11.329  17.550  0.00  0.00    +0.000 A 
BRANCH  12  20
ATOM     18  C   UNL     1       7.749   7.698  17.984  0.00  0.00    +0.000 C 
ATOM     19  O   UNL     1       8.457   7.216  18.866  0.00  0.00    +0.000 OA
ATOM     20  N   UNL     1       7.680   9.025  17.616  0.00  0.00    +0.000 N 
ATOM     21  H   UNL     1       6.942   9.289  16.976  0.00  0.00    +0.000 HD
BRANCH  18  22
ATOM     22  C   UNL     1       6.820   6.805  17.188  0.00  0.00    +0.000 C 
BRANCH  22  23
ATOM     23  C   UNL     1       7.211   5.340  17.342  0.00  0.00    +0.000 C 
BRANCH  23  24
ATOM     24  C   UNL     1       6.218   4.585  18.222  0.00  0.00    +0.000 C 
BRANCH  24  25
ATOM     25  C   UNL     1       5.057   5.494  18.625  0.00  0.00    +0.000 C 
BRANCH  25  26
ATOM     26  C   UNL     1       3.716   4.774  18.514  0.00  0.00    +0.000 C 
BRANCH  26  28
ATOM     27  C   UNL     1       2.608   2.827  17.367  0.00  0.00    +0.000 C 
ATOM     28  C   UNL     1       3.649   3.926  17.245  0.00  0.00    +0.000 C 
ENDBRANCH  26  28
ENDBRANCH  25  26
ENDBRANCH  24  25
ENDBRANCH  23  24
ENDBRANCH  22  23
ENDBRANCH  18  22
ENDBRANCH  12  20
ENDBRANCH   1  15
BRANCH   7  29
ATOM     29  C   UNL     1       8.402  16.085  25.743  0.00  0.00    +0.000 C 
ATOM     30  O   UNL     1       7.205  16.361  25.816  0.00  0.00    +0.000 OA
ATOM     31  N   UNL     1       9.159  16.053  26.939  0.00  0.00    +0.000 N 
ATOM     32  C   UNL     1      10.380  15.289  27.167  0.00  0.00    +0.000 C 
ATOM     33  C   UNL     1       8.461  16.397  28.173  0.00  0.00    +0.000 C 
ENDBRANCH   7  29
BRANCH   8  34
ATOM     34  C   UNL     1       8.135  13.433  23.892  0.00  0.00    +0.000 C 
ATOM     35  C   UNL     1       8.340  12.663  25.191  0.00  0.00    +0.000 C 
ATOM     36  C   UNL     1       7.267  11.577  25.100  0.00  0.00    +0.000 C 
ATOM     37  C   UNL     1       6.095  12.208  24.346  0.00  0.00    +0.000 C 
ATOM     38  C   UNL     1       6.616  13.503  23.710  0.00  0.00    +0.000 C 
ENDBRANCH   8  34
TORSDOF 10
ENDMDL
