MODEL 1
REMARK VINA RESULT:      -7.4      0.000      0.000
REMARK  Name = 
REMARK  11 active torsions:
REMARK  status: ('A' for Active; 'I' for Inactive)
REMARK    1  A    between atoms: C_1  and  O_2
REMARK    2  A    between atoms: O_2  and  C_3
REMARK    3  A    between atoms: C_9  and  C_10
REMARK    4  A    between atoms: C_18  and  S_19
REMARK    5  A    between atoms: S_19  and  N_20
REMARK    6  A    between atoms: N_26  and  C_27
REMARK    7  A    between atoms: C_27  and  C_28
REMARK    8  A    between atoms: C_28  and  C_29
REMARK    9  A    between atoms: C_29  and  C_30
REMARK   10  A    between atoms: C_30  and  C_31
REMARK   11  A    between atoms: C_31  and  O_33
REMARK                            x       y       z     vdW  Elec       q    Type
REMARK                         _______ _______ _______ _____ _____    ______ ____
ROOT
ATOM      1  C   UNL     1       5.726   5.868  17.009  0.00  0.00    +0.000 A 
ATOM      2  C   UNL     1       5.943   4.935  18.015  0.00  0.00    +0.000 A 
ATOM      3  C   UNL     1       4.983   4.752  19.017  0.00  0.00    +0.000 A 
ATOM      4  C   UNL     1       3.813   5.530  18.993  0.00  0.00    +0.000 A 
ATOM      5  C   UNL     1       3.578   6.517  18.006  0.00  0.00    +0.000 A 
ATOM      6  C   UNL     1       4.571   6.683  17.020  0.00  0.00    +0.000 A 
ATOM      7  C   UNL     1       2.280   7.109  18.295  0.00  0.00    +0.000 A 
ATOM      8  C   UNL     1       1.805   6.440  19.406  0.00  0.00    +0.000 A 
ATOM      9  N   UNL     1       2.728   5.543  19.843  0.00  0.00    +0.000 N 
ENDROOT
BRANCH   7  10
ATOM     10  C   UNL     1       1.384   8.120  17.705  0.00  0.00    +0.000 C 
ATOM     11  C   UNL     1       1.030   9.375  18.012  0.00  0.00    +0.000 C 
ATOM     12  C   UNL     1       2.326  10.176  17.642  0.00  0.00    +0.000 C 
ATOM     13  O   UNL     1       3.489   9.799  17.697  0.00  0.00    +0.000 OA
ATOM     14  N   UNL     1       1.961  11.504  17.783  0.00  0.00    +0.000 N 
ATOM     15  C   UNL     1       1.217  11.422  18.968  0.00  0.00    +0.000 A 
ATOM     16  C   UNL     1       1.653  12.015  20.115  0.00  0.00    +0.000 A 
ATOM     17  C   UNL     1       0.936  11.780  21.252  0.00  0.00    +0.000 A 
ATOM     18  C   UNL     1      -0.315  11.175  21.123  0.00  0.00    +0.000 A 
ATOM     19  C   UNL     1      -0.623  10.411  19.960  0.00  0.00    +0.000 A 
ATOM     20  C   UNL     1       0.413  10.289  19.046  0.00  0.00    +0.000 A 
ATOM     21  H   UNL     1       1.315  11.690  17.027  0.00  0.00    +0.000 HD
BRANCH  18  22
ATOM     22  S   UNL     1      -1.398  11.614  22.448  0.00  0.00    +0.000 S 
ATOM     23  O   UNL     1      -2.592  12.220  21.943  0.00  0.00    +0.000 OA
ATOM     24  O   UNL     1      -1.429  10.527  23.405  0.00  0.00    +0.000 OA
BRANCH  22  25
ATOM     25  N   UNL     1      -0.544  12.861  23.177  0.00  0.00    +0.000 NA
ATOM     26  H   UNL     1       0.236  13.146  22.585  0.00  0.00    +0.000 HD
ATOM     27  H   UNL     1      -1.179  13.616  23.426  0.00  0.00    +0.000 HD
ENDBRANCH  22  25
ENDBRANCH  18  22
ENDBRANCH   7  10
BRANCH   1  29
ATOM     28  C   UNL     1       6.567   5.032  14.970  0.00  0.00    +0.000 C 
ATOM     29  O   UNL     1       6.711   5.942  16.058  0.00  0.00    +0.000 OA
ENDBRANCH   1  29
BRANCH   9  30
ATOM     30  C   UNL     1       2.531   4.786  21.072  0.00  0.00    +0.000 C 
BRANCH  30  31
ATOM     31  C   UNL     1       1.338   3.833  21.008  0.00  0.00    +0.000 C 
BRANCH  31  32
ATOM     32  C   UNL     1       1.721   2.517  20.346  0.00  0.00    +0.000 C 
BRANCH  32  33
ATOM     33  C   UNL     1       1.095   2.407  18.965  0.00  0.00    +0.000 C 
BRANCH  33  34
ATOM     34  C   UNL     1       2.156   2.427  17.908  0.00  0.00    +0.000 C 
ATOM     35  O   UNL     1       2.213   3.254  17.012  0.00  0.00    +0.000 OA
BRANCH  34  36
ATOM     36  O   UNL     1       3.093   1.463  18.064  0.00  0.00    +0.000 OA
ATOM     37  H   UNL     1       3.125   0.802  17.339  0.00  0.00    +0.000 HD
ENDBRANCH  34  36
ENDBRANCH  33  34
ENDBRANCH  32  33
ENDBRANCH  31  32
ENDBRANCH  30  31
ENDBRANCH   9  30
TORSDOF 10
ENDMDL
MODEL 2
REMARK VINA RESULT:      -6.9      0.718      1.012
REMARK  Name = 
REMARK  11 active torsions:
REMARK  status: ('A' for Active; 'I' for Inactive)
REMARK    1  A    between atoms: C_1  and  O_2
REMARK    2  A    between atoms: O_2  and  C_3
REMARK    3  A    between atoms: C_9  and  C_10
REMARK    4  A    between atoms: C_18  and  S_19
REMARK    5  A    between atoms: S_19  and  N_20
REMARK    6  A    between atoms: N_26  and  C_27
REMARK    7  A    between atoms: C_27  and  C_28
REMARK    8  A    between atoms: C_28  and  C_29
REMARK    9  A    between atoms: C_29  and  C_30
REMARK   10  A    between atoms: C_30  and  C_31
REMARK   11  A    between atoms: C_31  and  O_33
REMARK                            x       y       z     vdW  Elec       q    Type
REMARK                         _______ _______ _______ _____ _____    ______ ____
ROOT
ATOM      1  C   UNL     1       5.517   6.048  16.899  0.00  0.00    +0.000 A 
ATOM      2  C   UNL     1       5.766   5.120  17.901  0.00  0.00    +0.000 A 
ATOM      3  C   UNL     1       4.852   4.960  18.949  0.00  0.00    +0.000 A 
ATOM      4  C   UNL     1       3.694   5.757  18.973  0.00  0.00    +0.000 A 
ATOM      5  C   UNL     1       3.428   6.740  17.990  0.00  0.00    +0.000 A 
ATOM      6  C   UNL     1       4.376   6.881  16.956  0.00  0.00    +0.000 A 
ATOM      7  C   UNL     1       2.156   7.355  18.333  0.00  0.00    +0.000 A 
ATOM      8  C   UNL     1       1.722   6.703  19.472  0.00  0.00    +0.000 A 
ATOM      9  N   UNL     1       2.651   5.794  19.873  0.00  0.00    +0.000 N 
ENDROOT
BRANCH   7  10
ATOM     10  C   UNL     1       1.249   8.376  17.778  0.00  0.00    +0.000 C 
ATOM     11  C   UNL     1       0.918   9.633  18.100  0.00  0.00    +0.000 C 
ATOM     12  C   UNL     1       2.207  10.423  17.685  0.00  0.00    +0.000 C 
ATOM     13  O   UNL     1       3.368  10.035  17.699  0.00  0.00    +0.000 OA
ATOM     14  N   UNL     1       1.860  11.754  17.841  0.00  0.00    +0.000 N 
ATOM     15  C   UNL     1       1.158  11.676  19.051  0.00  0.00    +0.000 A 
ATOM     16  C   UNL     1       1.640  12.263  20.183  0.00  0.00    +0.000 A 
ATOM     17  C   UNL     1       0.961  12.033  21.344  0.00  0.00    +0.000 A 
ATOM     18  C   UNL     1      -0.299  11.439  21.259  0.00  0.00    +0.000 A 
ATOM     19  C   UNL     1      -0.655  10.681  20.106  0.00  0.00    +0.000 A 
ATOM     20  C   UNL     1       0.347  10.551  19.156  0.00  0.00    +0.000 A 
ATOM     21  H   UNL     1       1.189  11.948  17.109  0.00  0.00    +0.000 HD
BRANCH  18  22
ATOM     22  S   UNL     1      -1.331  11.885  22.622  0.00  0.00    +0.000 S 
ATOM     23  O   UNL     1      -1.676  10.729  23.391  0.00  0.00    +0.000 OA
ATOM     24  O   UNL     1      -0.806  13.090  23.232  0.00  0.00    +0.000 OA
BRANCH  22  25
ATOM     25  N   UNL     1      -2.745  12.331  21.837  0.00  0.00    +0.000 NA
ATOM     26  H   UNL     1      -2.938  13.321  21.993  0.00  0.00    +0.000 HD
ATOM     27  H   UNL     1      -2.697  12.063  20.857  0.00  0.00    +0.000 HD
ENDBRANCH  22  25
ENDBRANCH  18  22
ENDBRANCH   7  10
BRANCH   1  29
ATOM     28  C   UNL     1       6.664   4.870  15.206  0.00  0.00    +0.000 C 
ATOM     29  O   UNL     1       6.457   6.098  15.901  0.00  0.00    +0.000 OA
ENDBRANCH   1  29
BRANCH   9  30
ATOM     30  C   UNL     1       2.501   5.051  21.116  0.00  0.00    +0.000 C 
BRANCH  30  31
ATOM     31  C   UNL     1       1.881   3.668  20.920  0.00  0.00    +0.000 C 
BRANCH  31  32
ATOM     32  C   UNL     1       0.931   3.655  19.731  0.00  0.00    +0.000 C 
BRANCH  32  33
ATOM     33  C   UNL     1       1.076   2.364  18.940  0.00  0.00    +0.000 C 
BRANCH  33  34
ATOM     34  C   UNL     1       2.291   2.421  18.065  0.00  0.00    +0.000 C 
ATOM     35  O   UNL     1       3.318   1.798  18.280  0.00  0.00    +0.000 OA
BRANCH  34  36
ATOM     36  O   UNL     1       2.130   3.196  16.967  0.00  0.00    +0.000 OA
ATOM     37  H   UNL     1       2.685   4.005  16.952  0.00  0.00    +0.000 HD
ENDBRANCH  34  36
ENDBRANCH  33  34
ENDBRANCH  32  33
ENDBRANCH  31  32
ENDBRANCH  30  31
ENDBRANCH   9  30
TORSDOF 10
ENDMDL
MODEL 3
REMARK VINA RESULT:      -6.4      2.776      5.066
REMARK  Name = 
REMARK  11 active torsions:
REMARK  status: ('A' for Active; 'I' for Inactive)
REMARK    1  A    between atoms: C_1  and  O_2
REMARK    2  A    between atoms: O_2  and  C_3
REMARK    3  A    between atoms: C_9  and  C_10
REMARK    4  A    between atoms: C_18  and  S_19
REMARK    5  A    between atoms: S_19  and  N_20
REMARK    6  A    between atoms: N_26  and  C_27
REMARK    7  A    between atoms: C_27  and  C_28
REMARK    8  A    between atoms: C_28  and  C_29
REMARK    9  A    between atoms: C_29  and  C_30
REMARK   10  A    between atoms: C_30  and  C_31
REMARK   11  A    between atoms: C_31  and  O_33
REMARK                            x       y       z     vdW  Elec       q    Type
REMARK                         _______ _______ _______ _____ _____    ______ ____
ROOT
ATOM      1  C   UNL     1       1.662   4.361  20.720  0.00  0.00    +0.000 A 
ATOM      2  C   UNL     1       2.365   4.029  19.569  0.00  0.00    +0.000 A 
ATOM      3  C   UNL     1       2.787   5.036  18.694  0.00  0.00    +0.000 A 
ATOM      4  C   UNL     1       2.479   6.375  18.992  0.00  0.00    +0.000 A 
ATOM      5  C   UNL     1       1.730   6.745  20.135  0.00  0.00    +0.000 A 
ATOM      6  C   UNL     1       1.311   5.704  20.988  0.00  0.00    +0.000 A 
ATOM      7  C   UNL     1       1.612   8.195  20.118  0.00  0.00    +0.000 A 
ATOM      8  C   UNL     1       2.306   8.611  18.998  0.00  0.00    +0.000 A 
ATOM      9  N   UNL     1       2.776   7.536  18.311  0.00  0.00    +0.000 N 
ENDROOT
BRANCH   7  10
ATOM     10  C   UNL     1       1.041   9.255  20.967  0.00  0.00    +0.000 C 
ATOM     11  C   UNL     1       0.694  10.537  20.787  0.00  0.00    +0.000 C 
ATOM     12  C   UNL     1      -0.608  10.401  19.924  0.00  0.00    +0.000 C 
ATOM     13  O   UNL     1      -0.885   9.534  19.106  0.00  0.00    +0.000 OA
ATOM     14  N   UNL     1      -1.105  11.690  19.847  0.00  0.00    +0.000 N 
ATOM     15  C   UNL     1       0.089  12.394  19.637  0.00  0.00    +0.000 A 
ATOM     16  C   UNL     1       0.332  13.029  18.455  0.00  0.00    +0.000 A 
ATOM     17  C   UNL     1       1.569  13.582  18.286  0.00  0.00    +0.000 A 
ATOM     18  C   UNL     1       2.397  13.684  19.404  0.00  0.00    +0.000 A 
ATOM     19  C   UNL     1       2.183  12.843  20.534  0.00  0.00    +0.000 A 
ATOM     20  C   UNL     1       1.157  11.921  20.392  0.00  0.00    +0.000 A 
ATOM     21  H   UNL     1      -1.432  11.912  20.778  0.00  0.00    +0.000 HD
BRANCH  18  22
ATOM     22  S   UNL     1       3.544  15.021  19.252  0.00  0.00    +0.000 S 
ATOM     23  O   UNL     1       4.408  14.817  18.130  0.00  0.00    +0.000 OA
ATOM     24  O   UNL     1       2.840  16.268  19.469  0.00  0.00    +0.000 OA
BRANCH  22  25
ATOM     25  N   UNL     1       4.512  14.783  20.603  0.00  0.00    +0.000 NA
ATOM     26  H   UNL     1       5.257  14.121  20.390  0.00  0.00    +0.000 HD
ATOM     27  H   UNL     1       4.836  15.679  20.959  0.00  0.00    +0.000 HD
ENDBRANCH  22  25
ENDBRANCH  18  22
ENDBRANCH   7  10
BRANCH   1  29
ATOM     28  C   UNL     1       2.370   2.350  21.732  0.00  0.00    +0.000 C 
ATOM     29  O   UNL     1       1.328   3.302  21.527  0.00  0.00    +0.000 OA
ENDBRANCH   1  29
BRANCH   9  30
ATOM     30  C   UNL     1       3.441   7.686  17.024  0.00  0.00    +0.000 C 
BRANCH  30  31
ATOM     31  C   UNL     1       4.872   7.149  17.020  0.00  0.00    +0.000 C 
BRANCH  31  32
ATOM     32  C   UNL     1       5.170   6.391  15.734  0.00  0.00    +0.000 C 
BRANCH  32  33
ATOM     33  C   UNL     1       5.682   4.992  16.039  0.00  0.00    +0.000 C 
BRANCH  33  34
ATOM     34  C   UNL     1       7.144   4.893  15.730  0.00  0.00    +0.000 C 
ATOM     35  O   UNL     1       7.650   5.279  14.688  0.00  0.00    +0.000 OA
BRANCH  34  36
ATOM     36  O   UNL     1       7.878   4.377  16.743  0.00  0.00    +0.000 OA
ATOM     37  H   UNL     1       8.662   4.912  16.994  0.00  0.00    +0.000 HD
ENDBRANCH  34  36
ENDBRANCH  33  34
ENDBRANCH  32  33
ENDBRANCH  31  32
ENDBRANCH  30  31
ENDBRANCH   9  30
TORSDOF 10
ENDMDL
MODEL 4
REMARK VINA RESULT:      -6.4      6.433      8.434
REMARK  Name = 
REMARK  11 active torsions:
REMARK  status: ('A' for Active; 'I' for Inactive)
REMARK    1  A    between atoms: C_1  and  O_2
REMARK    2  A    between atoms: O_2  and  C_3
REMARK    3  A    between atoms: C_9  and  C_10
REMARK    4  A    between atoms: C_18  and  S_19
REMARK    5  A    between atoms: S_19  and  N_20
REMARK    6  A    between atoms: N_26  and  C_27
REMARK    7  A    between atoms: C_27  and  C_28
REMARK    8  A    between atoms: C_28  and  C_29
REMARK    9  A    between atoms: C_29  and  C_30
REMARK   10  A    between atoms: C_30  and  C_31
REMARK   11  A    between atoms: C_31  and  O_33
REMARK                            x       y       z     vdW  Elec       q    Type
REMARK                         _______ _______ _______ _____ _____    ______ ____
ROOT
ATOM      1  C   UNL     1       2.535  13.999  18.728  0.00  0.00    +0.000 A 
ATOM      2  C   UNL     1       2.501  12.708  18.218  0.00  0.00    +0.000 A 
ATOM      3  C   UNL     1       1.352  11.925  18.374  0.00  0.00    +0.000 A 
ATOM      4  C   UNL     1       0.248  12.460  19.061  0.00  0.00    +0.000 A 
ATOM      5  C   UNL     1       0.263  13.757  19.628  0.00  0.00    +0.000 A 
ATOM      6  C   UNL     1       1.440  14.513  19.461  0.00  0.00    +0.000 A 
ATOM      7  C   UNL     1      -1.037  13.967  20.247  0.00  0.00    +0.000 A 
ATOM      8  C   UNL     1      -1.757  12.814  20.002  0.00  0.00    +0.000 A 
ATOM      9  N   UNL     1      -0.984  11.910  19.343  0.00  0.00    +0.000 N 
ENDROOT
BRANCH   7  10
ATOM     10  C   UNL     1      -1.747  15.045  20.959  0.00  0.00    +0.000 C 
ATOM     11  C   UNL     1      -2.473  15.128  22.082  0.00  0.00    +0.000 C 
ATOM     12  C   UNL     1      -1.369  15.003  23.189  0.00  0.00    +0.000 C 
ATOM     13  O   UNL     1      -0.319  14.376  23.140  0.00  0.00    +0.000 OA
ATOM     14  N   UNL     1      -2.041  15.250  24.373  0.00  0.00    +0.000 N 
ATOM     15  C   UNL     1      -3.216  14.524  24.136  0.00  0.00    +0.000 A 
ATOM     16  C   UNL     1      -3.516  13.412  24.865  0.00  0.00    +0.000 A 
ATOM     17  C   UNL     1      -4.612  12.693  24.486  0.00  0.00    +0.000 A 
ATOM     18  C   UNL     1      -5.485  13.269  23.562  0.00  0.00    +0.000 A 
ATOM     19  C   UNL     1      -5.031  14.312  22.703  0.00  0.00    +0.000 A 
ATOM     20  C   UNL     1      -3.689  14.636  22.832  0.00  0.00    +0.000 A 
ATOM     21  H   UNL     1      -2.278  16.233  24.352  0.00  0.00    +0.000 HD
BRANCH  18  22
ATOM     22  S   UNL     1      -7.132  12.653  23.740  0.00  0.00    +0.000 S 
ATOM     23  O   UNL     1      -7.116  11.265  24.083  0.00  0.00    +0.000 OA
ATOM     24  O   UNL     1      -7.916  13.622  24.477  0.00  0.00    +0.000 OA
BRANCH  22  25
ATOM     25  N   UNL     1      -7.680  12.709  22.155  0.00  0.00    +0.000 NA
ATOM     26  H   UNL     1      -8.684  12.529  22.123  0.00  0.00    +0.000 HD
ATOM     27  H   UNL     1      -7.397  13.584  21.720  0.00  0.00    +0.000 HD
ENDBRANCH  22  25
ENDBRANCH  18  22
ENDBRANCH   7  10
BRANCH   1  29
ATOM     28  C   UNL     1       3.535  16.105  18.362  0.00  0.00    +0.000 C 
ATOM     29  O   UNL     1       3.693  14.693  18.488  0.00  0.00    +0.000 OA
ENDBRANCH   1  29
BRANCH   9  30
ATOM     30  C   UNL     1      -1.458  10.561  19.065  0.00  0.00    +0.000 C 
BRANCH  30  31
ATOM     31  C   UNL     1      -1.669  10.291  17.576  0.00  0.00    +0.000 C 
BRANCH  31  32
ATOM     32  C   UNL     1      -3.045   9.695  17.315  0.00  0.00    +0.000 C 
BRANCH  32  33
ATOM     33  C   UNL     1      -3.904  10.657  16.508  0.00  0.00    +0.000 C 
BRANCH  33  34
ATOM     34  C   UNL     1      -4.757  11.484  17.419  0.00  0.00    +0.000 C 
ATOM     35  O   UNL     1      -5.080  11.147  18.547  0.00  0.00    +0.000 OA
BRANCH  34  36
ATOM     36  O   UNL     1      -5.103  12.683  16.895  0.00  0.00    +0.000 OA
ATOM     37  H   UNL     1      -5.565  13.285  17.518  0.00  0.00    +0.000 HD
ENDBRANCH  34  36
ENDBRANCH  33  34
ENDBRANCH  32  33
ENDBRANCH  31  32
ENDBRANCH  30  31
ENDBRANCH   9  30
TORSDOF 10
ENDMDL
MODEL 5
REMARK VINA RESULT:      -6.3      3.934      7.351
REMARK  Name = 
REMARK  11 active torsions:
REMARK  status: ('A' for Active; 'I' for Inactive)
REMARK    1  A    between atoms: C_1  and  O_2
REMARK    2  A    between atoms: O_2  and  C_3
REMARK    3  A    between atoms: C_9  and  C_10
REMARK    4  A    between atoms: C_18  and  S_19
REMARK    5  A    between atoms: S_19  and  N_20
REMARK    6  A    between atoms: N_26  and  C_27
REMARK    7  A    between atoms: C_27  and  C_28
REMARK    8  A    between atoms: C_28  and  C_29
REMARK    9  A    between atoms: C_29  and  C_30
REMARK   10  A    between atoms: C_30  and  C_31
REMARK   11  A    between atoms: C_31  and  O_33
REMARK                            x       y       z     vdW  Elec       q    Type
REMARK                         _______ _______ _______ _____ _____    ______ ____
ROOT
ATOM      1  C   UNL     1      -3.146  11.247  18.093  0.00  0.00    +0.000 A 
ATOM      2  C   UNL     1      -2.781  10.097  17.404  0.00  0.00    +0.000 A 
ATOM      3  C   UNL     1      -1.454   9.653  17.439  0.00  0.00    +0.000 A 
ATOM      4  C   UNL     1      -0.505  10.392  18.167  0.00  0.00    +0.000 A 
ATOM      5  C   UNL     1      -0.834  11.589  18.847  0.00  0.00    +0.000 A 
ATOM      6  C   UNL     1      -2.177  12.013  18.780  0.00  0.00    +0.000 A 
ATOM      7  C   UNL     1       0.384  12.068  19.483  0.00  0.00    +0.000 A 
ATOM      8  C   UNL     1       1.355  11.135  19.176  0.00  0.00    +0.000 A 
ATOM      9  N   UNL     1       0.841  10.174  18.363  0.00  0.00    +0.000 N 
ENDROOT
BRANCH   7  10
ATOM     10  C   UNL     1       0.794  13.178  20.362  0.00  0.00    +0.000 C 
ATOM     11  C   UNL     1       1.528  14.289  20.214  0.00  0.00    +0.000 C 
ATOM     12  C   UNL     1       0.573  15.196  19.364  0.00  0.00    +0.000 C 
ATOM     13  O   UNL     1      -0.255  14.850  18.532  0.00  0.00    +0.000 OA
ATOM     14  N   UNL     1       1.212  16.423  19.321  0.00  0.00    +0.000 N 
ATOM     15  C   UNL     1       2.530  15.997  19.111  0.00  0.00    +0.000 A 
ATOM     16  C   UNL     1       3.177  16.262  17.941  0.00  0.00    +0.000 A 
ATOM     17  C   UNL     1       4.411  15.703  17.769  0.00  0.00    +0.000 A 
ATOM     18  C   UNL     1       5.027  15.123  18.878  0.00  0.00    +0.000 A 
ATOM     19  C   UNL     1       4.245  14.702  19.992  0.00  0.00    +0.000 A 
ATOM     20  C   UNL     1       2.876  14.865  19.843  0.00  0.00    +0.000 A 
ATOM     21  H   UNL     1       1.155  16.793  20.261  0.00  0.00    +0.000 HD
BRANCH  18  22
ATOM     22  S   UNL     1       6.789  15.150  18.741  0.00  0.00    +0.000 S 
ATOM     23  O   UNL     1       7.239  16.431  18.291  0.00  0.00    +0.000 OA
ATOM     24  O   UNL     1       7.357  14.494  19.900  0.00  0.00    +0.000 OA
BRANCH  22  25
ATOM     25  N   UNL     1       7.037  14.115  17.443  0.00  0.00    +0.000 NA
ATOM     26  H   UNL     1       8.035  14.015  17.258  0.00  0.00    +0.000 HD
ATOM     27  H   UNL     1       6.550  13.236  17.602  0.00  0.00    +0.000 HD
ENDBRANCH  22  25
ENDBRANCH  18  22
ENDBRANCH   7  10
BRANCH   1  29
ATOM     28  C   UNL     1      -4.992  12.247  19.169  0.00  0.00    +0.000 C 
ATOM     29  O   UNL     1      -4.477  11.572  18.023  0.00  0.00    +0.000 OA
ENDBRANCH   1  29
BRANCH   9  30
ATOM     30  C   UNL     1       1.683   9.132  17.790  0.00  0.00    +0.000 C 
BRANCH  30  31
ATOM     31  C   UNL     1       2.101   8.070  18.805  0.00  0.00    +0.000 C 
BRANCH  31  32
ATOM     32  C   UNL     1       2.509   6.777  18.112  0.00  0.00    +0.000 C 
BRANCH  32  33
ATOM     33  C   UNL     1       2.443   5.604  19.077  0.00  0.00    +0.000 C 
BRANCH  33  34
ATOM     34  C   UNL     1       2.143   4.337  18.339  0.00  0.00    +0.000 C 
ATOM     35  O   UNL     1       2.651   3.257  18.599  0.00  0.00    +0.000 OA
BRANCH  34  36
ATOM     36  O   UNL     1       1.202   4.481  17.376  0.00  0.00    +0.000 OA
ATOM     37  H   UNL     1       1.381   5.202  16.735  0.00  0.00    +0.000 HD
ENDBRANCH  34  36
ENDBRANCH  33  34
ENDBRANCH  32  33
ENDBRANCH  31  32
ENDBRANCH  30  31
ENDBRANCH   9  30
TORSDOF 10
ENDMDL
MODEL 6
REMARK VINA RESULT:      -6.3      3.645      6.744
REMARK  Name = 
REMARK  11 active torsions:
REMARK  status: ('A' for Active; 'I' for Inactive)
REMARK    1  A    between atoms: C_1  and  O_2
REMARK    2  A    between atoms: O_2  and  C_3
REMARK    3  A    between atoms: C_9  and  C_10
REMARK    4  A    between atoms: C_18  and  S_19
REMARK    5  A    between atoms: S_19  and  N_20
REMARK    6  A    between atoms: N_26  and  C_27
REMARK    7  A    between atoms: C_27  and  C_28
REMARK    8  A    between atoms: C_28  and  C_29
REMARK    9  A    between atoms: C_29  and  C_30
REMARK   10  A    between atoms: C_30  and  C_31
REMARK   11  A    between atoms: C_31  and  O_33
REMARK                            x       y       z     vdW  Elec       q    Type
REMARK                         _______ _______ _______ _____ _____    ______ ____
ROOT
ATOM      1  C   UNL     1       1.058   9.770  19.446  0.00  0.00    +0.000 A 
ATOM      2  C   UNL     1       0.490   9.100  20.521  0.00  0.00    +0.000 A 
ATOM      3  C   UNL     1       0.893   7.793  20.821  0.00  0.00    +0.000 A 
ATOM      4  C   UNL     1       1.864   7.175  20.015  0.00  0.00    +0.000 A 
ATOM      5  C   UNL     1       2.434   7.814  18.888  0.00  0.00    +0.000 A 
ATOM      6  C   UNL     1       1.996   9.125  18.609  0.00  0.00    +0.000 A 
ATOM      7  C   UNL     1       3.391   6.885  18.307  0.00  0.00    +0.000 A 
ATOM      8  C   UNL     1       3.361   5.766  19.118  0.00  0.00    +0.000 A 
ATOM      9  N   UNL     1       2.429   5.920  20.095  0.00  0.00    +0.000 N 
ENDROOT
BRANCH   7  10
ATOM     10  C   UNL     1       4.359   6.864  17.196  0.00  0.00    +0.000 C 
ATOM     11  C   UNL     1       5.684   7.024  17.083  0.00  0.00    +0.000 C 
ATOM     12  C   UNL     1       6.224   5.687  17.697  0.00  0.00    +0.000 C 
ATOM     13  O   UNL     1       5.726   5.009  18.586  0.00  0.00    +0.000 OA
ATOM     14  N   UNL     1       7.586   5.723  17.456  0.00  0.00    +0.000 N 
ATOM     15  C   UNL     1       7.846   7.066  17.761  0.00  0.00    +0.000 A 
ATOM     16  C   UNL     1       8.608   7.408  18.839  0.00  0.00    +0.000 A 
ATOM     17  C   UNL     1       8.707   8.736  19.138  0.00  0.00    +0.000 A 
ATOM     18  C   UNL     1       8.246   9.655  18.195  0.00  0.00    +0.000 A 
ATOM     19  C   UNL     1       7.301   9.254  17.208  0.00  0.00    +0.000 A 
ATOM     20  C   UNL     1       6.863   7.942  17.313  0.00  0.00    +0.000 A 
ATOM     21  H   UNL     1       7.689   5.611  16.456  0.00  0.00    +0.000 HD
BRANCH  18  22
ATOM     22  S   UNL     1       9.083  11.206  18.325  0.00  0.00    +0.000 S 
ATOM     23  O   UNL     1       8.436  12.196  17.520  0.00  0.00    +0.000 OA
ATOM     24  O   UNL     1       9.420  11.440  19.714  0.00  0.00    +0.000 OA
BRANCH  22  25
ATOM     25  N   UNL     1      10.527  10.872  17.538  0.00  0.00    +0.000 NA
ATOM     26  H   UNL     1      11.314  11.230  18.079  0.00  0.00    +0.000 HD
ATOM     27  H   UNL     1      10.583   9.880  17.322  0.00  0.00    +0.000 HD
ENDBRANCH  22  25
ENDBRANCH  18  22
ENDBRANCH   7  10
BRANCH   1  29
ATOM     28  C   UNL     1      -0.669  11.174  18.661  0.00  0.00    +0.000 C 
ATOM     29  O   UNL     1       0.619  11.057  19.262  0.00  0.00    +0.000 OA
ENDBRANCH   1  29
BRANCH   9  30
ATOM     30  C   UNL     1       2.107   4.840  21.017  0.00  0.00    +0.000 C 
BRANCH  30  31
ATOM     31  C   UNL     1       0.975   3.941  20.521  0.00  0.00    +0.000 C 
BRANCH  31  32
ATOM     32  C   UNL     1       1.516   2.627  19.976  0.00  0.00    +0.000 C 
BRANCH  32  33
ATOM     33  C   UNL     1       2.927   2.374  20.480  0.00  0.00    +0.000 C 
BRANCH  33  34
ATOM     34  C   UNL     1       3.845   2.073  19.336  0.00  0.00    +0.000 C 
ATOM     35  O   UNL     1       3.472   1.639  18.257  0.00  0.00    +0.000 OA
BRANCH  34  36
ATOM     36  O   UNL     1       5.140   2.379  19.585  0.00  0.00    +0.000 OA
ATOM     37  H   UNL     1       5.522   3.058  18.989  0.00  0.00    +0.000 HD
ENDBRANCH  34  36
ENDBRANCH  33  34
ENDBRANCH  32  33
ENDBRANCH  31  32
ENDBRANCH  30  31
ENDBRANCH   9  30
TORSDOF 10
ENDMDL
MODEL 7
REMARK VINA RESULT:      -6.2      3.516      6.724
REMARK  Name = 
REMARK  11 active torsions:
REMARK  status: ('A' for Active; 'I' for Inactive)
REMARK    1  A    between atoms: C_1  and  O_2
REMARK    2  A    between atoms: O_2  and  C_3
REMARK    3  A    between atoms: C_9  and  C_10
REMARK    4  A    between atoms: C_18  and  S_19
REMARK    5  A    between atoms: S_19  and  N_20
REMARK    6  A    between atoms: N_26  and  C_27
REMARK    7  A    between atoms: C_27  and  C_28
REMARK    8  A    between atoms: C_28  and  C_29
REMARK    9  A    between atoms: C_29  and  C_30
REMARK   10  A    between atoms: C_30  and  C_31
REMARK   11  A    between atoms: C_31  and  O_33
REMARK                            x       y       z     vdW  Elec       q    Type
REMARK                         _______ _______ _______ _____ _____    ______ ____
ROOT
ATOM      1  C   UNL     1       1.159  10.165  18.997  0.00  0.00    +0.000 A 
ATOM      2  C   UNL     1       0.482   9.586  20.062  0.00  0.00    +0.000 A 
ATOM      3  C   UNL     1       0.777   8.273  20.446  0.00  0.00    +0.000 A 
ATOM      4  C   UNL     1       1.752   7.554  19.734  0.00  0.00    +0.000 A 
ATOM      5  C   UNL     1       2.433   8.100  18.618  0.00  0.00    +0.000 A 
ATOM      6  C   UNL     1       2.102   9.420  18.253  0.00  0.00    +0.000 A 
ATOM      7  C   UNL     1       3.359   7.083  18.143  0.00  0.00    +0.000 A 
ATOM      8  C   UNL     1       3.204   6.010  19.000  0.00  0.00    +0.000 A 
ATOM      9  N   UNL     1       2.225   6.271  19.907  0.00  0.00    +0.000 N 
ENDROOT
BRANCH   7  10
ATOM     10  C   UNL     1       4.390   6.946  17.100  0.00  0.00    +0.000 C 
ATOM     11  C   UNL     1       5.728   7.009  17.067  0.00  0.00    +0.000 C 
ATOM     12  C   UNL     1       6.131   5.666  17.770  0.00  0.00    +0.000 C 
ATOM     13  O   UNL     1       5.532   5.065  18.651  0.00  0.00    +0.000 OA
ATOM     14  N   UNL     1       7.505   5.598  17.616  0.00  0.00    +0.000 N 
ATOM     15  C   UNL     1       7.841   6.932  17.883  0.00  0.00    +0.000 A 
ATOM     16  C   UNL     1       8.556   7.269  18.993  0.00  0.00    +0.000 A 
ATOM     17  C   UNL     1       8.731   8.599  19.244  0.00  0.00    +0.000 A 
ATOM     18  C   UNL     1       8.398   9.504  18.237  0.00  0.00    +0.000 A 
ATOM     19  C   UNL     1       7.489   9.125  17.207  0.00  0.00    +0.000 A 
ATOM     20  C   UNL     1       6.953   7.852  17.336  0.00  0.00    +0.000 A 
ATOM     21  H   UNL     1       7.661   5.433  16.631  0.00  0.00    +0.000 HD
BRANCH  18  22
ATOM     22  S   UNL     1       9.333  10.998  18.358  0.00  0.00    +0.000 S 
ATOM     23  O   UNL     1       9.399  11.442  19.717  0.00  0.00    +0.000 OA
ATOM     24  O   UNL     1      10.513  10.880  17.526  0.00  0.00    +0.000 OA
BRANCH  22  25
ATOM     25  N   UNL     1       8.318  12.090  17.586  0.00  0.00    +0.000 NA
ATOM     26  H   UNL     1       8.068  11.743  16.660  0.00  0.00    +0.000 HD
ATOM     27  H   UNL     1       7.523  12.305  18.182  0.00  0.00    +0.000 HD
ENDBRANCH  22  25
ENDBRANCH  18  22
ENDBRANCH   7  10
BRANCH   1  29
ATOM     28  C   UNL     1       1.924  12.359  18.586  0.00  0.00    +0.000 C 
ATOM     29  O   UNL     1       0.821  11.467  18.728  0.00  0.00    +0.000 OA
ENDBRANCH   1  29
BRANCH   9  30
ATOM     30  C   UNL     1       1.775   5.260  20.853  0.00  0.00    +0.000 C 
BRANCH  30  31
ATOM     31  C   UNL     1       2.353   3.874  20.575  0.00  0.00    +0.000 C 
BRANCH  31  32
ATOM     32  C   UNL     1       1.330   2.979  19.890  0.00  0.00    +0.000 C 
BRANCH  32  33
ATOM     33  C   UNL     1       2.019   1.936  19.025  0.00  0.00    +0.000 C 
BRANCH  33  34
ATOM     34  C   UNL     1       2.718   2.591  17.874  0.00  0.00    +0.000 C 
ATOM     35  O   UNL     1       2.151   3.252  17.017  0.00  0.00    +0.000 OA
BRANCH  34  36
ATOM     36  O   UNL     1       4.062   2.430  17.893  0.00  0.00    +0.000 OA
ATOM     37  H   UNL     1       4.413   1.838  17.194  0.00  0.00    +0.000 HD
ENDBRANCH  34  36
ENDBRANCH  33  34
ENDBRANCH  32  33
ENDBRANCH  31  32
ENDBRANCH  30  31
ENDBRANCH   9  30
TORSDOF 10
ENDMDL
MODEL 8
REMARK VINA RESULT:      -6.1      1.019      1.160
REMARK  Name = 
REMARK  11 active torsions:
REMARK  status: ('A' for Active; 'I' for Inactive)
REMARK    1  A    between atoms: C_1  and  O_2
REMARK    2  A    between atoms: O_2  and  C_3
REMARK    3  A    between atoms: C_9  and  C_10
REMARK    4  A    between atoms: C_18  and  S_19
REMARK    5  A    between atoms: S_19  and  N_20
REMARK    6  A    between atoms: N_26  and  C_27
REMARK    7  A    between atoms: C_27  and  C_28
REMARK    8  A    between atoms: C_28  and  C_29
REMARK    9  A    between atoms: C_29  and  C_30
REMARK   10  A    between atoms: C_30  and  C_31
REMARK   11  A    between atoms: C_31  and  O_33
REMARK                            x       y       z     vdW  Elec       q    Type
REMARK                         _______ _______ _______ _____ _____    ______ ____
ROOT
ATOM      1  C   UNL     1       5.533   6.275  17.269  0.00  0.00    +0.000 A 
ATOM      2  C   UNL     1       5.717   5.320  18.260  0.00  0.00    +0.000 A 
ATOM      3  C   UNL     1       4.718   5.103  19.216  0.00  0.00    +0.000 A 
ATOM      4  C   UNL     1       3.542   5.870  19.163  0.00  0.00    +0.000 A 
ATOM      5  C   UNL     1       3.338   6.880  18.191  0.00  0.00    +0.000 A 
ATOM      6  C   UNL     1       4.370   7.079  17.252  0.00  0.00    +0.000 A 
ATOM      7  C   UNL     1       2.024   7.453  18.439  0.00  0.00    +0.000 A 
ATOM      8  C   UNL     1       1.509   6.752  19.513  0.00  0.00    +0.000 A 
ATOM      9  N   UNL     1       2.423   5.852  19.966  0.00  0.00    +0.000 N 
ENDROOT
BRANCH   7  10
ATOM     10  C   UNL     1       1.144   8.470  17.838  0.00  0.00    +0.000 C 
ATOM     11  C   UNL     1       0.806   9.733  18.131  0.00  0.00    +0.000 C 
ATOM     12  C   UNL     1       2.114  10.512  17.755  0.00  0.00    +0.000 C 
ATOM     13  O   UNL     1       3.271  10.119  17.816  0.00  0.00    +0.000 OA
ATOM     14  N   UNL     1       1.768  11.846  17.881  0.00  0.00    +0.000 N 
ATOM     15  C   UNL     1       1.021  11.787  19.065  0.00  0.00    +0.000 A 
ATOM     16  C   UNL     1       1.464  12.386  20.207  0.00  0.00    +0.000 A 
ATOM     17  C   UNL     1       0.741  12.174  21.345  0.00  0.00    +0.000 A 
ATOM     18  C   UNL     1      -0.517  11.585  21.220  0.00  0.00    +0.000 A 
ATOM     19  C   UNL     1      -0.834  10.813  20.065  0.00  0.00    +0.000 A 
ATOM     20  C   UNL     1       0.201  10.667  19.155  0.00  0.00    +0.000 A 
ATOM     21  H   UNL     1       1.125  12.033  17.123  0.00  0.00    +0.000 HD
BRANCH  18  22
ATOM     22  S   UNL     1      -1.596  12.052  22.539  0.00  0.00    +0.000 S 
ATOM     23  O   UNL     1      -0.970  13.026  23.381  0.00  0.00    +0.000 OA
ATOM     24  O   UNL     1      -2.931  12.235  22.008  0.00  0.00    +0.000 OA
BRANCH  22  25
ATOM     25  N   UNL     1      -1.638  10.643  23.450  0.00  0.00    +0.000 NA
ATOM     26  H   UNL     1      -1.744   9.833  22.841  0.00  0.00    +0.000 HD
ATOM     27  H   UNL     1      -0.828  10.603  24.064  0.00  0.00    +0.000 HD
ENDBRANCH  22  25
ENDBRANCH  18  22
ENDBRANCH   7  10
BRANCH   1  29
ATOM     28  C   UNL     1       7.738   7.006  16.859  0.00  0.00    +0.000 C 
ATOM     29  O   UNL     1       6.556   6.382  16.362  0.00  0.00    +0.000 OA
ENDBRANCH   1  29
BRANCH   9  30
ATOM     30  C   UNL     1       2.183   5.063  21.167  0.00  0.00    +0.000 C 
BRANCH  30  31
ATOM     31  C   UNL     1       1.382   3.790  20.901  0.00  0.00    +0.000 C 
BRANCH  31  32
ATOM     32  C   UNL     1       2.302   2.594  20.698  0.00  0.00    +0.000 C 
BRANCH  32  33
ATOM     33  C   UNL     1       2.106   1.992  19.316  0.00  0.00    +0.000 C 
BRANCH  33  34
ATOM     34  C   UNL     1       3.426   1.816  18.631  0.00  0.00    +0.000 C 
ATOM     35  O   UNL     1       3.591   1.923  17.426  0.00  0.00    +0.000 OA
BRANCH  34  36
ATOM     36  O   UNL     1       4.451   1.576  19.483  0.00  0.00    +0.000 OA
ATOM     37  H   UNL     1       5.334   1.532  19.059  0.00  0.00    +0.000 HD
ENDBRANCH  34  36
ENDBRANCH  33  34
ENDBRANCH  32  33
ENDBRANCH  31  32
ENDBRANCH  30  31
ENDBRANCH   9  30
TORSDOF 10
ENDMDL
MODEL 9
REMARK VINA RESULT:      -6.1      3.972      7.491
REMARK  Name = 
REMARK  11 active torsions:
REMARK  status: ('A' for Active; 'I' for Inactive)
REMARK    1  A    between atoms: C_1  and  O_2
REMARK    2  A    between atoms: O_2  and  C_3
REMARK    3  A    between atoms: C_9  and  C_10
REMARK    4  A    between atoms: C_18  and  S_19
REMARK    5  A    between atoms: S_19  and  N_20
REMARK    6  A    between atoms: N_26  and  C_27
REMARK    7  A    between atoms: C_27  and  C_28
REMARK    8  A    between atoms: C_28  and  C_29
REMARK    9  A    between atoms: C_29  and  C_30
REMARK   10  A    between atoms: C_30  and  C_31
REMARK   11  A    between atoms: C_31  and  O_33
REMARK                            x       y       z     vdW  Elec       q    Type
REMARK                         _______ _______ _______ _____ _____    ______ ____
ROOT
ATOM      1  C   UNL     1      -3.179  11.247  18.179  0.00  0.00    +0.000 A 
ATOM      2  C   UNL     1      -2.795  10.106  17.488  0.00  0.00    +0.000 A 
ATOM      3  C   UNL     1      -1.456   9.696  17.504  0.00  0.00    +0.000 A 
ATOM      4  C   UNL     1      -0.516  10.460  18.216  0.00  0.00    +0.000 A 
ATOM      5  C   UNL     1      -0.866  11.650  18.899  0.00  0.00    +0.000 A 
ATOM      6  C   UNL     1      -2.219  12.039  18.851  0.00  0.00    +0.000 A 
ATOM      7  C   UNL     1       0.349  12.161  19.517  0.00  0.00    +0.000 A 
ATOM      8  C   UNL     1       1.339  11.253  19.197  0.00  0.00    +0.000 A 
ATOM      9  N   UNL     1       0.839  10.277  18.393  0.00  0.00    +0.000 N 
ENDROOT
BRANCH   7  10
ATOM     10  C   UNL     1       0.744  13.283  20.387  0.00  0.00    +0.000 C 
ATOM     11  C   UNL     1       1.471  14.398  20.234  0.00  0.00    +0.000 C 
ATOM     12  C   UNL     1       0.516  15.289  19.367  0.00  0.00    +0.000 C 
ATOM     13  O   UNL     1      -0.301  14.929  18.530  0.00  0.00    +0.000 OA
ATOM     14  N   UNL     1       1.147  16.520  19.316  0.00  0.00    +0.000 N 
ATOM     15  C   UNL     1       2.470  16.102  19.123  0.00  0.00    +0.000 A 
ATOM     16  C   UNL     1       3.126  16.359  17.956  0.00  0.00    +0.000 A 
ATOM     17  C   UNL     1       4.365  15.808  17.800  0.00  0.00    +0.000 A 
ATOM     18  C   UNL     1       4.975  15.244  18.921  0.00  0.00    +0.000 A 
ATOM     19  C   UNL     1       4.186  14.829  20.032  0.00  0.00    +0.000 A 
ATOM     20  C   UNL     1       2.817  14.980  19.869  0.00  0.00    +0.000 A 
ATOM     21  H   UNL     1       1.079  16.899  20.252  0.00  0.00    +0.000 HD
BRANCH  18  22
ATOM     22  S   UNL     1       6.738  15.282  18.799  0.00  0.00    +0.000 S 
ATOM     23  O   UNL     1       7.187  16.581  18.402  0.00  0.00    +0.000 OA
ATOM     24  O   UNL     1       7.300  14.584  19.937  0.00  0.00    +0.000 OA
BRANCH  22  25
ATOM     25  N   UNL     1       7.000  14.298  17.464  0.00  0.00    +0.000 NA
ATOM     26  H   UNL     1       6.967  13.316  17.739  0.00  0.00    +0.000 HD
ATOM     27  H   UNL     1       6.355  14.547  16.718  0.00  0.00    +0.000 HD
ENDBRANCH  22  25
ENDBRANCH  18  22
ENDBRANCH   7  10
BRANCH   1  29
ATOM     28  C   UNL     1      -5.014  12.287  19.236  0.00  0.00    +0.000 C 
ATOM     29  O   UNL     1      -4.518  11.538  18.128  0.00  0.00    +0.000 OA
ENDBRANCH   1  29
BRANCH   9  30
ATOM     30  C   UNL     1       1.698   9.256  17.809  0.00  0.00    +0.000 C 
BRANCH  30  31
ATOM     31  C   UNL     1       2.102   8.169  18.804  0.00  0.00    +0.000 C 
BRANCH  31  32
ATOM     32  C   UNL     1       2.513   6.891  18.085  0.00  0.00    +0.000 C 
BRANCH  32  33
ATOM     33  C   UNL     1       3.916   7.023  17.514  0.00  0.00    +0.000 C 
BRANCH  33  34
ATOM     34  C   UNL     1       4.614   5.698  17.534  0.00  0.00    +0.000 C 
ATOM     35  O   UNL     1       4.168   4.683  17.024  0.00  0.00    +0.000 OA
BRANCH  34  36
ATOM     36  O   UNL     1       5.828   5.735  18.131  0.00  0.00    +0.000 OA
ATOM     37  H   UNL     1       5.802   5.862  19.104  0.00  0.00    +0.000 HD
ENDBRANCH  34  36
ENDBRANCH  33  34
ENDBRANCH  32  33
ENDBRANCH  31  32
ENDBRANCH  30  31
ENDBRANCH   9  30
TORSDOF 10
ENDMDL
