MODEL 1
REMARK VINA RESULT:      -7.1      0.000      0.000
REMARK  Name = 
REMARK  8 active torsions:
REMARK  status: ('A' for Active; 'I' for Inactive)
REMARK    1  A    between atoms: C_1  and  C_2
REMARK    2  A    between atoms: C_2  and  C_3
REMARK    3  A    between atoms: C_2  and  N_4
REMARK    4  A    between atoms: N_4  and  C_5
REMARK    5  A    between atoms: C_5  and  C_6
REMARK    6  A    between atoms: C_9  and  C_10
REMARK    7  A    between atoms: C_20  and  C_21
REMARK    8  A    between atoms: C_29  and  C_30
REMARK                            x       y       z     vdW  Elec       q    Type
REMARK                         _______ _______ _______ _____ _____    ______ ____
ROOT
ATOM      1  C   UNL     1       1.840  14.282  20.394  0.00  0.00    +0.000 A 
ATOM      2  C   UNL     1       1.804  12.927  20.643  0.00  0.00    +0.000 A 
ATOM      3  N   UNL     1       0.571  12.668  21.194  0.00  0.00    +0.000 N 
ATOM      4  C   UNL     1       0.006  11.442  21.578  0.00  0.00    +0.000 A 
ATOM      5  C   UNL     1      -1.247  11.463  22.079  0.00  0.00    +0.000 A 
ATOM      6  C   UNL     1      -1.985  12.721  22.212  0.00  0.00    +0.000 A 
ATOM      7  C   UNL     1      -1.407  13.897  21.840  0.00  0.00    +0.000 A 
ATOM      8  C   UNL     1      -0.081  13.899  21.302  0.00  0.00    +0.000 A 
ATOM      9  N   UNL     1       0.678  14.876  20.846  0.00  0.00    +0.000 NA
ENDROOT
BRANCH   4  10
ATOM     10  C   UNL     1       0.685  10.200  21.379  0.00  0.00    +0.000 A 
ATOM     11  C   UNL     1       0.997   9.291  22.366  0.00  0.00    +0.000 A 
ATOM     12  N   UNL     1       1.568   8.203  21.755  0.00  0.00    +0.000 N 
ATOM     13  C   UNL     1       1.623   8.391  20.391  0.00  0.00    +0.000 A 
ATOM     14  C   UNL     1       2.087   7.544  19.377  0.00  0.00    +0.000 A 
ATOM     15  C   UNL     1       2.015   8.010  18.060  0.00  0.00    +0.000 A 
ATOM     16  C   UNL     1       1.508   9.274  17.770  0.00  0.00    +0.000 A 
ATOM     17  C   UNL     1       1.044  10.106  18.794  0.00  0.00    +0.000 A 
ATOM     18  C   UNL     1       1.095   9.655  20.128  0.00  0.00    +0.000 A 
ATOM     19  H   UNL     1       1.886   7.367  22.228  0.00  0.00    +0.000 HD
ENDBRANCH   4  10
BRANCH   6  20
ATOM     20  C   UNL     1      -3.375  12.695  22.731  0.00  0.00    +0.000 A 
ATOM     21  C   UNL     1      -3.619  12.559  24.105  0.00  0.00    +0.000 A 
ATOM     22  C   UNL     1      -4.930  12.529  24.583  0.00  0.00    +0.000 A 
ATOM     23  C   UNL     1      -5.995  12.623  23.690  0.00  0.00    +0.000 A 
ATOM     24  F   UNL     1      -7.249  12.584  24.157  0.00  0.00    +0.000 F 
ATOM     25  C   UNL     1      -5.777  12.751  22.326  0.00  0.00    +0.000 A 
ATOM     26  C   UNL     1      -4.468  12.786  21.856  0.00  0.00    +0.000 A 
ATOM     27  F   UNL     1      -4.264  12.914  20.536  0.00  0.00    +0.000 F 
ENDBRANCH   6  20
BRANCH   7  28
ATOM     28  C   UNL     1      -2.188  15.190  22.009  0.00  0.00    +0.000 C 
ATOM     29  N   UNL     1      -2.835  16.263  22.149  0.00  0.00    +0.000 NA
ENDBRANCH   7  28
BRANCH   1  30
ATOM     30  C   UNL     1       2.928  15.079  19.741  0.00  0.00    +0.000 C 
BRANCH  30  31
ATOM     31  N   UNL     1       2.557  16.499  19.771  0.00  0.00    +0.000 NA
ATOM     32  H   UNL     1       1.634  16.584  20.194  0.00  0.00    +0.000 HD
BRANCH  31  34
ATOM     33  C   UNL     1       3.215  16.182  17.456  0.00  0.00    +0.000 C 
ATOM     34  C   UNL     1       2.542  17.135  18.450  0.00  0.00    +0.000 C 
ATOM     35  C   UNL     1       1.127  17.455  17.963  0.00  0.00    +0.000 C 
ENDBRANCH  31  34
ENDBRANCH  30  31
ENDBRANCH   1  30
TORSDOF 6
ENDMDL
MODEL 2
REMARK VINA RESULT:      -7.1      3.993      6.279
REMARK  Name = 
REMARK  8 active torsions:
REMARK  status: ('A' for Active; 'I' for Inactive)
REMARK    1  A    between atoms: C_1  and  C_2
REMARK    2  A    between atoms: C_2  and  C_3
REMARK    3  A    between atoms: C_2  and  N_4
REMARK    4  A    between atoms: N_4  and  C_5
REMARK    5  A    between atoms: C_5  and  C_6
REMARK    6  A    between atoms: C_9  and  C_10
REMARK    7  A    between atoms: C_20  and  C_21
REMARK    8  A    between atoms: C_29  and  C_30
REMARK                            x       y       z     vdW  Elec       q    Type
REMARK                         _______ _______ _______ _____ _____    ______ ____
ROOT
ATOM      1  C   UNL     1      -2.167  11.036  17.893  0.00  0.00    +0.000 A 
ATOM      2  C   UNL     1      -1.208  10.227  18.461  0.00  0.00    +0.000 A 
ATOM      3  N   UNL     1      -0.257  11.067  18.990  0.00  0.00    +0.000 N 
ATOM      4  C   UNL     1       0.898  10.756  19.724  0.00  0.00    +0.000 A 
ATOM      5  C   UNL     1       1.661  11.785  20.151  0.00  0.00    +0.000 A 
ATOM      6  C   UNL     1       1.289  13.171  19.859  0.00  0.00    +0.000 A 
ATOM      7  C   UNL     1       0.167  13.442  19.136  0.00  0.00    +0.000 A 
ATOM      8  C   UNL     1      -0.659  12.368  18.676  0.00  0.00    +0.000 A 
ATOM      9  N   UNL     1      -1.791  12.361  18.000  0.00  0.00    +0.000 NA
ENDROOT
BRANCH   4  10
ATOM     10  C   UNL     1       1.229   9.413  20.083  0.00  0.00    +0.000 A 
ATOM     11  C   UNL     1       0.851   8.778  21.246  0.00  0.00    +0.000 A 
ATOM     12  N   UNL     1       1.295   7.482  21.168  0.00  0.00    +0.000 N 
ATOM     13  C   UNL     1       1.946   7.268  19.973  0.00  0.00    +0.000 A 
ATOM     14  C   UNL     1       2.526   6.104  19.452  0.00  0.00    +0.000 A 
ATOM     15  C   UNL     1       3.124   6.187  18.190  0.00  0.00    +0.000 A 
ATOM     16  C   UNL     1       3.148   7.386  17.482  0.00  0.00    +0.000 A 
ATOM     17  C   UNL     1       2.560   8.538  18.013  0.00  0.00    +0.000 A 
ATOM     18  C   UNL     1       1.941   8.477  19.278  0.00  0.00    +0.000 A 
ATOM     19  H   UNL     1       1.151   6.772  21.874  0.00  0.00    +0.000 HD
ENDBRANCH   4  10
BRANCH   6  20
ATOM     20  C   UNL     1       2.134  14.273  20.381  0.00  0.00    +0.000 A 
ATOM     21  C   UNL     1       1.906  14.798  21.662  0.00  0.00    +0.000 A 
ATOM     22  C   UNL     1       2.703  15.839  22.143  0.00  0.00    +0.000 A 
ATOM     23  C   UNL     1       3.717  16.361  21.343  0.00  0.00    +0.000 A 
ATOM     24  F   UNL     1       4.470  17.365  21.810  0.00  0.00    +0.000 F 
ATOM     25  C   UNL     1       3.955  15.862  20.071  0.00  0.00    +0.000 A 
ATOM     26  C   UNL     1       3.162  14.821  19.599  0.00  0.00    +0.000 A 
ATOM     27  F   UNL     1       3.400  14.340  18.370  0.00  0.00    +0.000 F 
ENDBRANCH   6  20
BRANCH   7  28
ATOM     28  C   UNL     1      -0.183  14.889  18.830  0.00  0.00    +0.000 C 
ATOM     29  N   UNL     1      -0.473  16.090  18.576  0.00  0.00    +0.000 NA
ENDBRANCH   7  28
BRANCH   1  30
ATOM     30  C   UNL     1      -3.452  10.634  17.235  0.00  0.00    +0.000 C 
BRANCH  30  31
ATOM     31  N   UNL     1      -4.217  11.846  16.914  0.00  0.00    +0.000 NA
ATOM     32  H   UNL     1      -3.584  12.643  16.928  0.00  0.00    +0.000 HD
BRANCH  31  34
ATOM     33  C   UNL     1      -6.379  12.938  17.087  0.00  0.00    +0.000 C 
ATOM     34  C   UNL     1      -5.333  12.101  17.832  0.00  0.00    +0.000 C 
ATOM     35  C   UNL     1      -5.986  10.814  18.341  0.00  0.00    +0.000 C 
ENDBRANCH  31  34
ENDBRANCH  30  31
ENDBRANCH   1  30
TORSDOF 6
ENDMDL
MODEL 3
REMARK VINA RESULT:      -7.0      1.238      1.775
REMARK  Name = 
REMARK  8 active torsions:
REMARK  status: ('A' for Active; 'I' for Inactive)
REMARK    1  A    between atoms: C_1  and  C_2
REMARK    2  A    between atoms: C_2  and  C_3
REMARK    3  A    between atoms: C_2  and  N_4
REMARK    4  A    between atoms: N_4  and  C_5
REMARK    5  A    between atoms: C_5  and  C_6
REMARK    6  A    between atoms: C_9  and  C_10
REMARK    7  A    between atoms: C_20  and  C_21
REMARK    8  A    between atoms: C_29  and  C_30
REMARK                            x       y       z     vdW  Elec       q    Type
REMARK                         _______ _______ _______ _____ _____    ______ ____
ROOT
ATOM      1  C   UNL     1       1.992  14.369  20.702  0.00  0.00    +0.000 A 
ATOM      2  C   UNL     1       1.884  13.005  20.866  0.00  0.00    +0.000 A 
ATOM      3  N   UNL     1       0.539  12.728  20.930  0.00  0.00    +0.000 N 
ATOM      4  C   UNL     1      -0.112  11.488  21.036  0.00  0.00    +0.000 A 
ATOM      5  C   UNL     1      -1.461  11.493  21.058  0.00  0.00    +0.000 A 
ATOM      6  C   UNL     1      -2.213  12.748  20.970  0.00  0.00    +0.000 A 
ATOM      7  C   UNL     1      -1.553  13.936  20.876  0.00  0.00    +0.000 A 
ATOM      8  C   UNL     1      -0.123  13.955  20.848  0.00  0.00    +0.000 A 
ATOM      9  N   UNL     1       0.738  14.948  20.733  0.00  0.00    +0.000 NA
ENDROOT
BRANCH   4  10
ATOM     10  C   UNL     1       0.608  10.254  21.043  0.00  0.00    +0.000 A 
ATOM     11  C   UNL     1       0.846   9.471  22.151  0.00  0.00    +0.000 A 
ATOM     12  N   UNL     1       1.492   8.339  21.722  0.00  0.00    +0.000 N 
ATOM     13  C   UNL     1       1.670   8.375  20.356  0.00  0.00    +0.000 A 
ATOM     14  C   UNL     1       2.242   7.434  19.491  0.00  0.00    +0.000 A 
ATOM     15  C   UNL     1       2.283   7.747  18.128  0.00  0.00    +0.000 A 
ATOM     16  C   UNL     1       1.779   8.954  17.651  0.00  0.00    +0.000 A 
ATOM     17  C   UNL     1       1.206   9.882  18.528  0.00  0.00    +0.000 A 
ATOM     18  C   UNL     1       1.142   9.584  19.904  0.00  0.00    +0.000 A 
ATOM     19  H   UNL     1       1.781   7.571  22.315  0.00  0.00    +0.000 HD
ENDBRANCH   4  10
BRANCH   6  20
ATOM     20  C   UNL     1      -3.696  12.704  20.956  0.00  0.00    +0.000 A 
ATOM     21  C   UNL     1      -4.391  12.544  19.749  0.00  0.00    +0.000 A 
ATOM     22  C   UNL     1      -5.787  12.510  19.747  0.00  0.00    +0.000 A 
ATOM     23  C   UNL     1      -6.486  12.646  20.944  0.00  0.00    +0.000 A 
ATOM     24  F   UNL     1      -7.824  12.622  20.929  0.00  0.00    +0.000 F 
ATOM     25  C   UNL     1      -5.818  12.813  22.148  0.00  0.00    +0.000 A 
ATOM     26  C   UNL     1      -4.427  12.840  22.146  0.00  0.00    +0.000 A 
ATOM     27  F   UNL     1      -3.787  12.997  23.314  0.00  0.00    +0.000 F 
ENDBRANCH   6  20
BRANCH   7  28
ATOM     28  C   UNL     1      -2.358  15.223  20.808  0.00  0.00    +0.000 C 
ATOM     29  N   UNL     1      -3.027  16.291  20.752  0.00  0.00    +0.000 NA
ENDBRANCH   7  28
BRANCH   1  30
ATOM     30  C   UNL     1       3.232  15.189  20.513  0.00  0.00    +0.000 C 
BRANCH  30  31
ATOM     31  N   UNL     1       2.984  16.185  19.464  0.00  0.00    +0.000 NA
ATOM     32  H   UNL     1       2.040  16.551  19.579  0.00  0.00    +0.000 HD
BRANCH  31  34
ATOM     33  C   UNL     1       2.989  16.830  17.123  0.00  0.00    +0.000 C 
ATOM     34  C   UNL     1       3.133  15.660  18.102  0.00  0.00    +0.000 C 
ATOM     35  C   UNL     1       4.483  14.976  17.877  0.00  0.00    +0.000 C 
ENDBRANCH  31  34
ENDBRANCH  30  31
ENDBRANCH   1  30
TORSDOF 6
ENDMDL
MODEL 4
REMARK VINA RESULT:      -7.0      1.180      1.679
REMARK  Name = 
REMARK  8 active torsions:
REMARK  status: ('A' for Active; 'I' for Inactive)
REMARK    1  A    between atoms: C_1  and  C_2
REMARK    2  A    between atoms: C_2  and  C_3
REMARK    3  A    between atoms: C_2  and  N_4
REMARK    4  A    between atoms: N_4  and  C_5
REMARK    5  A    between atoms: C_5  and  C_6
REMARK    6  A    between atoms: C_9  and  C_10
REMARK    7  A    between atoms: C_20  and  C_21
REMARK    8  A    between atoms: C_29  and  C_30
REMARK                            x       y       z     vdW  Elec       q    Type
REMARK                         _______ _______ _______ _____ _____    ______ ____
ROOT
ATOM      1  C   UNL     1       1.519  14.505  20.283  0.00  0.00    +0.000 A 
ATOM      2  C   UNL     1       1.505  13.160  20.583  0.00  0.00    +0.000 A 
ATOM      3  N   UNL     1       0.238  12.878  21.036  0.00  0.00    +0.000 N 
ATOM      4  C   UNL     1      -0.318  11.647  21.419  0.00  0.00    +0.000 A 
ATOM      5  C   UNL     1      -1.610  11.642  21.809  0.00  0.00    +0.000 A 
ATOM      6  C   UNL     1      -2.398  12.877  21.826  0.00  0.00    +0.000 A 
ATOM      7  C   UNL     1      -1.828  14.058  21.458  0.00  0.00    +0.000 A 
ATOM      8  C   UNL     1      -0.461  14.087  21.037  0.00  0.00    +0.000 A 
ATOM      9  N   UNL     1       0.303  15.073  20.609  0.00  0.00    +0.000 NA
ENDROOT
BRANCH   4  10
ATOM     10  C   UNL     1       0.416  10.424  21.331  0.00  0.00    +0.000 A 
ATOM     11  C   UNL     1       0.709   9.587  22.386  0.00  0.00    +0.000 A 
ATOM     12  N   UNL     1       1.351   8.489  21.871  0.00  0.00    +0.000 N 
ATOM     13  C   UNL     1       1.472   8.599  20.503  0.00  0.00    +0.000 A 
ATOM     14  C   UNL     1       2.019   7.714  19.567  0.00  0.00    +0.000 A 
ATOM     15  C   UNL     1       2.000   8.099  18.222  0.00  0.00    +0.000 A 
ATOM     16  C   UNL     1       1.463   9.322  17.831  0.00  0.00    +0.000 A 
ATOM     17  C   UNL     1       0.915  10.194  18.778  0.00  0.00    +0.000 A 
ATOM     18  C   UNL     1       0.912   9.824  20.138  0.00  0.00    +0.000 A 
ATOM     19  H   UNL     1       1.674   7.696  22.410  0.00  0.00    +0.000 HD
ENDBRANCH   4  10
BRANCH   6  20
ATOM     20  C   UNL     1      -3.827  12.819  22.224  0.00  0.00    +0.000 A 
ATOM     21  C   UNL     1      -4.823  12.598  21.262  0.00  0.00    +0.000 A 
ATOM     22  C   UNL     1      -6.165  12.551  21.645  0.00  0.00    +0.000 A 
ATOM     23  C   UNL     1      -6.511  12.735  22.982  0.00  0.00    +0.000 A 
ATOM     24  F   UNL     1      -7.801  12.697  23.337  0.00  0.00    +0.000 F 
ATOM     25  C   UNL     1      -5.542  12.962  23.948  0.00  0.00    +0.000 A 
ATOM     26  C   UNL     1      -4.206  13.001  23.562  0.00  0.00    +0.000 A 
ATOM     27  F   UNL     1      -3.273  13.217  24.502  0.00  0.00    +0.000 F 
ENDBRANCH   6  20
BRANCH   7  28
ATOM     28  C   UNL     1      -2.663  15.327  21.506  0.00  0.00    +0.000 C 
ATOM     29  N   UNL     1      -3.356  16.380  21.545  0.00  0.00    +0.000 NA
ENDBRANCH   7  28
BRANCH   1  30
ATOM     30  C   UNL     1       2.633  15.315  19.695  0.00  0.00    +0.000 C 
BRANCH  30  31
ATOM     31  N   UNL     1       3.776  14.431  19.437  0.00  0.00    +0.000 NA
ATOM     32  H   UNL     1       4.506  14.636  20.117  0.00  0.00    +0.000 HD
BRANCH  31  34
ATOM     33  C   UNL     1       3.519  15.624  17.338  0.00  0.00    +0.000 C 
ATOM     34  C   UNL     1       4.328  14.557  18.084  0.00  0.00    +0.000 C 
ATOM     35  C   UNL     1       5.806  14.952  18.083  0.00  0.00    +0.000 C 
ENDBRANCH  31  34
ENDBRANCH  30  31
ENDBRANCH   1  30
TORSDOF 6
ENDMDL
MODEL 5
REMARK VINA RESULT:      -6.9      3.540      6.252
REMARK  Name = 
REMARK  8 active torsions:
REMARK  status: ('A' for Active; 'I' for Inactive)
REMARK    1  A    between atoms: C_1  and  C_2
REMARK    2  A    between atoms: C_2  and  C_3
REMARK    3  A    between atoms: C_2  and  N_4
REMARK    4  A    between atoms: N_4  and  C_5
REMARK    5  A    between atoms: C_5  and  C_6
REMARK    6  A    between atoms: C_9  and  C_10
REMARK    7  A    between atoms: C_20  and  C_21
REMARK    8  A    between atoms: C_29  and  C_30
REMARK                            x       y       z     vdW  Elec       q    Type
REMARK                         _______ _______ _______ _____ _____    ______ ____
ROOT
ATOM      1  C   UNL     1      -2.246  11.060  18.030  0.00  0.00    +0.000 A 
ATOM      2  C   UNL     1      -1.270  10.248  18.565  0.00  0.00    +0.000 A 
ATOM      3  N   UNL     1      -0.293  11.085  19.049  0.00  0.00    +0.000 N 
ATOM      4  C   UNL     1       0.889  10.771  19.738  0.00  0.00    +0.000 A 
ATOM      5  C   UNL     1       1.675  11.797  20.127  0.00  0.00    +0.000 A 
ATOM      6  C   UNL     1       1.301  13.184  19.841  0.00  0.00    +0.000 A 
ATOM      7  C   UNL     1       0.152  13.458  19.163  0.00  0.00    +0.000 A 
ATOM      8  C   UNL     1      -0.699  12.387  18.744  0.00  0.00    +0.000 A 
ATOM      9  N   UNL     1      -1.857  12.383  18.113  0.00  0.00    +0.000 NA
ENDROOT
BRANCH   4  10
ATOM     10  C   UNL     1       1.225   9.427  20.091  0.00  0.00    +0.000 A 
ATOM     11  C   UNL     1       0.857   8.789  21.256  0.00  0.00    +0.000 A 
ATOM     12  N   UNL     1       1.304   7.494  21.172  0.00  0.00    +0.000 N 
ATOM     13  C   UNL     1       1.946   7.284  19.972  0.00  0.00    +0.000 A 
ATOM     14  C   UNL     1       2.525   6.123  19.444  0.00  0.00    +0.000 A 
ATOM     15  C   UNL     1       3.113   6.209  18.178  0.00  0.00    +0.000 A 
ATOM     16  C   UNL     1       3.129   7.409  17.472  0.00  0.00    +0.000 A 
ATOM     17  C   UNL     1       2.542   8.559  18.010  0.00  0.00    +0.000 A 
ATOM     18  C   UNL     1       1.933   8.495  19.279  0.00  0.00    +0.000 A 
ATOM     19  H   UNL     1       1.165   6.782  21.877  0.00  0.00    +0.000 HD
ENDBRANCH   4  10
BRANCH   6  20
ATOM     20  C   UNL     1       2.174  14.283  20.323  0.00  0.00    +0.000 A 
ATOM     21  C   UNL     1       3.265  14.713  19.553  0.00  0.00    +0.000 A 
ATOM     22  C   UNL     1       4.084  15.744  20.018  0.00  0.00    +0.000 A 
ATOM     23  C   UNL     1       3.820  16.337  21.250  0.00  0.00    +0.000 A 
ATOM     24  F   UNL     1       4.617  17.319  21.690  0.00  0.00    +0.000 F 
ATOM     25  C   UNL     1       2.751  15.923  22.030  0.00  0.00    +0.000 A 
ATOM     26  C   UNL     1       1.934  14.899  21.560  0.00  0.00    +0.000 A 
ATOM     27  F   UNL     1       0.899  14.506  22.317  0.00  0.00    +0.000 F 
ENDBRANCH   6  20
BRANCH   7  28
ATOM     28  C   UNL     1      -0.200  14.905  18.862  0.00  0.00    +0.000 C 
ATOM     29  N   UNL     1      -0.492  16.107  18.612  0.00  0.00    +0.000 NA
ENDBRANCH   7  28
BRANCH   1  30
ATOM     30  C   UNL     1      -3.559  10.664  17.427  0.00  0.00    +0.000 C 
BRANCH  30  31
ATOM     31  N   UNL     1      -4.265  11.876  16.994  0.00  0.00    +0.000 NA
ATOM     32  H   UNL     1      -3.845  12.680  17.457  0.00  0.00    +0.000 HD
BRANCH  31  34
ATOM     33  C   UNL     1      -5.959  10.812  18.371  0.00  0.00    +0.000 C 
ATOM     34  C   UNL     1      -5.705  11.855  17.277  0.00  0.00    +0.000 C 
ATOM     35  C   UNL     1      -6.236  13.213  17.741  0.00  0.00    +0.000 C 
ENDBRANCH  31  34
ENDBRANCH  30  31
ENDBRANCH   1  30
TORSDOF 6
ENDMDL
MODEL 6
REMARK VINA RESULT:      -6.9      3.049      6.276
REMARK  Name = 
REMARK  8 active torsions:
REMARK  status: ('A' for Active; 'I' for Inactive)
REMARK    1  A    between atoms: C_1  and  C_2
REMARK    2  A    between atoms: C_2  and  C_3
REMARK    3  A    between atoms: C_2  and  N_4
REMARK    4  A    between atoms: N_4  and  C_5
REMARK    5  A    between atoms: C_5  and  C_6
REMARK    6  A    between atoms: C_9  and  C_10
REMARK    7  A    between atoms: C_20  and  C_21
REMARK    8  A    between atoms: C_29  and  C_30
REMARK                            x       y       z     vdW  Elec       q    Type
REMARK                         _______ _______ _______ _____ _____    ______ ____
ROOT
ATOM      1  C   UNL     1      -1.279  11.688  19.164  0.00  0.00    +0.000 A 
ATOM      2  C   UNL     1      -0.619  12.886  18.993  0.00  0.00    +0.000 A 
ATOM      3  N   UNL     1      -1.175  13.765  19.891  0.00  0.00    +0.000 N 
ATOM      4  C   UNL     1      -0.830  15.099  20.164  0.00  0.00    +0.000 A 
ATOM      5  C   UNL     1      -1.530  15.740  21.122  0.00  0.00    +0.000 A 
ATOM      6  C   UNL     1      -2.607  15.064  21.850  0.00  0.00    +0.000 A 
ATOM      7  C   UNL     1      -2.925  13.773  21.558  0.00  0.00    +0.000 A 
ATOM      8  C   UNL     1      -2.194  13.071  20.548  0.00  0.00    +0.000 A 
ATOM      9  N   UNL     1      -2.281  11.832  20.105  0.00  0.00    +0.000 NA
ENDROOT
BRANCH   4  10
ATOM     10  C   UNL     1       0.269  15.743  19.516  0.00  0.00    +0.000 A 
ATOM     11  C   UNL     1       1.600  15.434  19.698  0.00  0.00    +0.000 A 
ATOM     12  N   UNL     1       2.325  16.220  18.838  0.00  0.00    +0.000 N 
ATOM     13  C   UNL     1       1.485  17.025  18.099  0.00  0.00    +0.000 A 
ATOM     14  C   UNL     1       1.774  17.950  17.088  0.00  0.00    +0.000 A 
ATOM     15  C   UNL     1       0.698  18.630  16.506  0.00  0.00    +0.000 A 
ATOM     16  C   UNL     1      -0.610  18.400  16.923  0.00  0.00    +0.000 A 
ATOM     17  C   UNL     1      -0.882  17.469  17.930  0.00  0.00    +0.000 A 
ATOM     18  C   UNL     1       0.183  16.762  18.524  0.00  0.00    +0.000 A 
ATOM     19  H   UNL     1       3.331  16.202  18.737  0.00  0.00    +0.000 HD
ENDBRANCH   4  10
BRANCH   6  20
ATOM     20  C   UNL     1      -3.325  15.794  22.924  0.00  0.00    +0.000 A 
ATOM     21  C   UNL     1      -4.415  16.620  22.616  0.00  0.00    +0.000 A 
ATOM     22  C   UNL     1      -5.080  17.307  23.633  0.00  0.00    +0.000 A 
ATOM     23  C   UNL     1      -4.651  17.179  24.952  0.00  0.00    +0.000 A 
ATOM     24  F   UNL     1      -5.290  17.849  25.919  0.00  0.00    +0.000 F 
ATOM     25  C   UNL     1      -3.571  16.373  25.278  0.00  0.00    +0.000 A 
ATOM     26  C   UNL     1      -2.915  15.685  24.262  0.00  0.00    +0.000 A 
ATOM     27  F   UNL     1      -1.874  14.904  24.584  0.00  0.00    +0.000 F 
ENDBRANCH   6  20
BRANCH   7  28
ATOM     28  C   UNL     1      -4.061  13.103  22.314  0.00  0.00    +0.000 C 
ATOM     29  N   UNL     1      -5.003  12.547  22.941  0.00  0.00    +0.000 NA
ENDBRANCH   7  28
BRANCH   1  30
ATOM     30  C   UNL     1      -1.024  10.379  18.482  0.00  0.00    +0.000 C 
BRANCH  30  31
ATOM     31  N   UNL     1      -1.266  10.541  17.043  0.00  0.00    +0.000 NA
ATOM     32  H   UNL     1      -0.768  11.370  16.721  0.00  0.00    +0.000 HD
BRANCH  31  34
ATOM     33  C   UNL     1      -2.837  10.333  15.204  0.00  0.00    +0.000 C 
ATOM     34  C   UNL     1      -2.685  10.665  16.692  0.00  0.00    +0.000 C 
ATOM     35  C   UNL     1      -3.580   9.733  17.511  0.00  0.00    +0.000 C 
ENDBRANCH  31  34
ENDBRANCH  30  31
ENDBRANCH   1  30
TORSDOF 6
ENDMDL
MODEL 7
REMARK VINA RESULT:      -6.8      1.109      1.337
REMARK  Name = 
REMARK  8 active torsions:
REMARK  status: ('A' for Active; 'I' for Inactive)
REMARK    1  A    between atoms: C_1  and  C_2
REMARK    2  A    between atoms: C_2  and  C_3
REMARK    3  A    between atoms: C_2  and  N_4
REMARK    4  A    between atoms: N_4  and  C_5
REMARK    5  A    between atoms: C_5  and  C_6
REMARK    6  A    between atoms: C_9  and  C_10
REMARK    7  A    between atoms: C_20  and  C_21
REMARK    8  A    between atoms: C_29  and  C_30
REMARK                            x       y       z     vdW  Elec       q    Type
REMARK                         _______ _______ _______ _____ _____    ______ ____
ROOT
ATOM      1  C   UNL     1       1.864  14.089  19.498  0.00  0.00    +0.000 A 
ATOM      2  C   UNL     1       1.837  12.789  19.953  0.00  0.00    +0.000 A 
ATOM      3  N   UNL     1       0.598  12.602  20.518  0.00  0.00    +0.000 N 
ATOM      4  C   UNL     1       0.039  11.442  21.077  0.00  0.00    +0.000 A 
ATOM      5  C   UNL     1      -1.223  11.523  21.549  0.00  0.00    +0.000 A 
ATOM      6  C   UNL     1      -1.977  12.777  21.474  0.00  0.00    +0.000 A 
ATOM      7  C   UNL     1      -1.405  13.889  20.933  0.00  0.00    +0.000 A 
ATOM      8  C   UNL     1      -0.070  13.825  20.423  0.00  0.00    +0.000 A 
ATOM      9  N   UNL     1       0.687  14.730  19.834  0.00  0.00    +0.000 NA
ENDROOT
BRANCH   4  10
ATOM     10  C   UNL     1       0.735  10.194  21.085  0.00  0.00    +0.000 A 
ATOM     11  C   UNL     1       1.021   9.442  22.204  0.00  0.00    +0.000 A 
ATOM     12  N   UNL     1       1.621   8.284  21.777  0.00  0.00    +0.000 N 
ATOM     13  C   UNL     1       1.722   8.273  20.403  0.00  0.00    +0.000 A 
ATOM     14  C   UNL     1       2.226   7.293  19.539  0.00  0.00    +0.000 A 
ATOM     15  C   UNL     1       2.196   7.562  18.166  0.00  0.00    +0.000 A 
ATOM     16  C   UNL     1       1.689   8.763  17.678  0.00  0.00    +0.000 A 
ATOM     17  C   UNL     1       1.183   9.729  18.554  0.00  0.00    +0.000 A 
ATOM     18  C   UNL     1       1.192   9.478  19.941  0.00  0.00    +0.000 A 
ATOM     19  H   UNL     1       1.929   7.531  22.377  0.00  0.00    +0.000 HD
ENDBRANCH   4  10
BRANCH   6  20
ATOM     20  C   UNL     1      -3.376  12.812  21.968  0.00  0.00    +0.000 A 
ATOM     21  C   UNL     1      -3.643  12.958  23.337  0.00  0.00    +0.000 A 
ATOM     22  C   UNL     1      -4.962  12.984  23.792  0.00  0.00    +0.000 A 
ATOM     23  C   UNL     1      -6.011  12.854  22.885  0.00  0.00    +0.000 A 
ATOM     24  F   UNL     1      -7.273  12.871  23.333  0.00  0.00    +0.000 F 
ATOM     25  C   UNL     1      -5.770  12.702  21.528  0.00  0.00    +0.000 A 
ATOM     26  C   UNL     1      -4.453  12.683  21.078  0.00  0.00    +0.000 A 
ATOM     27  F   UNL     1      -4.226  12.540  19.764  0.00  0.00    +0.000 F 
ENDBRANCH   6  20
BRANCH   7  28
ATOM     28  C   UNL     1      -2.203  15.182  20.887  0.00  0.00    +0.000 C 
ATOM     29  N   UNL     1      -2.866  16.254  20.849  0.00  0.00    +0.000 NA
ENDBRANCH   7  28
BRANCH   1  30
ATOM     30  C   UNL     1       2.954  14.790  18.747  0.00  0.00    +0.000 C 
BRANCH  30  31
ATOM     31  N   UNL     1       3.868  15.413  19.713  0.00  0.00    +0.000 NA
ATOM     32  H   UNL     1       3.521  16.345  19.934  0.00  0.00    +0.000 HD
BRANCH  31  34
ATOM     33  C   UNL     1       5.340  14.810  17.879  0.00  0.00    +0.000 C 
ATOM     34  C   UNL     1       5.252  15.515  19.237  0.00  0.00    +0.000 C 
ATOM     35  C   UNL     1       5.719  16.964  19.085  0.00  0.00    +0.000 C 
ENDBRANCH  31  34
ENDBRANCH  30  31
ENDBRANCH   1  30
TORSDOF 6
ENDMDL
MODEL 8
REMARK VINA RESULT:      -6.7      2.687      3.403
REMARK  Name = 
REMARK  8 active torsions:
REMARK  status: ('A' for Active; 'I' for Inactive)
REMARK    1  A    between atoms: C_1  and  C_2
REMARK    2  A    between atoms: C_2  and  C_3
REMARK    3  A    between atoms: C_2  and  N_4
REMARK    4  A    between atoms: N_4  and  C_5
REMARK    5  A    between atoms: C_5  and  C_6
REMARK    6  A    between atoms: C_9  and  C_10
REMARK    7  A    between atoms: C_20  and  C_21
REMARK    8  A    between atoms: C_29  and  C_30
REMARK                            x       y       z     vdW  Elec       q    Type
REMARK                         _______ _______ _______ _____ _____    ______ ____
ROOT
ATOM      1  C   UNL     1       1.911  13.673  20.987  0.00  0.00    +0.000 A 
ATOM      2  C   UNL     1       1.230  12.779  20.190  0.00  0.00    +0.000 A 
ATOM      3  N   UNL     1      -0.037  12.681  20.714  0.00  0.00    +0.000 N 
ATOM      4  C   UNL     1      -1.140  11.948  20.247  0.00  0.00    +0.000 A 
ATOM      5  C   UNL     1      -2.292  12.045  20.945  0.00  0.00    +0.000 A 
ATOM      6  C   UNL     1      -2.381  12.886  22.141  0.00  0.00    +0.000 A 
ATOM      7  C   UNL     1      -1.291  13.579  22.574  0.00  0.00    +0.000 A 
ATOM      8  C   UNL     1      -0.061  13.495  21.849  0.00  0.00    +0.000 A 
ATOM      9  N   UNL     1       1.108  14.078  22.035  0.00  0.00    +0.000 NA
ENDROOT
BRANCH   4  10
ATOM     10  C   UNL     1      -1.087  11.187  19.039  0.00  0.00    +0.000 A 
ATOM     11  C   UNL     1      -0.060  10.348  18.665  0.00  0.00    +0.000 A 
ATOM     12  N   UNL     1      -0.430   9.747  17.488  0.00  0.00    +0.000 N 
ATOM     13  C   UNL     1      -1.680  10.178  17.100  0.00  0.00    +0.000 A 
ATOM     14  C   UNL     1      -2.463   9.814  15.998  0.00  0.00    +0.000 A 
ATOM     15  C   UNL     1      -3.714  10.427  15.860  0.00  0.00    +0.000 A 
ATOM     16  C   UNL     1      -4.159  11.370  16.783  0.00  0.00    +0.000 A 
ATOM     17  C   UNL     1      -3.367  11.719  17.882  0.00  0.00    +0.000 A 
ATOM     18  C   UNL     1      -2.108  11.107  18.049  0.00  0.00    +0.000 A 
ATOM     19  H   UNL     1       0.120   9.066  16.982  0.00  0.00    +0.000 HD
ENDBRANCH   4  10
BRANCH   6  20
ATOM     20  C   UNL     1      -3.678  12.995  22.854  0.00  0.00    +0.000 A 
ATOM     21  C   UNL     1      -3.894  12.289  24.046  0.00  0.00    +0.000 A 
ATOM     22  C   UNL     1      -5.120  12.393  24.707  0.00  0.00    +0.000 A 
ATOM     23  C   UNL     1      -6.129  13.192  24.174  0.00  0.00    +0.000 A 
ATOM     24  F   UNL     1      -7.303  13.278  24.811  0.00  0.00    +0.000 F 
ATOM     25  C   UNL     1      -5.938  13.893  22.993  0.00  0.00    +0.000 A 
ATOM     26  C   UNL     1      -4.713  13.791  22.341  0.00  0.00    +0.000 A 
ATOM     27  F   UNL     1      -4.534  14.476  21.202  0.00  0.00    +0.000 F 
ENDBRANCH   6  20
BRANCH   7  28
ATOM     28  C   UNL     1      -1.407  14.427  23.830  0.00  0.00    +0.000 C 
ATOM     29  N   UNL     1      -1.504  15.132  24.871  0.00  0.00    +0.000 NA
ENDBRANCH   7  28
BRANCH   1  30
ATOM     30  C   UNL     1       3.309  14.189  20.824  0.00  0.00    +0.000 C 
BRANCH  30  31
ATOM     31  N   UNL     1       4.111  13.750  21.973  0.00  0.00    +0.000 NA
ATOM     32  H   UNL     1       3.549  13.847  22.817  0.00  0.00    +0.000 HD
BRANCH  31  34
ATOM     33  C   UNL     1       5.573  15.356  20.888  0.00  0.00    +0.000 C 
ATOM     34  C   UNL     1       5.363  14.496  22.139  0.00  0.00    +0.000 C 
ATOM     35  C   UNL     1       5.355  15.397  23.376  0.00  0.00    +0.000 C 
ENDBRANCH  31  34
ENDBRANCH  30  31
ENDBRANCH   1  30
TORSDOF 6
ENDMDL
MODEL 9
REMARK VINA RESULT:      -6.6      0.917      1.293
REMARK  Name = 
REMARK  8 active torsions:
REMARK  status: ('A' for Active; 'I' for Inactive)
REMARK    1  A    between atoms: C_1  and  C_2
REMARK    2  A    between atoms: C_2  and  C_3
REMARK    3  A    between atoms: C_2  and  N_4
REMARK    4  A    between atoms: N_4  and  C_5
REMARK    5  A    between atoms: C_5  and  C_6
REMARK    6  A    between atoms: C_9  and  C_10
REMARK    7  A    between atoms: C_20  and  C_21
REMARK    8  A    between atoms: C_29  and  C_30
REMARK                            x       y       z     vdW  Elec       q    Type
REMARK                         _______ _______ _______ _____ _____    ______ ____
ROOT
ATOM      1  C   UNL     1       1.793  14.261  20.174  0.00  0.00    +0.000 A 
ATOM      2  C   UNL     1       1.775  12.916  20.472  0.00  0.00    +0.000 A 
ATOM      3  N   UNL     1       0.557  12.666  21.058  0.00  0.00    +0.000 N 
ATOM      4  C   UNL     1       0.013  11.449  21.497  0.00  0.00    +0.000 A 
ATOM      5  C   UNL     1      -1.230  11.476  22.025  0.00  0.00    +0.000 A 
ATOM      6  C   UNL     1      -1.978  12.732  22.128  0.00  0.00    +0.000 A 
ATOM      7  C   UNL     1      -1.419  13.899  21.702  0.00  0.00    +0.000 A 
ATOM      8  C   UNL     1      -0.105  13.894  21.136  0.00  0.00    +0.000 A 
ATOM      9  N   UNL     1       0.635  14.861  20.629  0.00  0.00    +0.000 NA
ENDROOT
BRANCH   4  10
ATOM     10  C   UNL     1       0.700  10.208  21.329  0.00  0.00    +0.000 A 
ATOM     11  C   UNL     1       1.018   9.324  22.338  0.00  0.00    +0.000 A 
ATOM     12  N   UNL     1       1.596   8.225  21.753  0.00  0.00    +0.000 N 
ATOM     13  C   UNL     1       1.649   8.381  20.385  0.00  0.00    +0.000 A 
ATOM     14  C   UNL     1       2.118   7.512  19.391  0.00  0.00    +0.000 A 
ATOM     15  C   UNL     1       2.042   7.946  18.063  0.00  0.00    +0.000 A 
ATOM     16  C   UNL     1       1.527   9.199  17.743  0.00  0.00    +0.000 A 
ATOM     17  C   UNL     1       1.058  10.053  18.746  0.00  0.00    +0.000 A 
ATOM     18  C   UNL     1       1.112   9.635  20.091  0.00  0.00    +0.000 A 
ATOM     19  H   UNL     1       1.919   7.404  22.246  0.00  0.00    +0.000 HD
ENDBRANCH   4  10
BRANCH   6  20
ATOM     20  C   UNL     1      -3.356  12.711  22.677  0.00  0.00    +0.000 A 
ATOM     21  C   UNL     1      -3.569  12.588  24.058  0.00  0.00    +0.000 A 
ATOM     22  C   UNL     1      -4.870  12.563  24.564  0.00  0.00    +0.000 A 
ATOM     23  C   UNL     1      -5.954  12.650  23.694  0.00  0.00    +0.000 A 
ATOM     24  F   UNL     1      -7.198  12.617  24.189  0.00  0.00    +0.000 F 
ATOM     25  C   UNL     1      -5.766  12.765  22.325  0.00  0.00    +0.000 A 
ATOM     26  C   UNL     1      -4.468  12.796  21.826  0.00  0.00    +0.000 A 
ATOM     27  F   UNL     1      -4.292  12.912  20.501  0.00  0.00    +0.000 F 
ENDBRANCH   6  20
BRANCH   7  28
ATOM     28  C   UNL     1      -2.209  15.190  21.841  0.00  0.00    +0.000 C 
ATOM     29  N   UNL     1      -2.865  16.261  21.956  0.00  0.00    +0.000 NA
ENDBRANCH   7  28
BRANCH   1  30
ATOM     30  C   UNL     1       2.859  15.044  19.469  0.00  0.00    +0.000 C 
BRANCH  30  31
ATOM     31  N   UNL     1       3.040  16.325  20.163  0.00  0.00    +0.000 NA
ATOM     32  H   UNL     1       3.297  17.033  19.478  0.00  0.00    +0.000 HD
BRANCH  31  34
ATOM     33  C   UNL     1       5.221  17.187  20.792  0.00  0.00    +0.000 C 
ATOM     34  C   UNL     1       4.057  16.287  21.220  0.00  0.00    +0.000 C 
ATOM     35  C   UNL     1       3.522  16.762  22.573  0.00  0.00    +0.000 C 
ENDBRANCH  31  34
ENDBRANCH  30  31
ENDBRANCH   1  30
TORSDOF 6
ENDMDL
