MODEL 1
REMARK VINA RESULT:      -7.7      0.000      0.000
REMARK  Name = 
REMARK  2 active torsions:
REMARK  status: ('A' for Active; 'I' for Inactive)
REMARK    1  A    between atoms: C_4  and  N_5
REMARK    2  A    between atoms: N_12  and  C_13
REMARK                            x       y       z     vdW  Elec       q    Type
REMARK                         _______ _______ _______ _____ _____    ______ ____
ROOT
ATOM      1  O   UNL     1       7.506   4.504  18.047  0.00  0.00    +0.000 OA
ATOM      2  C   UNL     1       6.305   4.411  17.863  0.00  0.00    +0.000 C 
ATOM      3  C   UNL     1       5.357   4.375  18.982  0.00  0.00    +0.000 C 
ATOM      4  C   UNL     1       4.118   4.265  18.493  0.00  0.00    +0.000 C 
ATOM      5  C   UNL     1       4.162   4.218  16.985  0.00  0.00    +0.000 C 
ATOM      6  N   UNL     1       5.567   4.332  16.689  0.00  0.00    +0.000 N 
ENDROOT
BRANCH   6   7
ATOM      7  C   UNL     1       6.077   4.369  15.364  0.00  0.00    +0.000 A 
ATOM      8  C   UNL     1       7.221   5.112  15.040  0.00  0.00    +0.000 A 
ATOM      9  C   UNL     1       7.713   5.160  13.732  0.00  0.00    +0.000 A 
ATOM     10  C   UNL     1       7.061   4.464  12.727  0.00  0.00    +0.000 A 
ATOM     11  F   UNL     1       7.543   4.528  11.478  0.00  0.00    +0.000 F 
ATOM     12  C   UNL     1       5.926   3.719  13.019  0.00  0.00    +0.000 A 
ATOM     13 CL   UNL     1       5.099   2.858  11.776  0.00  0.00    +0.000 Cl
ATOM     14  C   UNL     1       5.437   3.665  14.329  0.00  0.00    +0.000 A 
ENDBRANCH   6   7
BRANCH   4  15
ATOM     15  N   UNL     1       2.925   4.184  19.204  0.00  0.00    +0.000 N 
ATOM     16  C   UNL     1       2.771   4.627  20.608  0.00  0.00    +0.000 C 
ATOM     17  C   UNL     1       2.060   3.535  21.419  0.00  0.00    +0.000 C 
ATOM     18  O   UNL     1       0.785   3.202  20.848  0.00  0.00    +0.000 OA
ATOM     19  C   UNL     1       0.951   2.733  19.500  0.00  0.00    +0.000 C 
ATOM     20  C   UNL     1       1.628   3.790  18.613  0.00  0.00    +0.000 C 
ENDBRANCH   4  15
TORSDOF 2
ENDMDL
MODEL 2
REMARK VINA RESULT:      -7.5      0.648      1.012
REMARK  Name = 
REMARK  2 active torsions:
REMARK  status: ('A' for Active; 'I' for Inactive)
REMARK    1  A    between atoms: C_4  and  N_5
REMARK    2  A    between atoms: N_12  and  C_13
REMARK                            x       y       z     vdW  Elec       q    Type
REMARK                         _______ _______ _______ _____ _____    ______ ____
ROOT
ATOM      1  O   UNL     1       7.547   4.635  18.019  0.00  0.00    +0.000 OA
ATOM      2  C   UNL     1       6.377   4.339  17.847  0.00  0.00    +0.000 C 
ATOM      3  C   UNL     1       5.462   4.137  18.975  0.00  0.00    +0.000 C 
ATOM      4  C   UNL     1       4.255   3.819  18.498  0.00  0.00    +0.000 C 
ATOM      5  C   UNL     1       4.289   3.788  16.990  0.00  0.00    +0.000 C 
ATOM      6  N   UNL     1       5.650   4.141  16.680  0.00  0.00    +0.000 N 
ENDROOT
BRANCH   6   7
ATOM      7  C   UNL     1       6.131   4.271  15.350  0.00  0.00    +0.000 A 
ATOM      8  C   UNL     1       7.194   5.130  15.036  0.00  0.00    +0.000 A 
ATOM      9  C   UNL     1       7.656   5.268  13.724  0.00  0.00    +0.000 A 
ATOM     10  C   UNL     1       7.056   4.547  12.704  0.00  0.00    +0.000 A 
ATOM     11  F   UNL     1       7.508   4.698  11.452  0.00  0.00    +0.000 F 
ATOM     12  C   UNL     1       6.002   3.688  12.986  0.00  0.00    +0.000 A 
ATOM     13 CL   UNL     1       5.239   2.795  11.725  0.00  0.00    +0.000 Cl
ATOM     14  C   UNL     1       5.543   3.544  14.300  0.00  0.00    +0.000 A 
ENDBRANCH   6   7
BRANCH   4  15
ATOM     15  N   UNL     1       3.101   3.533  19.221  0.00  0.00    +0.000 N 
ATOM     16  C   UNL     1       1.802   4.209  19.003  0.00  0.00    +0.000 C 
ATOM     17  C   UNL     1       1.223   4.661  20.350  0.00  0.00    +0.000 C 
ATOM     18  O   UNL     1       1.075   3.557  21.256  0.00  0.00    +0.000 OA
ATOM     19  C   UNL     1       2.348   2.935  21.494  0.00  0.00    +0.000 C 
ATOM     20  C   UNL     1       2.980   2.422  20.190  0.00  0.00    +0.000 C 
ENDBRANCH   4  15
TORSDOF 2
ENDMDL
MODEL 3
REMARK VINA RESULT:      -7.5      1.331      1.646
REMARK  Name = 
REMARK  2 active torsions:
REMARK  status: ('A' for Active; 'I' for Inactive)
REMARK    1  A    between atoms: C_4  and  N_5
REMARK    2  A    between atoms: N_12  and  C_13
REMARK                            x       y       z     vdW  Elec       q    Type
REMARK                         _______ _______ _______ _____ _____    ______ ____
ROOT
ATOM      1  O   UNL     1       4.835   6.941  16.776  0.00  0.00    +0.000 OA
ATOM      2  C   UNL     1       4.516   5.787  17.007  0.00  0.00    +0.000 C 
ATOM      3  C   UNL     1       3.695   5.436  18.171  0.00  0.00    +0.000 C 
ATOM      4  C   UNL     1       3.506   4.113  18.180  0.00  0.00    +0.000 C 
ATOM      5  C   UNL     1       4.203   3.484  16.998  0.00  0.00    +0.000 C 
ATOM      6  N   UNL     1       4.789   4.611  16.319  0.00  0.00    +0.000 N 
ENDROOT
BRANCH   6   7
ATOM      7  C   UNL     1       5.523   4.489  15.110  0.00  0.00    +0.000 A 
ATOM      8  C   UNL     1       6.798   5.055  14.965  0.00  0.00    +0.000 A 
ATOM      9  C   UNL     1       7.512   4.946  13.768  0.00  0.00    +0.000 A 
ATOM     10  C   UNL     1       6.956   4.269  12.695  0.00  0.00    +0.000 A 
ATOM     11  F   UNL     1       7.652   4.181  11.554  0.00  0.00    +0.000 F 
ATOM     12  C   UNL     1       5.695   3.697  12.810  0.00  0.00    +0.000 A 
ATOM     13 CL   UNL     1       4.987   2.862  11.479  0.00  0.00    +0.000 Cl
ATOM     14  C   UNL     1       4.982   3.799  14.010  0.00  0.00    +0.000 A 
ENDBRANCH   6   7
BRANCH   4  15
ATOM     15  N   UNL     1       2.800   3.360  19.112  0.00  0.00    +0.000 N 
ATOM     16  C   UNL     1       1.346   3.093  19.026  0.00  0.00    +0.000 C 
ATOM     17  C   UNL     1       0.686   3.381  20.381  0.00  0.00    +0.000 C 
ATOM     18  O   UNL     1       1.284   2.605  21.432  0.00  0.00    +0.000 OA
ATOM     19  C   UNL     1       2.686   2.903  21.535  0.00  0.00    +0.000 C 
ATOM     20  C   UNL     1       3.425   2.607  20.221  0.00  0.00    +0.000 C 
ENDBRANCH   4  15
TORSDOF 2
ENDMDL
MODEL 4
REMARK VINA RESULT:      -7.4      1.327      1.626
REMARK  Name = 
REMARK  2 active torsions:
REMARK  status: ('A' for Active; 'I' for Inactive)
REMARK    1  A    between atoms: C_4  and  N_5
REMARK    2  A    between atoms: N_12  and  C_13
REMARK                            x       y       z     vdW  Elec       q    Type
REMARK                         _______ _______ _______ _____ _____    ______ ____
ROOT
ATOM      1  O   UNL     1       5.179   7.225  16.230  0.00  0.00    +0.000 OA
ATOM      2  C   UNL     1       4.853   6.117  16.619  0.00  0.00    +0.000 C 
ATOM      3  C   UNL     1       4.100   5.930  17.864  0.00  0.00    +0.000 C 
ATOM      4  C   UNL     1       3.886   4.624  18.045  0.00  0.00    +0.000 C 
ATOM      5  C   UNL     1       4.497   3.839  16.910  0.00  0.00    +0.000 C 
ATOM      6  N   UNL     1       5.061   4.860  16.065  0.00  0.00    +0.000 N 
ENDROOT
BRANCH   6   7
ATOM      7  C   UNL     1       5.716   4.573  14.838  0.00  0.00    +0.000 A 
ATOM      8  C   UNL     1       7.003   5.058  14.563  0.00  0.00    +0.000 A 
ATOM      9  C   UNL     1       7.639   4.787  13.348  0.00  0.00    +0.000 A 
ATOM     10  C   UNL     1       6.993   4.025  12.388  0.00  0.00    +0.000 A 
ATOM     11  F   UNL     1       7.616   3.782  11.227  0.00  0.00    +0.000 F 
ATOM     12  C   UNL     1       5.718   3.530  12.634  0.00  0.00    +0.000 A 
ATOM     13 CL   UNL     1       4.899   2.592  11.444  0.00  0.00    +0.000 Cl
ATOM     14  C   UNL     1       5.083   3.795  13.852  0.00  0.00    +0.000 A 
ENDBRANCH   6   7
BRANCH   4  15
ATOM     15  N   UNL     1       3.225   4.008  19.103  0.00  0.00    +0.000 N 
ATOM     16  C   UNL     1       3.095   2.540  19.251  0.00  0.00    +0.000 C 
ATOM     17  C   UNL     1       1.636   2.179  19.559  0.00  0.00    +0.000 C 
ATOM     18  O   UNL     1       1.165   2.853  20.737  0.00  0.00    +0.000 OA
ATOM     19  C   UNL     1       1.255   4.277  20.565  0.00  0.00    +0.000 C 
ATOM     20  C   UNL     1       2.700   4.722  20.286  0.00  0.00    +0.000 C 
ENDBRANCH   4  15
TORSDOF 2
ENDMDL
MODEL 5
REMARK VINA RESULT:      -7.3      1.156      1.169
REMARK  Name = 
REMARK  2 active torsions:
REMARK  status: ('A' for Active; 'I' for Inactive)
REMARK    1  A    between atoms: C_4  and  N_5
REMARK    2  A    between atoms: N_12  and  C_13
REMARK                            x       y       z     vdW  Elec       q    Type
REMARK                         _______ _______ _______ _____ _____    ______ ____
ROOT
ATOM      1  O   UNL     1       5.985   7.106  16.680  0.00  0.00    +0.000 OA
ATOM      2  C   UNL     1       5.260   6.139  16.840  0.00  0.00    +0.000 C 
ATOM      3  C   UNL     1       4.347   6.045  17.984  0.00  0.00    +0.000 C 
ATOM      4  C   UNL     1       3.684   4.886  17.911  0.00  0.00    +0.000 C 
ATOM      5  C   UNL     1       4.123   4.118  16.688  0.00  0.00    +0.000 C 
ATOM      6  N   UNL     1       5.095   4.988  16.079  0.00  0.00    +0.000 N 
ENDROOT
BRANCH   6   7
ATOM      7  C   UNL     1       5.755   4.677  14.860  0.00  0.00    +0.000 A 
ATOM      8  C   UNL     1       7.043   5.156  14.582  0.00  0.00    +0.000 A 
ATOM      9  C   UNL     1       7.684   4.861  13.375  0.00  0.00    +0.000 A 
ATOM     10  C   UNL     1       7.041   4.082  12.426  0.00  0.00    +0.000 A 
ATOM     11  F   UNL     1       7.668   3.816  11.273  0.00  0.00    +0.000 F 
ATOM     12  C   UNL     1       5.764   3.594  12.676  0.00  0.00    +0.000 A 
ATOM     13 CL   UNL     1       4.948   2.635  11.500  0.00  0.00    +0.000 Cl
ATOM     14  C   UNL     1       5.124   3.883  13.886  0.00  0.00    +0.000 A 
ENDBRANCH   6   7
BRANCH   4  15
ATOM     15  N   UNL     1       2.733   4.392  18.798  0.00  0.00    +0.000 N 
ATOM     16  C   UNL     1       2.837   4.513  20.269  0.00  0.00    +0.000 C 
ATOM     17  C   UNL     1       2.562   3.151  20.921  0.00  0.00    +0.000 C 
ATOM     18  O   UNL     1       1.275   2.638  20.542  0.00  0.00    +0.000 OA
ATOM     19  C   UNL     1       1.201   2.483  19.116  0.00  0.00    +0.000 C 
ATOM     20  C   UNL     1       1.433   3.818  18.390  0.00  0.00    +0.000 C 
ENDBRANCH   4  15
TORSDOF 2
ENDMDL
MODEL 6
REMARK VINA RESULT:      -7.2      1.396      1.860
REMARK  Name = 
REMARK  2 active torsions:
REMARK  status: ('A' for Active; 'I' for Inactive)
REMARK    1  A    between atoms: C_4  and  N_5
REMARK    2  A    between atoms: N_12  and  C_13
REMARK                            x       y       z     vdW  Elec       q    Type
REMARK                         _______ _______ _______ _____ _____    ______ ____
ROOT
ATOM      1  O   UNL     1       7.758   4.696  17.559  0.00  0.00    +0.000 OA
ATOM      2  C   UNL     1       6.568   4.446  17.472  0.00  0.00    +0.000 C 
ATOM      3  C   UNL     1       5.716   4.341  18.662  0.00  0.00    +0.000 C 
ATOM      4  C   UNL     1       4.469   4.056  18.275  0.00  0.00    +0.000 C 
ATOM      5  C   UNL     1       4.409   3.949  16.771  0.00  0.00    +0.000 C 
ATOM      6  N   UNL     1       5.762   4.224  16.362  0.00  0.00    +0.000 N 
ENDROOT
BRANCH   6   7
ATOM      7  C   UNL     1       6.166   4.267  15.001  0.00  0.00    +0.000 A 
ATOM      8  C   UNL     1       5.507   3.516  14.018  0.00  0.00    +0.000 A 
ATOM      9  C   UNL     1       5.915   3.548  12.681  0.00  0.00    +0.000 A 
ATOM     10  C   UNL     1       6.994   4.335  12.310  0.00  0.00    +0.000 A 
ATOM     11  F   UNL     1       7.375   4.348  11.026  0.00  0.00    +0.000 F 
ATOM     12  C   UNL     1       7.665   5.091  13.264  0.00  0.00    +0.000 A 
ATOM     13 CL   UNL     1       9.016   6.063  12.818  0.00  0.00    +0.000 Cl
ATOM     14  C   UNL     1       7.253   5.064  14.600  0.00  0.00    +0.000 A 
ENDBRANCH   6   7
BRANCH   4  15
ATOM     15  N   UNL     1       3.352   3.858  19.079  0.00  0.00    +0.000 N 
ATOM     16  C   UNL     1       2.285   4.866  19.270  0.00  0.00    +0.000 C 
ATOM     17  C   UNL     1       1.981   5.019  20.767  0.00  0.00    +0.000 C 
ATOM     18  O   UNL     1       1.607   3.765  21.358  0.00  0.00    +0.000 OA
ATOM     19  C   UNL     1       2.667   2.807  21.205  0.00  0.00    +0.000 C 
ATOM     20  C   UNL     1       3.007   2.572  19.724  0.00  0.00    +0.000 C 
ENDBRANCH   4  15
TORSDOF 2
ENDMDL
MODEL 7
REMARK VINA RESULT:      -7.1      0.950      1.191
REMARK  Name = 
REMARK  2 active torsions:
REMARK  status: ('A' for Active; 'I' for Inactive)
REMARK    1  A    between atoms: C_4  and  N_5
REMARK    2  A    between atoms: N_12  and  C_13
REMARK                            x       y       z     vdW  Elec       q    Type
REMARK                         _______ _______ _______ _____ _____    ______ ____
ROOT
ATOM      1  O   UNL     1       7.608   6.067  17.360  0.00  0.00    +0.000 OA
ATOM      2  C   UNL     1       6.599   5.385  17.410  0.00  0.00    +0.000 C 
ATOM      3  C   UNL     1       5.840   5.228  18.656  0.00  0.00    +0.000 C 
ATOM      4  C   UNL     1       4.794   4.429  18.424  0.00  0.00    +0.000 C 
ATOM      5  C   UNL     1       4.788   3.994  16.978  0.00  0.00    +0.000 C 
ATOM      6  N   UNL     1       5.943   4.655  16.427  0.00  0.00    +0.000 N 
ENDROOT
BRANCH   6   7
ATOM      7  C   UNL     1       6.310   4.556  15.059  0.00  0.00    +0.000 A 
ATOM      8  C   UNL     1       7.481   5.152  14.570  0.00  0.00    +0.000 A 
ATOM      9  C   UNL     1       7.833   5.067  13.219  0.00  0.00    +0.000 A 
ATOM     10  C   UNL     1       7.012   4.383  12.337  0.00  0.00    +0.000 A 
ATOM     11  F   UNL     1       7.362   4.317  11.045  0.00  0.00    +0.000 F 
ATOM     12  C   UNL     1       5.846   3.782  12.794  0.00  0.00    +0.000 A 
ATOM     13 CL   UNL     1       4.811   2.939  11.705  0.00  0.00    +0.000 Cl
ATOM     14  C   UNL     1       5.497   3.861  14.146  0.00  0.00    +0.000 A 
ENDBRANCH   6   7
BRANCH   4  15
ATOM     15  N   UNL     1       3.826   4.008  19.330  0.00  0.00    +0.000 N 
ATOM     16  C   UNL     1       3.653   2.601  19.757  0.00  0.00    +0.000 C 
ATOM     17  C   UNL     1       2.172   2.211  19.663  0.00  0.00    +0.000 C 
ATOM     18  O   UNL     1       1.348   3.086  20.450  0.00  0.00    +0.000 OA
ATOM     19  C   UNL     1       1.491   4.443  19.999  0.00  0.00    +0.000 C 
ATOM     20  C   UNL     1       2.949   4.920  20.095  0.00  0.00    +0.000 C 
ENDBRANCH   4  15
TORSDOF 2
ENDMDL
MODEL 8
REMARK VINA RESULT:      -7.0      6.053      8.162
REMARK  Name = 
REMARK  2 active torsions:
REMARK  status: ('A' for Active; 'I' for Inactive)
REMARK    1  A    between atoms: C_4  and  N_5
REMARK    2  A    between atoms: N_12  and  C_13
REMARK                            x       y       z     vdW  Elec       q    Type
REMARK                         _______ _______ _______ _____ _____    ______ ____
ROOT
ATOM      1  O   UNL     1       2.552   9.107  17.603  0.00  0.00    +0.000 OA
ATOM      2  C   UNL     1       2.535   8.056  18.221  0.00  0.00    +0.000 C 
ATOM      3  C   UNL     1       3.179   6.846  17.696  0.00  0.00    +0.000 C 
ATOM      4  C   UNL     1       3.001   5.851  18.570  0.00  0.00    +0.000 C 
ATOM      5  C   UNL     1       2.210   6.343  19.758  0.00  0.00    +0.000 C 
ATOM      6  N   UNL     1       1.982   7.732  19.453  0.00  0.00    +0.000 N 
ENDROOT
BRANCH   6   7
ATOM      7  C   UNL     1       1.294   8.613  20.330  0.00  0.00    +0.000 A 
ATOM      8  C   UNL     1       1.432   8.515  21.722  0.00  0.00    +0.000 A 
ATOM      9  C   UNL     1       0.743   9.373  22.584  0.00  0.00    +0.000 A 
ATOM     10  C   UNL     1      -0.099  10.342  22.062  0.00  0.00    +0.000 A 
ATOM     11  F   UNL     1      -0.757  11.151  22.904  0.00  0.00    +0.000 F 
ATOM     12  C   UNL     1      -0.254  10.462  20.687  0.00  0.00    +0.000 A 
ATOM     13 CL   UNL     1      -1.307  11.654  20.025  0.00  0.00    +0.000 Cl
ATOM     14  C   UNL     1       0.441   9.608  19.823  0.00  0.00    +0.000 A 
ENDBRANCH   6   7
BRANCH   4  15
ATOM     15  N   UNL     1       3.435   4.534  18.461  0.00  0.00    +0.000 N 
ATOM     16  C   UNL     1       2.949   3.588  17.431  0.00  0.00    +0.000 C 
ATOM     17  C   UNL     1       2.564   2.257  18.093  0.00  0.00    +0.000 C 
ATOM     18  O   UNL     1       3.667   1.694  18.820  0.00  0.00    +0.000 OA
ATOM     19  C   UNL     1       4.104   2.602  19.844  0.00  0.00    +0.000 C 
ATOM     20  C   UNL     1       4.540   3.953  19.254  0.00  0.00    +0.000 C 
ENDBRANCH   4  15
TORSDOF 2
ENDMDL
MODEL 9
REMARK VINA RESULT:      -6.9      6.622      8.942
REMARK  Name = 
REMARK  2 active torsions:
REMARK  status: ('A' for Active; 'I' for Inactive)
REMARK    1  A    between atoms: C_4  and  N_5
REMARK    2  A    between atoms: N_12  and  C_13
REMARK                            x       y       z     vdW  Elec       q    Type
REMARK                         _______ _______ _______ _____ _____    ______ ____
ROOT
ATOM      1  O   UNL     1       1.508   9.960  17.828  0.00  0.00    +0.000 OA
ATOM      2  C   UNL     1       1.832   8.961  18.447  0.00  0.00    +0.000 C 
ATOM      3  C   UNL     1       2.691   7.933  17.849  0.00  0.00    +0.000 C 
ATOM      4  C   UNL     1       2.877   6.956  18.743  0.00  0.00    +0.000 C 
ATOM      5  C   UNL     1       2.138   7.277  20.019  0.00  0.00    +0.000 C 
ATOM      6  N   UNL     1       1.532   8.554  19.741  0.00  0.00    +0.000 N 
ENDROOT
BRANCH   6   7
ATOM      7  C   UNL     1       0.757   9.266  20.694  0.00  0.00    +0.000 A 
ATOM      8  C   UNL     1       0.781   8.930  22.055  0.00  0.00    +0.000 A 
ATOM      9  C   UNL     1       0.005   9.622  22.990  0.00  0.00    +0.000 A 
ATOM     10  C   UNL     1      -0.809  10.663  22.573  0.00  0.00    +0.000 A 
ATOM     11  F   UNL     1      -1.550  11.311  23.482  0.00  0.00    +0.000 F 
ATOM     12  C   UNL     1      -0.851  11.019  21.230  0.00  0.00    +0.000 A 
ATOM     13 CL   UNL     1      -1.868  12.303  20.696  0.00  0.00    +0.000 Cl
ATOM     14  C   UNL     1      -0.070  10.331  20.295  0.00  0.00    +0.000 A 
ENDBRANCH   6   7
BRANCH   4  15
ATOM     15  N   UNL     1       3.612   5.786  18.585  0.00  0.00    +0.000 N 
ATOM     16  C   UNL     1       3.037   4.428  18.708  0.00  0.00    +0.000 C 
ATOM     17  C   UNL     1       3.926   3.570  19.619  0.00  0.00    +0.000 C 
ATOM     18  O   UNL     1       5.275   3.509  19.129  0.00  0.00    +0.000 OA
ATOM     19  C   UNL     1       5.838   4.829  19.054  0.00  0.00    +0.000 C 
ATOM     20  C   UNL     1       5.018   5.741  18.128  0.00  0.00    +0.000 C 
ENDBRANCH   4  15
TORSDOF 2
ENDMDL
