MODEL 1
REMARK VINA RESULT:      -5.7      0.000      0.000
REMARK  Name = 
REMARK  12 active torsions:
REMARK  status: ('A' for Active; 'I' for Inactive)
REMARK    1  A    between atoms: C_1  and  C_2
REMARK    2  A    between atoms: C_2  and  O_3
REMARK    3  A    between atoms: O_3  and  C_4
REMARK    4  A    between atoms: C_4  and  C_5
REMARK    5  A    between atoms: C_5  and  C_6
REMARK    6  A    between atoms: C_6  and  N_7
REMARK    7  A    between atoms: N_7  and  C_8
REMARK    8  A    between atoms: C_8  and  C_9
REMARK    9  A    between atoms: C_12  and  O_13
REMARK   10  A    between atoms: O_13  and  C_14
REMARK   11  A    between atoms: C_15  and  O_16
REMARK   12  A    between atoms: O_16  and  C_17
REMARK                            x       y       z     vdW  Elec       q    Type
REMARK                         _______ _______ _______ _____ _____    ______ ____
ROOT
ATOM      1  C   UNL     1       3.217   6.183  18.188  0.00  0.00    +0.000 A 
ATOM      2  C   UNL     1       2.803   6.508  19.480  0.00  0.00    +0.000 A 
ATOM      3  C   UNL     1       2.018   5.617  20.209  0.00  0.00    +0.000 A 
ATOM      4  C   UNL     1       1.640   4.378  19.670  0.00  0.00    +0.000 A 
ATOM      5  C   UNL     1       2.070   4.026  18.378  0.00  0.00    +0.000 A 
ATOM      6  C   UNL     1       2.848   4.941  17.651  0.00  0.00    +0.000 A 
ENDROOT
BRANCH   4   7
ATOM      7  O   UNL     1       0.854   3.657  20.535  0.00  0.00    +0.000 OA
ATOM      8  C   UNL     1       1.483   2.875  21.533  0.00  0.00    +0.000 C 
ENDBRANCH   4   7
BRANCH   5   9
ATOM      9  O   UNL     1       1.717   2.799  17.884  0.00  0.00    +0.000 OA
ATOM     10  C   UNL     1       2.637   1.724  17.998  0.00  0.00    +0.000 C 
ENDBRANCH   5   9
BRANCH   1  11
ATOM     11  C   UNL     1       4.054   7.148  17.389  0.00  0.00    +0.000 C 
BRANCH  11  12
ATOM     12  N   UNL     1       5.206   6.465  16.801  0.00  0.00    +0.000 NA
ATOM     13  H   UNL     1       4.946   5.502  16.602  0.00  0.00    +0.000 HD
BRANCH  12  14
ATOM     14  C   UNL     1       6.341   6.491  17.717  0.00  0.00    +0.000 C 
BRANCH  14  15
ATOM     15  C   UNL     1       7.151   5.202  17.587  0.00  0.00    +0.000 C 
BRANCH  15  16
ATOM     16  C   UNL     1       6.914   4.569  16.223  0.00  0.00    +0.000 C 
BRANCH  16  17
ATOM     17  O   UNL     1       7.528   5.373  15.217  0.00  0.00    +0.000 OA
BRANCH  17  19
ATOM     18  C   UNL     1       5.998   3.978  14.029  0.00  0.00    +0.000 C 
ATOM     19  C   UNL     1       7.152   4.948  13.911  0.00  0.00    +0.000 C 
ENDBRANCH  17  19
ENDBRANCH  16  17
ENDBRANCH  15  16
ENDBRANCH  14  15
ENDBRANCH  12  14
ENDBRANCH  11  12
ENDBRANCH   1  11
TORSDOF 9
ENDMDL
MODEL 2
REMARK VINA RESULT:      -5.6      1.921      6.370
REMARK  Name = 
REMARK  12 active torsions:
REMARK  status: ('A' for Active; 'I' for Inactive)
REMARK    1  A    between atoms: C_1  and  C_2
REMARK    2  A    between atoms: C_2  and  O_3
REMARK    3  A    between atoms: O_3  and  C_4
REMARK    4  A    between atoms: C_4  and  C_5
REMARK    5  A    between atoms: C_5  and  C_6
REMARK    6  A    between atoms: C_6  and  N_7
REMARK    7  A    between atoms: N_7  and  C_8
REMARK    8  A    between atoms: C_8  and  C_9
REMARK    9  A    between atoms: C_12  and  O_13
REMARK   10  A    between atoms: O_13  and  C_14
REMARK   11  A    between atoms: C_15  and  O_16
REMARK   12  A    between atoms: O_16  and  C_17
REMARK                            x       y       z     vdW  Elec       q    Type
REMARK                         _______ _______ _______ _____ _____    ______ ____
ROOT
ATOM      1  C   UNL     1       5.685   4.417  18.028  0.00  0.00    +0.000 A 
ATOM      2  C   UNL     1       5.596   3.596  16.903  0.00  0.00    +0.000 A 
ATOM      3  C   UNL     1       6.213   3.971  15.711  0.00  0.00    +0.000 A 
ATOM      4  C   UNL     1       6.944   5.166  15.619  0.00  0.00    +0.000 A 
ATOM      5  C   UNL     1       7.062   5.992  16.751  0.00  0.00    +0.000 A 
ATOM      6  C   UNL     1       6.422   5.607  17.941  0.00  0.00    +0.000 A 
ENDROOT
BRANCH   4   7
ATOM      7  O   UNL     1       7.455   5.362  14.361  0.00  0.00    +0.000 OA
ATOM      8  C   UNL     1       6.975   4.558  13.299  0.00  0.00    +0.000 C 
ENDBRANCH   4   7
BRANCH   5   9
ATOM      9  O   UNL     1       7.806   7.137  16.649  0.00  0.00    +0.000 OA
ATOM     10  C   UNL     1       7.849   8.027  17.753  0.00  0.00    +0.000 C 
ENDBRANCH   5   9
BRANCH   1  11
ATOM     11  C   UNL     1       5.008   4.025  19.316  0.00  0.00    +0.000 C 
BRANCH  11  12
ATOM     12  N   UNL     1       4.703   2.595  19.322  0.00  0.00    +0.000 NA
ATOM     13  H   UNL     1       4.350   2.334  18.405  0.00  0.00    +0.000 HD
BRANCH  12  14
ATOM     14  C   UNL     1       3.706   2.286  20.341  0.00  0.00    +0.000 C 
BRANCH  14  15
ATOM     15  C   UNL     1       2.300   2.447  19.767  0.00  0.00    +0.000 C 
BRANCH  15  16
ATOM     16  C   UNL     1       2.268   1.973  18.321  0.00  0.00    +0.000 C 
BRANCH  16  17
ATOM     17  O   UNL     1       2.125   3.100  17.458  0.00  0.00    +0.000 OA
BRANCH  17  19
ATOM     18  C   UNL     1       2.092   5.466  17.771  0.00  0.00    +0.000 C 
ATOM     19  C   UNL     1       1.411   4.155  18.093  0.00  0.00    +0.000 C 
ENDBRANCH  17  19
ENDBRANCH  16  17
ENDBRANCH  15  16
ENDBRANCH  14  15
ENDBRANCH  12  14
ENDBRANCH  11  12
ENDBRANCH   1  11
TORSDOF 9
ENDMDL
MODEL 3
REMARK VINA RESULT:      -5.6      1.966      5.982
REMARK  Name = 
REMARK  12 active torsions:
REMARK  status: ('A' for Active; 'I' for Inactive)
REMARK    1  A    between atoms: C_1  and  C_2
REMARK    2  A    between atoms: C_2  and  O_3
REMARK    3  A    between atoms: O_3  and  C_4
REMARK    4  A    between atoms: C_4  and  C_5
REMARK    5  A    between atoms: C_5  and  C_6
REMARK    6  A    between atoms: C_6  and  N_7
REMARK    7  A    between atoms: N_7  and  C_8
REMARK    8  A    between atoms: C_8  and  C_9
REMARK    9  A    between atoms: C_12  and  O_13
REMARK   10  A    between atoms: O_13  and  C_14
REMARK   11  A    between atoms: C_15  and  O_16
REMARK   12  A    between atoms: O_16  and  C_17
REMARK                            x       y       z     vdW  Elec       q    Type
REMARK                         _______ _______ _______ _____ _____    ______ ____
ROOT
ATOM      1  C   UNL     1       4.771   3.905  17.998  0.00  0.00    +0.000 A 
ATOM      2  C   UNL     1       5.468   4.493  19.053  0.00  0.00    +0.000 A 
ATOM      3  C   UNL     1       6.489   5.407  18.795  0.00  0.00    +0.000 A 
ATOM      4  C   UNL     1       6.825   5.764  17.480  0.00  0.00    +0.000 A 
ATOM      5  C   UNL     1       6.115   5.197  16.407  0.00  0.00    +0.000 A 
ATOM      6  C   UNL     1       5.100   4.267  16.683  0.00  0.00    +0.000 A 
ENDROOT
BRANCH   4   7
ATOM      7  O   UNL     1       7.865   6.660  17.439  0.00  0.00    +0.000 OA
ATOM      8  C   UNL     1       7.576   8.041  17.538  0.00  0.00    +0.000 C 
ENDBRANCH   4   7
BRANCH   5   9
ATOM      9  O   UNL     1       6.438   5.583  15.134  0.00  0.00    +0.000 OA
ATOM     10  C   UNL     1       6.609   4.587  14.139  0.00  0.00    +0.000 C 
ENDBRANCH   5   9
BRANCH   1  11
ATOM     11  C   UNL     1       3.677   2.905  18.268  0.00  0.00    +0.000 C 
BRANCH  11  12
ATOM     12  N   UNL     1       3.257   2.968  19.668  0.00  0.00    +0.000 NA
ATOM     13  H   UNL     1       3.895   2.405  20.224  0.00  0.00    +0.000 HD
BRANCH  12  14
ATOM     14  C   UNL     1       1.896   2.466  19.819  0.00  0.00    +0.000 C 
BRANCH  14  15
ATOM     15  C   UNL     1       0.987   3.568  20.363  0.00  0.00    +0.000 C 
BRANCH  15  16
ATOM     16  C   UNL     1       1.783   4.849  20.566  0.00  0.00    +0.000 C 
BRANCH  16  17
ATOM     17  O   UNL     1       1.851   5.564  19.333  0.00  0.00    +0.000 OA
BRANCH  17  19
ATOM     18  C   UNL     1       3.000   7.247  18.090  0.00  0.00    +0.000 C 
ATOM     19  C   UNL     1       2.607   6.763  19.467  0.00  0.00    +0.000 C 
ENDBRANCH  17  19
ENDBRANCH  16  17
ENDBRANCH  15  16
ENDBRANCH  14  15
ENDBRANCH  12  14
ENDBRANCH  11  12
ENDBRANCH   1  11
TORSDOF 9
ENDMDL
MODEL 4
REMARK VINA RESULT:      -5.5      1.749      6.146
REMARK  Name = 
REMARK  12 active torsions:
REMARK  status: ('A' for Active; 'I' for Inactive)
REMARK    1  A    between atoms: C_1  and  C_2
REMARK    2  A    between atoms: C_2  and  O_3
REMARK    3  A    between atoms: O_3  and  C_4
REMARK    4  A    between atoms: C_4  and  C_5
REMARK    5  A    between atoms: C_5  and  C_6
REMARK    6  A    between atoms: C_6  and  N_7
REMARK    7  A    between atoms: N_7  and  C_8
REMARK    8  A    between atoms: C_8  and  C_9
REMARK    9  A    between atoms: C_12  and  O_13
REMARK   10  A    between atoms: O_13  and  C_14
REMARK   11  A    between atoms: C_15  and  O_16
REMARK   12  A    between atoms: O_16  and  C_17
REMARK                            x       y       z     vdW  Elec       q    Type
REMARK                         _______ _______ _______ _____ _____    ______ ____
ROOT
ATOM      1  C   UNL     1       4.603   5.625  18.182  0.00  0.00    +0.000 A 
ATOM      2  C   UNL     1       4.237   4.754  17.156  0.00  0.00    +0.000 A 
ATOM      3  C   UNL     1       5.010   4.669  15.999  0.00  0.00    +0.000 A 
ATOM      4  C   UNL     1       6.172   5.441  15.847  0.00  0.00    +0.000 A 
ATOM      5  C   UNL     1       6.567   6.306  16.883  0.00  0.00    +0.000 A 
ATOM      6  C   UNL     1       5.769   6.391  18.036  0.00  0.00    +0.000 A 
ENDROOT
BRANCH   4   7
ATOM      7  O   UNL     1       6.778   5.228  14.634  0.00  0.00    +0.000 OA
ATOM      8  C   UNL     1       6.467   4.048  13.917  0.00  0.00    +0.000 C 
ENDBRANCH   4   7
BRANCH   5   9
ATOM      9  O   UNL     1       7.721   7.027  16.729  0.00  0.00    +0.000 OA
ATOM     10  C   UNL     1       7.984   8.099  17.620  0.00  0.00    +0.000 C 
ENDBRANCH   5   9
BRANCH   1  11
ATOM     11  C   UNL     1       3.764   5.733  19.428  0.00  0.00    +0.000 C 
BRANCH  11  12
ATOM     12  N   UNL     1       2.382   5.339  19.154  0.00  0.00    +0.000 NA
ATOM     13  H   UNL     1       1.872   6.152  18.821  0.00  0.00    +0.000 HD
BRANCH  12  14
ATOM     14  C   UNL     1       1.748   4.817  20.360  0.00  0.00    +0.000 C 
BRANCH  14  15
ATOM     15  C   UNL     1       0.972   3.542  20.035  0.00  0.00    +0.000 C 
BRANCH  15  16
ATOM     16  C   UNL     1       1.846   2.320  20.277  0.00  0.00    +0.000 C 
BRANCH  16  17
ATOM     17  O   UNL     1       3.204   2.733  20.427  0.00  0.00    +0.000 OA
BRANCH  17  19
ATOM     18  C   UNL     1       3.480   1.484  18.412  0.00  0.00    +0.000 C 
ATOM     19  C   UNL     1       4.093   1.857  19.743  0.00  0.00    +0.000 C 
ENDBRANCH  17  19
ENDBRANCH  16  17
ENDBRANCH  15  16
ENDBRANCH  14  15
ENDBRANCH  12  14
ENDBRANCH  11  12
ENDBRANCH   1  11
TORSDOF 9
ENDMDL
MODEL 5
REMARK VINA RESULT:      -5.5      1.772      6.292
REMARK  Name = 
REMARK  12 active torsions:
REMARK  status: ('A' for Active; 'I' for Inactive)
REMARK    1  A    between atoms: C_1  and  C_2
REMARK    2  A    between atoms: C_2  and  O_3
REMARK    3  A    between atoms: O_3  and  C_4
REMARK    4  A    between atoms: C_4  and  C_5
REMARK    5  A    between atoms: C_5  and  C_6
REMARK    6  A    between atoms: C_6  and  N_7
REMARK    7  A    between atoms: N_7  and  C_8
REMARK    8  A    between atoms: C_8  and  C_9
REMARK    9  A    between atoms: C_12  and  O_13
REMARK   10  A    between atoms: O_13  and  C_14
REMARK   11  A    between atoms: C_15  and  O_16
REMARK   12  A    between atoms: O_16  and  C_17
REMARK                            x       y       z     vdW  Elec       q    Type
REMARK                         _______ _______ _______ _____ _____    ______ ____
ROOT
ATOM      1  C   UNL     1       4.487   4.441  17.160  0.00  0.00    +0.000 A 
ATOM      2  C   UNL     1       4.898   5.346  18.139  0.00  0.00    +0.000 A 
ATOM      3  C   UNL     1       5.969   6.204  17.894  0.00  0.00    +0.000 A 
ATOM      4  C   UNL     1       6.643   6.188  16.663  0.00  0.00    +0.000 A 
ATOM      5  C   UNL     1       6.223   5.298  15.658  0.00  0.00    +0.000 A 
ATOM      6  C   UNL     1       5.153   4.429  15.926  0.00  0.00    +0.000 A 
ENDROOT
BRANCH   4   7
ATOM      7  O   UNL     1       7.675   7.091  16.629  0.00  0.00    +0.000 OA
ATOM      8  C   UNL     1       7.951   7.853  17.789  0.00  0.00    +0.000 C 
ENDBRANCH   4   7
BRANCH   5   9
ATOM      9  O   UNL     1       6.874   5.321  14.453  0.00  0.00    +0.000 OA
ATOM     10  C   UNL     1       6.727   4.216  13.575  0.00  0.00    +0.000 C 
ENDBRANCH   5   9
BRANCH   1  11
ATOM     11  C   UNL     1       3.340   3.500  17.423  0.00  0.00    +0.000 C 
BRANCH  11  12
ATOM     12  N   UNL     1       3.836   2.187  17.834  0.00  0.00    +0.000 NA
ATOM     13  H   UNL     1       3.840   1.573  17.024  0.00  0.00    +0.000 HD
BRANCH  12  14
ATOM     14  C   UNL     1       2.988   1.621  18.878  0.00  0.00    +0.000 C 
BRANCH  14  15
ATOM     15  C   UNL     1       2.877   2.595  20.049  0.00  0.00    +0.000 C 
BRANCH  15  16
ATOM     16  C   UNL     1       1.436   2.670  20.534  0.00  0.00    +0.000 C 
BRANCH  16  17
ATOM     17  O   UNL     1       1.031   4.036  20.599  0.00  0.00    +0.000 OA
BRANCH  17  19
ATOM     18  C   UNL     1       1.866   6.258  20.343  0.00  0.00    +0.000 C 
ATOM     19  C   UNL     1       2.123   4.887  20.929  0.00  0.00    +0.000 C 
ENDBRANCH  17  19
ENDBRANCH  16  17
ENDBRANCH  15  16
ENDBRANCH  14  15
ENDBRANCH  12  14
ENDBRANCH  11  12
ENDBRANCH   1  11
TORSDOF 9
ENDMDL
MODEL 6
REMARK VINA RESULT:      -5.5      2.004      5.501
REMARK  Name = 
REMARK  12 active torsions:
REMARK  status: ('A' for Active; 'I' for Inactive)
REMARK    1  A    between atoms: C_1  and  C_2
REMARK    2  A    between atoms: C_2  and  O_3
REMARK    3  A    between atoms: O_3  and  C_4
REMARK    4  A    between atoms: C_4  and  C_5
REMARK    5  A    between atoms: C_5  and  C_6
REMARK    6  A    between atoms: C_6  and  N_7
REMARK    7  A    between atoms: N_7  and  C_8
REMARK    8  A    between atoms: C_8  and  C_9
REMARK    9  A    between atoms: C_12  and  O_13
REMARK   10  A    between atoms: O_13  and  C_14
REMARK   11  A    between atoms: C_15  and  O_16
REMARK   12  A    between atoms: O_16  and  C_17
REMARK                            x       y       z     vdW  Elec       q    Type
REMARK                         _______ _______ _______ _____ _____    ______ ____
ROOT
ATOM      1  C   UNL     1       3.351   6.180  19.185  0.00  0.00    +0.000 A 
ATOM      2  C   UNL     1       3.188   6.804  17.948  0.00  0.00    +0.000 A 
ATOM      3  C   UNL     1       4.226   6.797  17.017  0.00  0.00    +0.000 A 
ATOM      4  C   UNL     1       5.443   6.156  17.296  0.00  0.00    +0.000 A 
ATOM      5  C   UNL     1       5.612   5.502  18.529  0.00  0.00    +0.000 A 
ATOM      6  C   UNL     1       4.563   5.530  19.462  0.00  0.00    +0.000 A 
ENDROOT
BRANCH   4   7
ATOM      7  O   UNL     1       6.338   6.279  16.263  0.00  0.00    +0.000 OA
ATOM      8  C   UNL     1       6.406   5.249  15.295  0.00  0.00    +0.000 C 
ENDBRANCH   4   7
BRANCH   5   9
ATOM      9  O   UNL     1       6.795   4.854  18.768  0.00  0.00    +0.000 OA
ATOM     10  C   UNL     1       7.879   5.588  19.315  0.00  0.00    +0.000 C 
ENDBRANCH   5   9
BRANCH   1  11
ATOM     11  C   UNL     1       2.238   6.196  20.201  0.00  0.00    +0.000 C 
BRANCH  11  12
ATOM     12  N   UNL     1       1.506   4.930  20.182  0.00  0.00    +0.000 NA
ATOM     13  H   UNL     1       0.513   5.128  20.267  0.00  0.00    +0.000 HD
BRANCH  12  14
ATOM     14  C   UNL     1       1.935   4.073  21.282  0.00  0.00    +0.000 C 
BRANCH  14  15
ATOM     15  C   UNL     1       1.439   2.646  21.060  0.00  0.00    +0.000 C 
BRANCH  15  16
ATOM     16  C   UNL     1       1.799   2.178  19.657  0.00  0.00    +0.000 C 
BRANCH  16  17
ATOM     17  O   UNL     1       3.213   2.260  19.480  0.00  0.00    +0.000 OA
BRANCH  17  19
ATOM     18  C   UNL     1       2.394   3.005  17.365  0.00  0.00    +0.000 C 
ATOM     19  C   UNL     1       3.559   2.386  18.105  0.00  0.00    +0.000 C 
ENDBRANCH  17  19
ENDBRANCH  16  17
ENDBRANCH  15  16
ENDBRANCH  14  15
ENDBRANCH  12  14
ENDBRANCH  11  12
ENDBRANCH   1  11
TORSDOF 9
ENDMDL
MODEL 7
REMARK VINA RESULT:      -5.5      2.273      5.706
REMARK  Name = 
REMARK  12 active torsions:
REMARK  status: ('A' for Active; 'I' for Inactive)
REMARK    1  A    between atoms: C_1  and  C_2
REMARK    2  A    between atoms: C_2  and  O_3
REMARK    3  A    between atoms: O_3  and  C_4
REMARK    4  A    between atoms: C_4  and  C_5
REMARK    5  A    between atoms: C_5  and  C_6
REMARK    6  A    between atoms: C_6  and  N_7
REMARK    7  A    between atoms: N_7  and  C_8
REMARK    8  A    between atoms: C_8  and  C_9
REMARK    9  A    between atoms: C_12  and  O_13
REMARK   10  A    between atoms: O_13  and  C_14
REMARK   11  A    between atoms: C_15  and  O_16
REMARK   12  A    between atoms: O_16  and  C_17
REMARK                            x       y       z     vdW  Elec       q    Type
REMARK                         _______ _______ _______ _____ _____    ______ ____
ROOT
ATOM      1  C   UNL     1       3.897   3.053  17.877  0.00  0.00    +0.000 A 
ATOM      2  C   UNL     1       4.565   3.338  19.068  0.00  0.00    +0.000 A 
ATOM      3  C   UNL     1       5.512   4.359  19.112  0.00  0.00    +0.000 A 
ATOM      4  C   UNL     1       5.803   5.127  17.975  0.00  0.00    +0.000 A 
ATOM      5  C   UNL     1       5.119   4.868  16.773  0.00  0.00    +0.000 A 
ATOM      6  C   UNL     1       4.179   3.825  16.740  0.00  0.00    +0.000 A 
ENDROOT
BRANCH   4   7
ATOM      7  O   UNL     1       6.774   6.066  18.220  0.00  0.00    +0.000 OA
ATOM      8  C   UNL     1       7.748   5.793  19.210  0.00  0.00    +0.000 C 
ENDBRANCH   4   7
BRANCH   5   9
ATOM      9  O   UNL     1       5.394   5.650  15.683  0.00  0.00    +0.000 OA
ATOM     10  C   UNL     1       6.283   5.157  14.694  0.00  0.00    +0.000 C 
ENDBRANCH   5   9
BRANCH   1  11
ATOM     11  C   UNL     1       2.882   1.940  17.817  0.00  0.00    +0.000 C 
BRANCH  11  12
ATOM     12  N   UNL     1       2.118   1.874  19.062  0.00  0.00    +0.000 NA
ATOM     13  H   UNL     1       1.640   0.978  19.103  0.00  0.00    +0.000 HD
BRANCH  12  14
ATOM     14  C   UNL     1       1.142   2.958  19.123  0.00  0.00    +0.000 C 
BRANCH  14  15
ATOM     15  C   UNL     1       0.984   3.441  20.563  0.00  0.00    +0.000 C 
BRANCH  15  16
ATOM     16  C   UNL     1       1.522   4.858  20.702  0.00  0.00    +0.000 C 
BRANCH  16  17
ATOM     17  O   UNL     1       1.827   5.376  19.408  0.00  0.00    +0.000 OA
BRANCH  17  19
ATOM     18  C   UNL     1       2.643   7.218  18.127  0.00  0.00    +0.000 C 
ATOM     19  C   UNL     1       2.592   6.574  19.495  0.00  0.00    +0.000 C 
ENDBRANCH  17  19
ENDBRANCH  16  17
ENDBRANCH  15  16
ENDBRANCH  14  15
ENDBRANCH  12  14
ENDBRANCH  11  12
ENDBRANCH   1  11
TORSDOF 9
ENDMDL
MODEL 8
REMARK VINA RESULT:      -5.5      1.568      6.200
REMARK  Name = 
REMARK  12 active torsions:
REMARK  status: ('A' for Active; 'I' for Inactive)
REMARK    1  A    between atoms: C_1  and  C_2
REMARK    2  A    between atoms: C_2  and  O_3
REMARK    3  A    between atoms: O_3  and  C_4
REMARK    4  A    between atoms: C_4  and  C_5
REMARK    5  A    between atoms: C_5  and  C_6
REMARK    6  A    between atoms: C_6  and  N_7
REMARK    7  A    between atoms: N_7  and  C_8
REMARK    8  A    between atoms: C_8  and  C_9
REMARK    9  A    between atoms: C_12  and  O_13
REMARK   10  A    between atoms: O_13  and  C_14
REMARK   11  A    between atoms: C_15  and  O_16
REMARK   12  A    between atoms: O_16  and  C_17
REMARK                            x       y       z     vdW  Elec       q    Type
REMARK                         _______ _______ _______ _____ _____    ______ ____
ROOT
ATOM      1  C   UNL     1       3.834   5.785  17.706  0.00  0.00    +0.000 A 
ATOM      2  C   UNL     1       4.066   4.522  17.160  0.00  0.00    +0.000 A 
ATOM      3  C   UNL     1       5.242   4.269  16.455  0.00  0.00    +0.000 A 
ATOM      4  C   UNL     1       6.217   5.265  16.293  0.00  0.00    +0.000 A 
ATOM      5  C   UNL     1       6.008   6.535  16.858  0.00  0.00    +0.000 A 
ATOM      6  C   UNL     1       4.811   6.780  17.552  0.00  0.00    +0.000 A 
ENDROOT
BRANCH   4   7
ATOM      7  O   UNL     1       7.286   4.824  15.554  0.00  0.00    +0.000 OA
ATOM      8  C   UNL     1       7.212   4.891  14.143  0.00  0.00    +0.000 C 
ENDBRANCH   4   7
BRANCH   5   9
ATOM      9  O   UNL     1       6.986   7.483  16.715  0.00  0.00    +0.000 OA
ATOM     10  C   UNL     1       7.896   7.694  17.782  0.00  0.00    +0.000 C 
ENDBRANCH   5   9
BRANCH   1  11
ATOM     11  C   UNL     1       2.559   6.071  18.457  0.00  0.00    +0.000 C 
BRANCH  11  12
ATOM     12  N   UNL     1       2.804   6.091  19.898  0.00  0.00    +0.000 NA
ATOM     13  H   UNL     1       3.702   5.652  20.081  0.00  0.00    +0.000 HD
BRANCH  12  14
ATOM     14  C   UNL     1       1.750   5.375  20.609  0.00  0.00    +0.000 C 
BRANCH  14  15
ATOM     15  C   UNL     1       2.347   4.217  21.406  0.00  0.00    +0.000 C 
BRANCH  15  16
ATOM     16  C   UNL     1       2.055   2.896  20.709  0.00  0.00    +0.000 C 
BRANCH  16  17
ATOM     17  O   UNL     1       0.823   2.999  19.998  0.00  0.00    +0.000 OA
BRANCH  17  19
ATOM     18  C   UNL     1       2.231   1.721  18.555  0.00  0.00    +0.000 C 
ATOM     19  C   UNL     1       0.950   2.518  18.664  0.00  0.00    +0.000 C 
ENDBRANCH  17  19
ENDBRANCH  16  17
ENDBRANCH  15  16
ENDBRANCH  14  15
ENDBRANCH  12  14
ENDBRANCH  11  12
ENDBRANCH   1  11
TORSDOF 9
ENDMDL
MODEL 9
REMARK VINA RESULT:      -5.4      1.076      2.019
REMARK  Name = 
REMARK  12 active torsions:
REMARK  status: ('A' for Active; 'I' for Inactive)
REMARK    1  A    between atoms: C_1  and  C_2
REMARK    2  A    between atoms: C_2  and  O_3
REMARK    3  A    between atoms: O_3  and  C_4
REMARK    4  A    between atoms: C_4  and  C_5
REMARK    5  A    between atoms: C_5  and  C_6
REMARK    6  A    between atoms: C_6  and  N_7
REMARK    7  A    between atoms: N_7  and  C_8
REMARK    8  A    between atoms: C_8  and  C_9
REMARK    9  A    between atoms: C_12  and  O_13
REMARK   10  A    between atoms: O_13  and  C_14
REMARK   11  A    between atoms: C_15  and  O_16
REMARK   12  A    between atoms: O_16  and  C_17
REMARK                            x       y       z     vdW  Elec       q    Type
REMARK                         _______ _______ _______ _____ _____    ______ ____
ROOT
ATOM      1  C   UNL     1       2.878   6.313  18.338  0.00  0.00    +0.000 A 
ATOM      2  C   UNL     1       2.466   6.604  19.639  0.00  0.00    +0.000 A 
ATOM      3  C   UNL     1       1.846   5.625  20.413  0.00  0.00    +0.000 A 
ATOM      4  C   UNL     1       1.637   4.331  19.912  0.00  0.00    +0.000 A 
ATOM      5  C   UNL     1       2.069   4.016  18.611  0.00  0.00    +0.000 A 
ATOM      6  C   UNL     1       2.679   5.017  17.838  0.00  0.00    +0.000 A 
ENDROOT
BRANCH   4   7
ATOM      7  O   UNL     1       0.996   3.524  20.819  0.00  0.00    +0.000 OA
ATOM      8  C   UNL     1       1.777   2.717  21.680  0.00  0.00    +0.000 C 
ENDBRANCH   4   7
BRANCH   5   9
ATOM      9  O   UNL     1       1.885   2.738  18.153  0.00  0.00    +0.000 OA
ATOM     10  C   UNL     1       2.991   1.851  18.135  0.00  0.00    +0.000 C 
ENDBRANCH   5   9
BRANCH   1  11
ATOM     11  C   UNL     1       3.536   7.371  17.490  0.00  0.00    +0.000 C 
BRANCH  11  12
ATOM     12  N   UNL     1       4.911   6.990  17.168  0.00  0.00    +0.000 NA
ATOM     13  H   UNL     1       5.518   7.785  17.345  0.00  0.00    +0.000 HD
BRANCH  12  14
ATOM     14  C   UNL     1       5.018   6.589  15.769  0.00  0.00    +0.000 C 
BRANCH  14  15
ATOM     15  C   UNL     1       5.986   5.416  15.631  0.00  0.00    +0.000 C 
BRANCH  15  16
ATOM     16  C   UNL     1       6.362   4.883  17.006  0.00  0.00    +0.000 C 
BRANCH  16  17
ATOM     17  O   UNL     1       7.658   5.363  17.361  0.00  0.00    +0.000 OA
BRANCH  17  19
ATOM     18  C   UNL     1       6.443   5.244  19.412  0.00  0.00    +0.000 C 
ATOM     19  C   UNL     1       7.752   5.625  18.757  0.00  0.00    +0.000 C 
ENDBRANCH  17  19
ENDBRANCH  16  17
ENDBRANCH  15  16
ENDBRANCH  14  15
ENDBRANCH  12  14
ENDBRANCH  11  12
ENDBRANCH   1  11
TORSDOF 9
ENDMDL
