MODEL 1
REMARK VINA RESULT:      -7.2      0.000      0.000
REMARK  Name = 
REMARK  5 active torsions:
REMARK  status: ('A' for Active; 'I' for Inactive)
REMARK    1  A    between atoms: C_1  and  C_2
REMARK    2  A    between atoms: C_2  and  N_3
REMARK    3  A    between atoms: C_8  and  C_9
REMARK    4  A    between atoms: N_11  and  C_12
REMARK    5  A    between atoms: C_12  and  C_13
REMARK                            x       y       z     vdW  Elec       q    Type
REMARK                         _______ _______ _______ _____ _____    ______ ____
ROOT
ATOM      1  C   UNL     1       2.398   5.971  19.874  0.00  0.00    +0.000 C 
ATOM      2  O   UNL     1       1.621   5.072  20.199  0.00  0.00    +0.000 OA
ATOM      3  N   UNL     1       2.275   7.261  20.330  0.00  0.00    +0.000 N 
ATOM      4  H   UNL     1       2.966   7.933  20.017  0.00  0.00    +0.000 HD
ENDROOT
BRANCH   1  10
ATOM      5  N   UNL     1       6.688   5.292  15.664  0.00  0.00    +0.000 NA
ATOM      6  C   UNL     1       7.354   4.569  16.768  0.00  0.00    +0.000 C 
ATOM      7  C   UNL     1       6.967   5.111  18.147  0.00  0.00    +0.000 C 
ATOM      8  N   UNL     1       5.544   5.345  18.249  0.00  0.00    +0.000 N 
ATOM      9  C   UNL     1       4.830   5.542  19.384  0.00  0.00    +0.000 A 
ATOM     10  C   UNL     1       3.525   5.728  18.971  0.00  0.00    +0.000 A 
ATOM     11  N   UNL     1       3.455   5.647  17.580  0.00  0.00    +0.000 NA
ATOM     12  C   UNL     1       4.697   5.419  17.176  0.00  0.00    +0.000 A 
ATOM     13  C   UNL     1       5.209   5.188  15.781  0.00  0.00    +0.000 C 
BRANCH   5  15
ATOM     14  C   UNL     1       6.150   3.942  13.602  0.00  0.00    +0.000 C 
ATOM     15  C   UNL     1       7.175   4.764  14.376  0.00  0.00    +0.000 C 
ENDBRANCH   5  15
ENDBRANCH   1  10
BRANCH   3  16
ATOM     16  C   UNL     1       1.249   7.629  21.275  0.00  0.00    +0.000 C 
BRANCH  16  17
ATOM     17  C   UNL     1       0.663   8.984  20.975  0.00  0.00    +0.000 A 
ATOM     18  C   UNL     1       0.872   9.590  19.726  0.00  0.00    +0.000 A 
ATOM     19  C   UNL     1       0.317  10.839  19.440  0.00  0.00    +0.000 A 
ATOM     20  C   UNL     1      -0.449  11.499  20.401  0.00  0.00    +0.000 A 
ATOM     21  C   UNL     1      -0.652  10.906  21.645  0.00  0.00    +0.000 A 
ATOM     22 BR   UNL     1      -1.696  11.795  22.947  0.00  0.00    +0.000 Br
ATOM     23  C   UNL     1      -0.099   9.659  21.939  0.00  0.00    +0.000 A 
ENDBRANCH  16  17
ENDBRANCH   3  16
TORSDOF 4
ENDMDL
MODEL 2
REMARK VINA RESULT:      -7.1      1.173      1.556
REMARK  Name = 
REMARK  5 active torsions:
REMARK  status: ('A' for Active; 'I' for Inactive)
REMARK    1  A    between atoms: C_1  and  C_2
REMARK    2  A    between atoms: C_2  and  N_3
REMARK    3  A    between atoms: C_8  and  C_9
REMARK    4  A    between atoms: N_11  and  C_12
REMARK    5  A    between atoms: C_12  and  C_13
REMARK                            x       y       z     vdW  Elec       q    Type
REMARK                         _______ _______ _______ _____ _____    ______ ____
ROOT
ATOM      1  C   UNL     1       2.403   5.623  20.041  0.00  0.00    +0.000 C 
ATOM      2  O   UNL     1       1.834   4.645  20.528  0.00  0.00    +0.000 OA
ATOM      3  N   UNL     1       2.048   6.916  20.341  0.00  0.00    +0.000 N 
ATOM      4  H   UNL     1       2.578   7.658  19.900  0.00  0.00    +0.000 HD
ENDROOT
BRANCH   1  10
ATOM      5  N   UNL     1       6.599   5.350  15.693  0.00  0.00    +0.000 NA
ATOM      6  C   UNL     1       7.335   4.621  16.747  0.00  0.00    +0.000 C 
ATOM      7  C   UNL     1       6.960   5.087  18.157  0.00  0.00    +0.000 C 
ATOM      8  N   UNL     1       5.530   5.237  18.307  0.00  0.00    +0.000 N 
ATOM      9  C   UNL     1       4.839   5.349  19.469  0.00  0.00    +0.000 A 
ATOM     10  C   UNL     1       3.515   5.478  19.099  0.00  0.00    +0.000 A 
ATOM     11  N   UNL     1       3.409   5.448  17.708  0.00  0.00    +0.000 NA
ATOM     12  C   UNL     1       4.649   5.306  17.262  0.00  0.00    +0.000 A 
ATOM     13  C   UNL     1       5.132   5.159  15.845  0.00  0.00    +0.000 C 
BRANCH   5  15
ATOM     14  C   UNL     1       6.132   3.944  13.650  0.00  0.00    +0.000 C 
ATOM     15  C   UNL     1       7.076   4.900  14.371  0.00  0.00    +0.000 C 
ENDBRANCH   5  15
ENDBRANCH   1  10
BRANCH   3  16
ATOM     16  C   UNL     1       1.013   7.206  21.302  0.00  0.00    +0.000 C 
BRANCH  16  17
ATOM     17  C   UNL     1       0.658   8.670  21.326  0.00  0.00    +0.000 A 
ATOM     18  C   UNL     1      -0.064   9.211  22.401  0.00  0.00    +0.000 A 
ATOM     19  C   UNL     1      -0.381  10.570  22.434  0.00  0.00    +0.000 A 
ATOM     20  C   UNL     1       0.015  11.404  21.388  0.00  0.00    +0.000 A 
ATOM     21  C   UNL     1       0.724  10.871  20.314  0.00  0.00    +0.000 A 
ATOM     22 BR   UNL     1       1.270  12.001  18.900  0.00  0.00    +0.000 Br
ATOM     23  C   UNL     1       1.043   9.513  20.275  0.00  0.00    +0.000 A 
ENDBRANCH  16  17
ENDBRANCH   3  16
TORSDOF 4
ENDMDL
MODEL 3
REMARK VINA RESULT:      -7.0      3.503      8.504
REMARK  Name = 
REMARK  5 active torsions:
REMARK  status: ('A' for Active; 'I' for Inactive)
REMARK    1  A    between atoms: C_1  and  C_2
REMARK    2  A    between atoms: C_2  and  N_3
REMARK    3  A    between atoms: C_8  and  C_9
REMARK    4  A    between atoms: N_11  and  C_12
REMARK    5  A    between atoms: C_12  and  C_13
REMARK                            x       y       z     vdW  Elec       q    Type
REMARK                         _______ _______ _______ _____ _____    ______ ____
ROOT
ATOM      1  C   UNL     1       2.491   6.401  19.088  0.00  0.00    +0.000 C 
ATOM      2  O   UNL     1       2.192   5.878  18.014  0.00  0.00    +0.000 OA
ATOM      3  N   UNL     1       3.372   5.829  19.975  0.00  0.00    +0.000 N 
ATOM      4  H   UNL     1       3.566   6.336  20.830  0.00  0.00    +0.000 HD
ENDROOT
BRANCH   1  10
ATOM      5  N   UNL     1       0.365  11.552  21.441  0.00  0.00    +0.000 NA
ATOM      6  C   UNL     1      -0.067  11.761  20.043  0.00  0.00    +0.000 C 
ATOM      7  C   UNL     1       0.865  11.086  19.032  0.00  0.00    +0.000 C 
ATOM      8  N   UNL     1       1.217   9.746  19.441  0.00  0.00    +0.000 N 
ATOM      9  C   UNL     1       1.773   8.778  18.671  0.00  0.00    +0.000 A 
ATOM     10  C   UNL     1       1.927   7.688  19.504  0.00  0.00    +0.000 A 
ATOM     11  N   UNL     1       1.467   8.003  20.783  0.00  0.00    +0.000 NA
ATOM     12  C   UNL     1       1.049   9.259  20.709  0.00  0.00    +0.000 A 
ATOM     13  C   UNL     1       0.402  10.103  21.772  0.00  0.00    +0.000 C 
BRANCH   5  15
ATOM     14  C   UNL     1      -1.606  11.445  23.012  0.00  0.00    +0.000 C 
ATOM     15  C   UNL     1      -0.535  12.298  22.341  0.00  0.00    +0.000 C 
ENDBRANCH   5  15
ENDBRANCH   1  10
BRANCH   3  16
ATOM     16  C   UNL     1       4.051   4.595  19.666  0.00  0.00    +0.000 C 
BRANCH  16  17
ATOM     17  C   UNL     1       5.233   4.812  18.759  0.00  0.00    +0.000 A 
ATOM     18  C   UNL     1       6.410   5.400  19.249  0.00  0.00    +0.000 A 
ATOM     19  C   UNL     1       7.513   5.588  18.414  0.00  0.00    +0.000 A 
ATOM     20  C   UNL     1       7.451   5.196  17.077  0.00  0.00    +0.000 A 
ATOM     21  C   UNL     1       6.283   4.619  16.583  0.00  0.00    +0.000 A 
ATOM     22 BR   UNL     1       6.199   4.079  14.773  0.00  0.00    +0.000 Br
ATOM     23  C   UNL     1       5.176   4.430  17.411  0.00  0.00    +0.000 A 
ENDBRANCH  16  17
ENDBRANCH   3  16
TORSDOF 4
ENDMDL
MODEL 4
REMARK VINA RESULT:      -6.9      3.429      8.867
REMARK  Name = 
REMARK  5 active torsions:
REMARK  status: ('A' for Active; 'I' for Inactive)
REMARK    1  A    between atoms: C_1  and  C_2
REMARK    2  A    between atoms: C_2  and  N_3
REMARK    3  A    between atoms: C_8  and  C_9
REMARK    4  A    between atoms: N_11  and  C_12
REMARK    5  A    between atoms: C_12  and  C_13
REMARK                            x       y       z     vdW  Elec       q    Type
REMARK                         _______ _______ _______ _____ _____    ______ ____
ROOT
ATOM      1  C   UNL     1       1.949   8.849  18.329  0.00  0.00    +0.000 C 
ATOM      2  O   UNL     1       1.989   9.380  17.218  0.00  0.00    +0.000 OA
ATOM      3  N   UNL     1       2.659   7.714  18.638  0.00  0.00    +0.000 N 
ATOM      4  H   UNL     1       2.572   7.354  19.581  0.00  0.00    +0.000 HD
ENDROOT
BRANCH   1  10
ATOM      5  N   UNL     1      -1.717  11.500  22.344  0.00  0.00    +0.000 NA
ATOM      6  C   UNL     1      -0.960  10.642  23.280  0.00  0.00    +0.000 C 
ATOM      7  C   UNL     1      -0.476   9.344  22.627  0.00  0.00    +0.000 C 
ATOM      8  N   UNL     1       0.086   9.581  21.317  0.00  0.00    +0.000 N 
ATOM      9  C   UNL     1       0.853   8.729  20.592  0.00  0.00    +0.000 A 
ATOM     10  C   UNL     1       1.134   9.396  19.416  0.00  0.00    +0.000 A 
ATOM     11  N   UNL     1       0.529  10.653  19.432  0.00  0.00    +0.000 NA
ATOM     12  C   UNL     1      -0.102  10.728  20.595  0.00  0.00    +0.000 A 
ATOM     13  C   UNL     1      -0.878  11.878  21.176  0.00  0.00    +0.000 C 
BRANCH   5  15
ATOM     14  C   UNL     1      -3.584  12.504  23.713  0.00  0.00    +0.000 C 
ATOM     15  C   UNL     1      -2.213  12.685  23.069  0.00  0.00    +0.000 C 
ENDBRANCH   5  15
ENDBRANCH   1  10
BRANCH   3  16
ATOM     16  C   UNL     1       3.553   7.105  17.684  0.00  0.00    +0.000 C 
BRANCH  16  17
ATOM     17  C   UNL     1       3.425   5.604  17.668  0.00  0.00    +0.000 A 
ATOM     18  C   UNL     1       4.400   4.812  17.042  0.00  0.00    +0.000 A 
ATOM     19  C   UNL     1       4.292   3.420  17.040  0.00  0.00    +0.000 A 
ATOM     20  C   UNL     1       3.204   2.803  17.658  0.00  0.00    +0.000 A 
ATOM     21  C   UNL     1       2.229   3.585  18.273  0.00  0.00    +0.000 A 
ATOM     22 BR   UNL     1       0.758   2.751  19.118  0.00  0.00    +0.000 Br
ATOM     23  C   UNL     1       2.329   4.977  18.278  0.00  0.00    +0.000 A 
ENDBRANCH  16  17
ENDBRANCH   3  16
TORSDOF 4
ENDMDL
MODEL 5
REMARK VINA RESULT:      -6.9      2.966      8.457
REMARK  Name = 
REMARK  5 active torsions:
REMARK  status: ('A' for Active; 'I' for Inactive)
REMARK    1  A    between atoms: C_1  and  C_2
REMARK    2  A    between atoms: C_2  and  N_3
REMARK    3  A    between atoms: C_8  and  C_9
REMARK    4  A    between atoms: N_11  and  C_12
REMARK    5  A    between atoms: C_12  and  C_13
REMARK                            x       y       z     vdW  Elec       q    Type
REMARK                         _______ _______ _______ _____ _____    ______ ____
ROOT
ATOM      1  C   UNL     1       2.504   6.089  19.581  0.00  0.00    +0.000 C 
ATOM      2  O   UNL     1       2.932   5.264  20.388  0.00  0.00    +0.000 OA
ATOM      3  N   UNL     1       2.586   5.912  18.221  0.00  0.00    +0.000 N 
ATOM      4  H   UNL     1       2.198   6.640  17.633  0.00  0.00    +0.000 HD
ENDROOT
BRANCH   1  10
ATOM      5  N   UNL     1      -0.007  11.026  22.014  0.00  0.00    +0.000 NA
ATOM      6  C   UNL     1      -0.269  11.331  20.591  0.00  0.00    +0.000 C 
ATOM      7  C   UNL     1       0.794  10.745  19.658  0.00  0.00    +0.000 C 
ATOM      8  N   UNL     1       1.123   9.383  20.011  0.00  0.00    +0.000 N 
ATOM      9  C   UNL     1       1.790   8.481  19.248  0.00  0.00    +0.000 A 
ATOM     10  C   UNL     1       1.865   7.335  20.015  0.00  0.00    +0.000 A 
ATOM     11  N   UNL     1       1.244   7.549  21.245  0.00  0.00    +0.000 NA
ATOM     12  C   UNL     1       0.811   8.801  21.210  0.00  0.00    +0.000 A 
ATOM     13  C   UNL     1       0.020   9.557  22.243  0.00  0.00    +0.000 C 
BRANCH   5  15
ATOM     14  C   UNL     1      -0.976  13.215  22.810  0.00  0.00    +0.000 C 
ATOM     15  C   UNL     1      -1.027  11.692  22.847  0.00  0.00    +0.000 C 
ENDBRANCH   5  15
ENDBRANCH   1  10
BRANCH   3  16
ATOM     16  C   UNL     1       3.132   4.704  17.654  0.00  0.00    +0.000 C 
BRANCH  16  17
ATOM     17  C   UNL     1       4.507   4.921  17.077  0.00  0.00    +0.000 A 
ATOM     18  C   UNL     1       5.003   4.071  16.076  0.00  0.00    +0.000 A 
ATOM     19  C   UNL     1       6.270   4.280  15.529  0.00  0.00    +0.000 A 
ATOM     20  C   UNL     1       7.060   5.337  15.981  0.00  0.00    +0.000 A 
ATOM     21  C   UNL     1       6.576   6.179  16.980  0.00  0.00    +0.000 A 
ATOM     22 BR   UNL     1       7.641   7.618  17.588  0.00  0.00    +0.000 Br
ATOM     23  C   UNL     1       5.311   5.975  17.533  0.00  0.00    +0.000 A 
ENDBRANCH  16  17
ENDBRANCH   3  16
TORSDOF 4
ENDMDL
MODEL 6
REMARK VINA RESULT:      -6.9      5.047      7.229
REMARK  Name = 
REMARK  5 active torsions:
REMARK  status: ('A' for Active; 'I' for Inactive)
REMARK    1  A    between atoms: C_1  and  C_2
REMARK    2  A    between atoms: C_2  and  N_3
REMARK    3  A    between atoms: C_8  and  C_9
REMARK    4  A    between atoms: N_11  and  C_12
REMARK    5  A    between atoms: C_12  and  C_13
REMARK                            x       y       z     vdW  Elec       q    Type
REMARK                         _______ _______ _______ _____ _____    ______ ____
ROOT
ATOM      1  C   UNL     1       7.142   7.099  17.184  0.00  0.00    +0.000 C 
ATOM      2  O   UNL     1       7.821   6.646  16.262  0.00  0.00    +0.000 OA
ATOM      3  N   UNL     1       7.419   8.299  17.794  0.00  0.00    +0.000 N 
ATOM      4  H   UNL     1       6.800   8.596  18.538  0.00  0.00    +0.000 HD
ENDROOT
BRANCH   1  10
ATOM      5  N   UNL     1       2.722   3.927  19.830  0.00  0.00    +0.000 NA
ATOM      6  C   UNL     1       1.956   4.440  18.675  0.00  0.00    +0.000 C 
ATOM      7  C   UNL     1       2.461   5.802  18.190  0.00  0.00    +0.000 C 
ATOM      8  N   UNL     1       3.904   5.843  18.120  0.00  0.00    +0.000 N 
ATOM      9  C   UNL     1       4.664   6.764  17.476  0.00  0.00    +0.000 A 
ATOM     10  C   UNL     1       5.972   6.386  17.704  0.00  0.00    +0.000 A 
ATOM     11  N   UNL     1       6.000   5.236  18.493  0.00  0.00    +0.000 NA
ATOM     12  C   UNL     1       4.730   4.939  18.730  0.00  0.00    +0.000 A 
ATOM     13  C   UNL     1       4.159   3.768  19.482  0.00  0.00    +0.000 C 
BRANCH   5  15
ATOM     14  C   UNL     1       1.607   2.678  21.717  0.00  0.00    +0.000 C 
ATOM     15  C   UNL     1       2.123   2.657  20.282  0.00  0.00    +0.000 C 
ENDBRANCH   5  15
ENDBRANCH   1  10
BRANCH   3  16
ATOM     16  C   UNL     1       8.503   9.137  17.342  0.00  0.00    +0.000 C 
BRANCH  16  17
ATOM     17  C   UNL     1       8.811  10.239  18.321  0.00  0.00    +0.000 A 
ATOM     18  C   UNL     1       9.151   9.938  19.649  0.00  0.00    +0.000 A 
ATOM     19  C   UNL     1       9.453  10.957  20.555  0.00  0.00    +0.000 A 
ATOM     20  C   UNL     1       9.412  12.290  20.145  0.00  0.00    +0.000 A 
ATOM     21  C   UNL     1       9.067  12.595  18.831  0.00  0.00    +0.000 A 
ATOM     22 BR   UNL     1       9.019  14.400  18.270  0.00  0.00    +0.000 Br
ATOM     23  C   UNL     1       8.763  11.582  17.920  0.00  0.00    +0.000 A 
ENDBRANCH  16  17
ENDBRANCH   3  16
TORSDOF 4
ENDMDL
MODEL 7
REMARK VINA RESULT:      -6.9      3.028      4.605
REMARK  Name = 
REMARK  5 active torsions:
REMARK  status: ('A' for Active; 'I' for Inactive)
REMARK    1  A    between atoms: C_1  and  C_2
REMARK    2  A    between atoms: C_2  and  N_3
REMARK    3  A    between atoms: C_8  and  C_9
REMARK    4  A    between atoms: N_11  and  C_12
REMARK    5  A    between atoms: C_12  and  C_13
REMARK                            x       y       z     vdW  Elec       q    Type
REMARK                         _______ _______ _______ _____ _____    ______ ____
ROOT
ATOM      1  C   UNL     1       1.773   9.491  18.255  0.00  0.00    +0.000 C 
ATOM      2  O   UNL     1       2.326  10.265  17.473  0.00  0.00    +0.000 OA
ATOM      3  N   UNL     1       0.645   9.829  18.963  0.00  0.00    +0.000 N 
ATOM      4  H   UNL     1       0.253   9.124  19.577  0.00  0.00    +0.000 HD
ENDROOT
BRANCH   1  10
ATOM      5  N   UNL     1       3.278   3.777  19.548  0.00  0.00    +0.000 NA
ATOM      6  C   UNL     1       4.531   4.182  18.876  0.00  0.00    +0.000 C 
ATOM      7  C   UNL     1       4.306   5.251  17.803  0.00  0.00    +0.000 C 
ATOM      8  N   UNL     1       3.415   6.291  18.264  0.00  0.00    +0.000 N 
ATOM      9  C   UNL     1       3.226   7.511  17.702  0.00  0.00    +0.000 A 
ATOM     10  C   UNL     1       2.281   8.137  18.490  0.00  0.00    +0.000 A 
ATOM     11  N   UNL     1       1.897   7.289  19.529  0.00  0.00    +0.000 NA
ATOM     12  C   UNL     1       2.600   6.179  19.357  0.00  0.00    +0.000 A 
ATOM     13  C   UNL     1       2.635   4.942  20.212  0.00  0.00    +0.000 C 
BRANCH   5  15
ATOM     14  C   UNL     1       2.543   2.540  21.620  0.00  0.00    +0.000 C 
ATOM     15  C   UNL     1       3.571   2.693  20.505  0.00  0.00    +0.000 C 
ENDBRANCH   5  15
ENDBRANCH   1  10
BRANCH   3  16
ATOM     16  C   UNL     1      -0.000  11.106  18.782  0.00  0.00    +0.000 C 
BRANCH  16  17
ATOM     17  C   UNL     1      -1.423  10.959  18.309  0.00  0.00    +0.000 A 
ATOM     18  C   UNL     1      -1.740  10.073  17.267  0.00  0.00    +0.000 A 
ATOM     19  C   UNL     1      -3.060   9.923  16.837  0.00  0.00    +0.000 A 
ATOM     20  C   UNL     1      -4.079  10.661  17.441  0.00  0.00    +0.000 A 
ATOM     21  C   UNL     1      -3.768  11.548  18.470  0.00  0.00    +0.000 A 
ATOM     22 BR   UNL     1      -5.148  12.543  19.295  0.00  0.00    +0.000 Br
ATOM     23  C   UNL     1      -2.451  11.704  18.903  0.00  0.00    +0.000 A 
ENDBRANCH  16  17
ENDBRANCH   3  16
TORSDOF 4
ENDMDL
MODEL 8
REMARK VINA RESULT:      -6.9      3.215      4.351
REMARK  Name = 
REMARK  5 active torsions:
REMARK  status: ('A' for Active; 'I' for Inactive)
REMARK    1  A    between atoms: C_1  and  C_2
REMARK    2  A    between atoms: C_2  and  N_3
REMARK    3  A    between atoms: C_8  and  C_9
REMARK    4  A    between atoms: N_11  and  C_12
REMARK    5  A    between atoms: C_12  and  C_13
REMARK                            x       y       z     vdW  Elec       q    Type
REMARK                         _______ _______ _______ _____ _____    ______ ____
ROOT
ATOM      1  C   UNL     1       1.700   9.094  18.356  0.00  0.00    +0.000 C 
ATOM      2  O   UNL     1       2.228   9.655  17.395  0.00  0.00    +0.000 OA
ATOM      3  N   UNL     1       0.692   9.668  19.092  0.00  0.00    +0.000 N 
ATOM      4  H   UNL     1       0.312   9.128  19.860  0.00  0.00    +0.000 HD
ENDROOT
BRANCH   1  10
ATOM      5  N   UNL     1       3.935   3.642  19.727  0.00  0.00    +0.000 NA
ATOM      6  C   UNL     1       2.705   3.581  20.544  0.00  0.00    +0.000 C 
ATOM      7  C   UNL     1       2.258   4.960  21.040  0.00  0.00    +0.000 C 
ATOM      8  N   UNL     1       2.329   5.953  19.992  0.00  0.00    +0.000 N 
ATOM      9  C   UNL     1       1.752   7.181  19.991  0.00  0.00    +0.000 A 
ATOM     10  C   UNL     1       2.111   7.755  18.788  0.00  0.00    +0.000 A 
ATOM     11  N   UNL     1       2.910   6.872  18.063  0.00  0.00    +0.000 NA
ATOM     12  C   UNL     1       3.026   5.793  18.825  0.00  0.00    +0.000 A 
ATOM     13  C   UNL     1       3.730   4.498  18.528  0.00  0.00    +0.000 C 
BRANCH   5  15
ATOM     14  C   UNL     1       3.417   1.587  18.358  0.00  0.00    +0.000 C 
ATOM     15  C   UNL     1       4.340   2.272  19.360  0.00  0.00    +0.000 C 
ENDBRANCH   5  15
ENDBRANCH   1  10
BRANCH   3  16
ATOM     16  C   UNL     1       0.145  10.955  18.740  0.00  0.00    +0.000 C 
BRANCH  16  17
ATOM     17  C   UNL     1      -1.294  10.858  18.307  0.00  0.00    +0.000 A 
ATOM     18  C   UNL     1      -1.666  10.008  17.253  0.00  0.00    +0.000 A 
ATOM     19  C   UNL     1      -3.002   9.904  16.860  0.00  0.00    +0.000 A 
ATOM     20  C   UNL     1      -3.982  10.654  17.512  0.00  0.00    +0.000 A 
ATOM     21  C   UNL     1      -3.617  11.505  18.553  0.00  0.00    +0.000 A 
ATOM     22 BR   UNL     1      -4.944  12.515  19.444  0.00  0.00    +0.000 Br
ATOM     23  C   UNL     1      -2.284  11.615  18.950  0.00  0.00    +0.000 A 
ENDBRANCH  16  17
ENDBRANCH   3  16
TORSDOF 4
ENDMDL
MODEL 9
REMARK VINA RESULT:      -6.9      3.545      8.627
REMARK  Name = 
REMARK  5 active torsions:
REMARK  status: ('A' for Active; 'I' for Inactive)
REMARK    1  A    between atoms: C_1  and  C_2
REMARK    2  A    between atoms: C_2  and  N_3
REMARK    3  A    between atoms: C_8  and  C_9
REMARK    4  A    between atoms: N_11  and  C_12
REMARK    5  A    between atoms: C_12  and  C_13
REMARK                            x       y       z     vdW  Elec       q    Type
REMARK                         _______ _______ _______ _____ _____    ______ ____
ROOT
ATOM      1  C   UNL     1       2.824   5.873  19.314  0.00  0.00    +0.000 C 
ATOM      2  O   UNL     1       3.279   5.198  20.237  0.00  0.00    +0.000 OA
ATOM      3  N   UNL     1       2.866   5.465  18.002  0.00  0.00    +0.000 N 
ATOM      4  H   UNL     1       2.458   6.083  17.310  0.00  0.00    +0.000 HD
ENDROOT
BRANCH   1  10
ATOM      5  N   UNL     1       0.361  11.153  20.942  0.00  0.00    +0.000 NA
ATOM      6  C   UNL     1       0.075  11.221  19.493  0.00  0.00    +0.000 C 
ATOM      7  C   UNL     1       1.120  10.484  18.650  0.00  0.00    +0.000 C 
ATOM      8  N   UNL     1       1.454   9.197  19.218  0.00  0.00    +0.000 N 
ATOM      9  C   UNL     1       2.107   8.180  18.603  0.00  0.00    +0.000 A 
ATOM     10  C   UNL     1       2.194   7.175  19.547  0.00  0.00    +0.000 A 
ATOM     11  N   UNL     1       1.595   7.592  20.736  0.00  0.00    +0.000 NA
ATOM     12  C   UNL     1       1.163   8.823  20.502  0.00  0.00    +0.000 A 
ATOM     13  C   UNL     1       0.392   9.742  21.409  0.00  0.00    +0.000 C 
BRANCH   5  15
ATOM     14  C   UNL     1      -1.165  11.297  22.945  0.00  0.00    +0.000 C 
ATOM     15  C   UNL     1      -0.643  11.951  21.670  0.00  0.00    +0.000 C 
ENDBRANCH   5  15
ENDBRANCH   1  10
BRANCH   3  16
ATOM     16  C   UNL     1       3.399   4.177  17.634  0.00  0.00    +0.000 C 
BRANCH  16  17
ATOM     17  C   UNL     1       4.735   4.293  16.949  0.00  0.00    +0.000 A 
ATOM     18  C   UNL     1       5.884   4.637  17.679  0.00  0.00    +0.000 A 
ATOM     19  C   UNL     1       7.127   4.729  17.049  0.00  0.00    +0.000 A 
ATOM     20  C   UNL     1       7.235   4.486  15.680  0.00  0.00    +0.000 A 
ATOM     21  C   UNL     1       6.097   4.154  14.948  0.00  0.00    +0.000 A 
ATOM     22 BR   UNL     1       6.242   3.815  13.094  0.00  0.00    +0.000 Br
ATOM     23  C   UNL     1       4.851   4.060  15.571  0.00  0.00    +0.000 A 
ENDBRANCH  16  17
ENDBRANCH   3  16
TORSDOF 4
ENDMDL
