MODEL 1
REMARK VINA RESULT:      -7.5      0.000      0.000
REMARK  Name = 
REMARK  6 active torsions:
REMARK  status: ('A' for Active; 'I' for Inactive)
REMARK    1  A    between atoms: C_2  and  C_3
REMARK    2  A    between atoms: C_2  and  C_10
REMARK    3  A    between atoms: C_10  and  O_11
REMARK    4  A    between atoms: C_10  and  C_12
REMARK    5  A    between atoms: C_10  and  C_18
REMARK    6  A    between atoms: C_12  and  N_13
REMARK                            x       y       z     vdW  Elec       q    Type
REMARK                         _______ _______ _______ _____ _____    ______ ____
ROOT
ATOM      1  C   UNL     1       4.623   4.744  18.652  0.00  0.00    +0.000 C 
ENDROOT
BRANCH   1   2
ATOM      2  C   UNL     1       5.711   4.730  17.498  0.00  0.00    +0.000 C 
ATOM      3  C   UNL     1       5.635   5.943  16.534  0.00  0.00    +0.000 C 
ATOM      4  C   UNL     1       6.215   7.247  17.087  0.00  0.00    +0.000 C 
ATOM      5  C   UNL     1       7.604   7.084  17.697  0.00  0.00    +0.000 C 
ATOM      6  C   UNL     1       7.711   5.892  18.639  0.00  0.00    +0.000 C 
ATOM      7  C   UNL     1       7.181   4.622  17.978  0.00  0.00    +0.000 C 
ENDBRANCH   1   2
BRANCH   1   9
ATOM      8  O   UNL     1       2.609   4.706  17.227  0.00  0.00    +0.000 OA
ATOM      9  C   UNL     1       3.260   5.296  18.098  0.00  0.00    +0.000 C 
BRANCH   9  10
ATOM     10  C   UNL     1       2.729   6.630  18.573  0.00  0.00    +0.000 A 
ATOM     11  C   UNL     1       2.648   7.759  17.744  0.00  0.00    +0.000 A 
ATOM     12  C   UNL     1       2.022   8.929  18.185  0.00  0.00    +0.000 A 
ATOM     13  C   UNL     1       1.498   8.994  19.469  0.00  0.00    +0.000 A 
ATOM     14 CL   UNL     1       0.687  10.421  19.984  0.00  0.00    +0.000 Cl
ATOM     15  C   UNL     1       1.616   7.904  20.330  0.00  0.00    +0.000 A 
ATOM     16  C   UNL     1       2.235   6.726  19.883  0.00  0.00    +0.000 A 
ENDBRANCH   9  10
ENDBRANCH   1   9
BRANCH   1  17
ATOM     17  O   UNL     1       5.171   5.529  19.720  0.00  0.00    +0.000 OA
ATOM     18  H   UNL     1       5.489   6.390  19.407  0.00  0.00    +0.000 HD
ENDBRANCH   1  17
BRANCH   1  19
ATOM     19  C   UNL     1       4.410   3.328  19.241  0.00  0.00    +0.000 C 
BRANCH  19  20
ATOM     20  N   UNL     1       3.184   3.104  19.957  0.00  0.00    +0.000 N 
ATOM     21  C   UNL     1       2.147   2.293  19.612  0.00  0.00    +0.000 A 
ATOM     22  N   UNL     1       1.293   2.239  20.604  0.00  0.00    +0.000 NA
ATOM     23  C   UNL     1       1.873   3.023  21.559  0.00  0.00    +0.000 A 
ATOM     24  N   UNL     1       3.052   3.554  21.217  0.00  0.00    +0.000 NA
ENDBRANCH  19  20
ENDBRANCH   1  19
TORSDOF 6
ENDMDL
MODEL 2
REMARK VINA RESULT:      -7.3      2.302      4.873
REMARK  Name = 
REMARK  6 active torsions:
REMARK  status: ('A' for Active; 'I' for Inactive)
REMARK    1  A    between atoms: C_2  and  C_3
REMARK    2  A    between atoms: C_2  and  C_10
REMARK    3  A    between atoms: C_10  and  O_11
REMARK    4  A    between atoms: C_10  and  C_12
REMARK    5  A    between atoms: C_10  and  C_18
REMARK    6  A    between atoms: C_12  and  N_13
REMARK                            x       y       z     vdW  Elec       q    Type
REMARK                         _______ _______ _______ _____ _____    ______ ____
ROOT
ATOM      1  C   UNL     1       3.827   3.982  18.405  0.00  0.00    +0.000 C 
ENDROOT
BRANCH   1   2
ATOM      2  C   UNL     1       3.367   2.950  19.519  0.00  0.00    +0.000 C 
ATOM      3  C   UNL     1       2.641   3.596  20.727  0.00  0.00    +0.000 C 
ATOM      4  C   UNL     1       1.185   3.993  20.472  0.00  0.00    +0.000 C 
ATOM      5  C   UNL     1       0.357   2.884  19.830  0.00  0.00    +0.000 C 
ATOM      6  C   UNL     1       1.052   2.222  18.647  0.00  0.00    +0.000 C 
ATOM      7  C   UNL     1       2.469   1.791  19.015  0.00  0.00    +0.000 C 
ENDBRANCH   1   2
BRANCH   1   9
ATOM      8  O   UNL     1       5.197   5.512  19.772  0.00  0.00    +0.000 OA
ATOM      9  C   UNL     1       4.192   5.359  19.067  0.00  0.00    +0.000 C 
BRANCH   9  10
ATOM     10  C   UNL     1       3.265   6.546  18.918  0.00  0.00    +0.000 A 
ATOM     11  C   UNL     1       2.389   6.962  19.930  0.00  0.00    +0.000 A 
ATOM     12  C   UNL     1       1.654   8.145  19.802  0.00  0.00    +0.000 A 
ATOM     13  C   UNL     1       1.764   8.907  18.646  0.00  0.00    +0.000 A 
ATOM     14 CL   UNL     1       0.892  10.385  18.517  0.00  0.00    +0.000 Cl
ATOM     15  C   UNL     1       2.585   8.483  17.603  0.00  0.00    +0.000 A 
ATOM     16  C   UNL     1       3.331   7.302  17.738  0.00  0.00    +0.000 A 
ENDBRANCH   9  10
ENDBRANCH   1   9
BRANCH   1  17
ATOM     17  O   UNL     1       2.753   4.064  17.457  0.00  0.00    +0.000 OA
ATOM     18  H   UNL     1       2.637   4.967  17.124  0.00  0.00    +0.000 HD
ENDBRANCH   1  17
BRANCH   1  19
ATOM     19  C   UNL     1       5.044   3.447  17.611  0.00  0.00    +0.000 C 
BRANCH  19  20
ATOM     20  N   UNL     1       5.682   4.368  16.711  0.00  0.00    +0.000 N 
ATOM     21  C   UNL     1       6.976   4.787  16.718  0.00  0.00    +0.000 A 
ATOM     22  N   UNL     1       7.207   5.494  15.639  0.00  0.00    +0.000 NA
ATOM     23  C   UNL     1       6.013   5.455  14.979  0.00  0.00    +0.000 A 
ATOM     24  N   UNL     1       5.053   4.749  15.586  0.00  0.00    +0.000 NA
ENDBRANCH  19  20
ENDBRANCH   1  19
TORSDOF 6
ENDMDL
MODEL 3
REMARK VINA RESULT:      -7.3      0.141      1.015
REMARK  Name = 
REMARK  6 active torsions:
REMARK  status: ('A' for Active; 'I' for Inactive)
REMARK    1  A    between atoms: C_2  and  C_3
REMARK    2  A    between atoms: C_2  and  C_10
REMARK    3  A    between atoms: C_10  and  O_11
REMARK    4  A    between atoms: C_10  and  C_12
REMARK    5  A    between atoms: C_10  and  C_18
REMARK    6  A    between atoms: C_12  and  N_13
REMARK                            x       y       z     vdW  Elec       q    Type
REMARK                         _______ _______ _______ _____ _____    ______ ____
ROOT
ATOM      1  C   UNL     1       4.648   4.733  18.681  0.00  0.00    +0.000 C 
ENDROOT
BRANCH   1   2
ATOM      2  C   UNL     1       5.775   4.717  17.564  0.00  0.00    +0.000 C 
ATOM      3  C   UNL     1       5.694   5.897  16.560  0.00  0.00    +0.000 C 
ATOM      4  C   UNL     1       6.216   7.235  17.089  0.00  0.00    +0.000 C 
ATOM      5  C   UNL     1       7.588   7.134  17.748  0.00  0.00    +0.000 C 
ATOM      6  C   UNL     1       7.699   5.975  18.730  0.00  0.00    +0.000 C 
ATOM      7  C   UNL     1       7.230   4.670  18.094  0.00  0.00    +0.000 C 
ENDBRANCH   1   2
BRANCH   1   9
ATOM      8  O   UNL     1       2.747   4.615  17.113  0.00  0.00    +0.000 OA
ATOM      9  C   UNL     1       3.283   5.202  18.061  0.00  0.00    +0.000 C 
BRANCH   9  10
ATOM     10  C   UNL     1       2.606   6.456  18.569  0.00  0.00    +0.000 A 
ATOM     11  C   UNL     1       2.140   6.592  19.885  0.00  0.00    +0.000 A 
ATOM     12  C   UNL     1       1.649   7.816  20.350  0.00  0.00    +0.000 A 
ATOM     13  C   UNL     1       1.591   8.909  19.495  0.00  0.00    +0.000 A 
ATOM     14 CL   UNL     1       1.030  10.423  20.089  0.00  0.00    +0.000 Cl
ATOM     15  C   UNL     1       1.996   8.783  18.168  0.00  0.00    +0.000 A 
ATOM     16  C   UNL     1       2.499   7.556  17.705  0.00  0.00    +0.000 A 
ENDBRANCH   9  10
ENDBRANCH   1   9
BRANCH   1  17
ATOM     17  O   UNL     1       5.128   5.585  19.731  0.00  0.00    +0.000 OA
ATOM     18  H   UNL     1       4.922   5.224  20.608  0.00  0.00    +0.000 HD
ENDBRANCH   1  17
BRANCH   1  19
ATOM     19  C   UNL     1       4.475   3.335  19.324  0.00  0.00    +0.000 C 
BRANCH  19  20
ATOM     20  N   UNL     1       3.229   3.083  19.995  0.00  0.00    +0.000 N 
ATOM     21  C   UNL     1       2.218   2.260  19.605  0.00  0.00    +0.000 A 
ATOM     22  N   UNL     1       1.332   2.180  20.567  0.00  0.00    +0.000 NA
ATOM     23  C   UNL     1       1.866   2.963  21.550  0.00  0.00    +0.000 A 
ATOM     24  N   UNL     1       3.047   3.516  21.255  0.00  0.00    +0.000 NA
ENDBRANCH  19  20
ENDBRANCH   1  19
TORSDOF 6
ENDMDL
MODEL 4
REMARK VINA RESULT:      -7.2      2.632      5.300
REMARK  Name = 
REMARK  6 active torsions:
REMARK  status: ('A' for Active; 'I' for Inactive)
REMARK    1  A    between atoms: C_2  and  C_3
REMARK    2  A    between atoms: C_2  and  C_10
REMARK    3  A    between atoms: C_10  and  O_11
REMARK    4  A    between atoms: C_10  and  C_12
REMARK    5  A    between atoms: C_10  and  C_18
REMARK    6  A    between atoms: C_12  and  N_13
REMARK                            x       y       z     vdW  Elec       q    Type
REMARK                         _______ _______ _______ _____ _____    ______ ____
ROOT
ATOM      1  C   UNL     1       3.676   4.436  18.582  0.00  0.00    +0.000 C 
ENDROOT
BRANCH   1   2
ATOM      2  C   UNL     1       3.223   2.935  18.822  0.00  0.00    +0.000 C 
ATOM      3  C   UNL     1       3.650   2.352  20.195  0.00  0.00    +0.000 C 
ATOM      4  C   UNL     1       2.805   2.814  21.386  0.00  0.00    +0.000 C 
ATOM      5  C   UNL     1       1.303   2.690  21.150  0.00  0.00    +0.000 C 
ATOM      6  C   UNL     1       0.858   3.243  19.802  0.00  0.00    +0.000 C 
ATOM      7  C   UNL     1       1.704   2.670  18.668  0.00  0.00    +0.000 C 
ENDBRANCH   1   2
BRANCH   1   9
ATOM      8  O   UNL     1       5.032   3.621  16.689  0.00  0.00    +0.000 OA
ATOM      9  C   UNL     1       4.872   4.480  17.564  0.00  0.00    +0.000 C 
BRANCH   9  10
ATOM     10  C   UNL     1       5.926   5.560  17.674  0.00  0.00    +0.000 A 
ATOM     11  C   UNL     1       5.860   6.767  16.962  0.00  0.00    +0.000 A 
ATOM     12  C   UNL     1       6.781   7.792  17.200  0.00  0.00    +0.000 A 
ATOM     13  C   UNL     1       7.796   7.609  18.131  0.00  0.00    +0.000 A 
ATOM     14 CL   UNL     1       8.895   8.894  18.452  0.00  0.00    +0.000 Cl
ATOM     15  C   UNL     1       7.915   6.398  18.809  0.00  0.00    +0.000 A 
ATOM     16  C   UNL     1       6.984   5.374  18.577  0.00  0.00    +0.000 A 
ENDBRANCH   9  10
ENDBRANCH   1   9
BRANCH   1  17
ATOM     17  O   UNL     1       3.996   4.977  19.872  0.00  0.00    +0.000 OA
ATOM     18  H   UNL     1       4.794   4.569  20.244  0.00  0.00    +0.000 HD
ENDBRANCH   1  17
BRANCH   1  19
ATOM     19  C   UNL     1       2.505   5.298  18.047  0.00  0.00    +0.000 C 
BRANCH  19  20
ATOM     20  N   UNL     1       2.373   6.619  18.598  0.00  0.00    +0.000 N 
ATOM     21  C   UNL     1       2.465   7.811  17.949  0.00  0.00    +0.000 A 
ATOM     22  N   UNL     1       2.120   8.775  18.766  0.00  0.00    +0.000 NA
ATOM     23  C   UNL     1       1.795   8.111  19.914  0.00  0.00    +0.000 A 
ATOM     24  N   UNL     1       1.906   6.780  19.849  0.00  0.00    +0.000 NA
ENDBRANCH  19  20
ENDBRANCH   1  19
TORSDOF 6
ENDMDL
MODEL 5
REMARK VINA RESULT:      -7.2      3.219      5.973
REMARK  Name = 
REMARK  6 active torsions:
REMARK  status: ('A' for Active; 'I' for Inactive)
REMARK    1  A    between atoms: C_2  and  C_3
REMARK    2  A    between atoms: C_2  and  C_10
REMARK    3  A    between atoms: C_10  and  O_11
REMARK    4  A    between atoms: C_10  and  C_12
REMARK    5  A    between atoms: C_10  and  C_18
REMARK    6  A    between atoms: C_12  and  N_13
REMARK                            x       y       z     vdW  Elec       q    Type
REMARK                         _______ _______ _______ _____ _____    ______ ____
ROOT
ATOM      1  C   UNL     1       3.822   4.635  18.970  0.00  0.00    +0.000 C 
ENDROOT
BRANCH   1   2
ATOM      2  C   UNL     1       3.292   3.142  19.062  0.00  0.00    +0.000 C 
ATOM      3  C   UNL     1       3.574   2.448  20.420  0.00  0.00    +0.000 C 
ATOM      4  C   UNL     1       2.647   2.863  21.565  0.00  0.00    +0.000 C 
ATOM      5  C   UNL     1       1.167   2.822  21.195  0.00  0.00    +0.000 C 
ATOM      6  C   UNL     1       0.864   3.487  19.858  0.00  0.00    +0.000 C 
ATOM      7  C   UNL     1       1.783   2.957  18.761  0.00  0.00    +0.000 C 
ENDBRANCH   1   2
BRANCH   1   9
ATOM      8  O   UNL     1       6.243   4.603  19.441  0.00  0.00    +0.000 OA
ATOM      9  C   UNL     1       5.347   4.642  18.591  0.00  0.00    +0.000 C 
BRANCH   9  10
ATOM     10  C   UNL     1       5.770   4.772  17.144  0.00  0.00    +0.000 A 
ATOM     11  C   UNL     1       6.532   5.848  16.666  0.00  0.00    +0.000 A 
ATOM     12  C   UNL     1       7.019   5.856  15.354  0.00  0.00    +0.000 A 
ATOM     13  C   UNL     1       6.722   4.804  14.499  0.00  0.00    +0.000 A 
ATOM     14 CL   UNL     1       7.365   4.800  12.903  0.00  0.00    +0.000 Cl
ATOM     15  C   UNL     1       5.920   3.751  14.934  0.00  0.00    +0.000 A 
ATOM     16  C   UNL     1       5.441   3.739  16.254  0.00  0.00    +0.000 A 
ENDBRANCH   9  10
ENDBRANCH   1   9
BRANCH   1  17
ATOM     17  O   UNL     1       3.540   5.246  20.238  0.00  0.00    +0.000 OA
ATOM     18  H   UNL     1       2.699   4.934  20.607  0.00  0.00    +0.000 HD
ENDBRANCH   1  17
BRANCH   1  19
ATOM     19  C   UNL     1       3.022   5.452  17.926  0.00  0.00    +0.000 C 
BRANCH  19  20
ATOM     20  N   UNL     1       2.775   6.833  18.239  0.00  0.00    +0.000 N 
ATOM     21  C   UNL     1       3.160   7.933  17.537  0.00  0.00    +0.000 A 
ATOM     22  N   UNL     1       2.600   8.996  18.061  0.00  0.00    +0.000 NA
ATOM     23  C   UNL     1       1.849   8.484  19.080  0.00  0.00    +0.000 A 
ATOM     24  N   UNL     1       1.902   7.155  19.210  0.00  0.00    +0.000 NA
ENDBRANCH  19  20
ENDBRANCH   1  19
TORSDOF 6
ENDMDL
MODEL 6
REMARK VINA RESULT:      -7.2      3.863      5.335
REMARK  Name = 
REMARK  6 active torsions:
REMARK  status: ('A' for Active; 'I' for Inactive)
REMARK    1  A    between atoms: C_2  and  C_3
REMARK    2  A    between atoms: C_2  and  C_10
REMARK    3  A    between atoms: C_10  and  O_11
REMARK    4  A    between atoms: C_10  and  C_12
REMARK    5  A    between atoms: C_10  and  C_18
REMARK    6  A    between atoms: C_12  and  N_13
REMARK                            x       y       z     vdW  Elec       q    Type
REMARK                         _______ _______ _______ _____ _____    ______ ____
ROOT
ATOM      1  C   UNL     1       5.370   4.803  16.882  0.00  0.00    +0.000 C 
ENDROOT
BRANCH   1   2
ATOM      2  C   UNL     1       5.397   5.835  18.086  0.00  0.00    +0.000 C 
ATOM      3  C   UNL     1       6.336   5.430  19.253  0.00  0.00    +0.000 C 
ATOM      4  C   UNL     1       7.826   5.665  18.997  0.00  0.00    +0.000 C 
ATOM      5  C   UNL     1       8.139   7.062  18.467  0.00  0.00    +0.000 C 
ATOM      6  C   UNL     1       7.222   7.491  17.329  0.00  0.00    +0.000 C 
ATOM      7  C   UNL     1       5.755   7.293  17.700  0.00  0.00    +0.000 C 
ENDBRANCH   1   2
BRANCH   1   9
ATOM      8  O   UNL     1       3.559   3.391  15.981  0.00  0.00    +0.000 OA
ATOM      9  C   UNL     1       4.088   3.900  16.976  0.00  0.00    +0.000 C 
BRANCH   9  10
ATOM     10  C   UNL     1       3.406   3.682  18.309  0.00  0.00    +0.000 A 
ATOM     11  C   UNL     1       2.193   4.296  18.656  0.00  0.00    +0.000 A 
ATOM     12  C   UNL     1       1.530   3.957  19.840  0.00  0.00    +0.000 A 
ATOM     13  C   UNL     1       2.089   3.025  20.705  0.00  0.00    +0.000 A 
ATOM     14 CL   UNL     1       1.243   2.579  22.135  0.00  0.00    +0.000 Cl
ATOM     15  C   UNL     1       3.320   2.444  20.408  0.00  0.00    +0.000 A 
ATOM     16  C   UNL     1       3.980   2.777  19.214  0.00  0.00    +0.000 A 
ENDBRANCH   9  10
ENDBRANCH   1   9
BRANCH   1  17
ATOM     17  O   UNL     1       6.600   4.068  16.948  0.00  0.00    +0.000 OA
ATOM     18  H   UNL     1       7.273   4.538  17.466  0.00  0.00    +0.000 HD
ENDBRANCH   1  17
BRANCH   1  19
ATOM     19  C   UNL     1       5.393   5.533  15.516  0.00  0.00    +0.000 C 
BRANCH  19  20
ATOM     20  N   UNL     1       6.213   4.953  14.488  0.00  0.00    +0.000 N 
ATOM     21  C   UNL     1       5.860   4.023  13.560  0.00  0.00    +0.000 A 
ATOM     22  N   UNL     1       6.839   3.877  12.701  0.00  0.00    +0.000 NA
ATOM     23  C   UNL     1       7.773   4.772  13.138  0.00  0.00    +0.000 A 
ATOM     24  N   UNL     1       7.420   5.478  14.217  0.00  0.00    +0.000 NA
ENDBRANCH  19  20
ENDBRANCH   1  19
TORSDOF 6
ENDMDL
MODEL 7
REMARK VINA RESULT:      -7.2      2.439      4.842
REMARK  Name = 
REMARK  6 active torsions:
REMARK  status: ('A' for Active; 'I' for Inactive)
REMARK    1  A    between atoms: C_2  and  C_3
REMARK    2  A    between atoms: C_2  and  C_10
REMARK    3  A    between atoms: C_10  and  O_11
REMARK    4  A    between atoms: C_10  and  C_12
REMARK    5  A    between atoms: C_10  and  C_18
REMARK    6  A    between atoms: C_12  and  N_13
REMARK                            x       y       z     vdW  Elec       q    Type
REMARK                         _______ _______ _______ _____ _____    ______ ____
ROOT
ATOM      1  C   UNL     1       3.886   3.664  18.103  0.00  0.00    +0.000 C 
ENDROOT
BRANCH   1   2
ATOM      2  C   UNL     1       3.424   2.546  19.130  0.00  0.00    +0.000 C 
ATOM      3  C   UNL     1       3.141   3.072  20.561  0.00  0.00    +0.000 C 
ATOM      4  C   UNL     1       1.806   3.801  20.731  0.00  0.00    +0.000 C 
ATOM      5  C   UNL     1       0.618   3.037  20.155  0.00  0.00    +0.000 C 
ATOM      6  C   UNL     1       0.874   2.498  18.753  0.00  0.00    +0.000 C 
ATOM      7  C   UNL     1       2.186   1.721  18.695  0.00  0.00    +0.000 C 
ENDBRANCH   1   2
BRANCH   1   9
ATOM      8  O   UNL     1       5.325   4.912  19.671  0.00  0.00    +0.000 OA
ATOM      9  C   UNL     1       4.374   4.939  18.881  0.00  0.00    +0.000 C 
BRANCH   9  10
ATOM     10  C   UNL     1       3.631   6.250  18.737  0.00  0.00    +0.000 A 
ATOM     11  C   UNL     1       3.788   7.097  17.631  0.00  0.00    +0.000 A 
ATOM     12  C   UNL     1       2.978   8.227  17.472  0.00  0.00    +0.000 A 
ATOM     13  C   UNL     1       2.026   8.538  18.434  0.00  0.00    +0.000 A 
ATOM     14 CL   UNL     1       1.003   9.902  18.207  0.00  0.00    +0.000 Cl
ATOM     15  C   UNL     1       1.891   7.741  19.569  0.00  0.00    +0.000 A 
ATOM     16  C   UNL     1       2.696   6.601  19.722  0.00  0.00    +0.000 A 
ENDBRANCH   9  10
ENDBRANCH   1   9
BRANCH   1  17
ATOM     17  O   UNL     1       2.768   3.909  17.237  0.00  0.00    +0.000 OA
ATOM     18  H   UNL     1       2.720   3.257  16.520  0.00  0.00    +0.000 HD
ENDBRANCH   1  17
BRANCH   1  19
ATOM     19  C   UNL     1       5.021   3.149  17.184  0.00  0.00    +0.000 C 
BRANCH  19  20
ATOM     20  N   UNL     1       5.691   4.130  16.375  0.00  0.00    +0.000 N 
ATOM     21  C   UNL     1       6.988   4.534  16.451  0.00  0.00    +0.000 A 
ATOM     22  N   UNL     1       7.255   5.319  15.436  0.00  0.00    +0.000 NA
ATOM     23  C   UNL     1       6.079   5.345  14.743  0.00  0.00    +0.000 A 
ATOM     24  N   UNL     1       5.097   4.604  15.267  0.00  0.00    +0.000 NA
ENDBRANCH  19  20
ENDBRANCH   1  19
TORSDOF 6
ENDMDL
MODEL 8
REMARK VINA RESULT:      -7.2      2.126      4.219
REMARK  Name = 
REMARK  6 active torsions:
REMARK  status: ('A' for Active; 'I' for Inactive)
REMARK    1  A    between atoms: C_2  and  C_3
REMARK    2  A    between atoms: C_2  and  C_10
REMARK    3  A    between atoms: C_10  and  O_11
REMARK    4  A    between atoms: C_10  and  C_12
REMARK    5  A    between atoms: C_10  and  C_18
REMARK    6  A    between atoms: C_12  and  N_13
REMARK                            x       y       z     vdW  Elec       q    Type
REMARK                         _______ _______ _______ _____ _____    ______ ____
ROOT
ATOM      1  C   UNL     1       3.563   5.366  18.576  0.00  0.00    +0.000 C 
ENDROOT
BRANCH   1   2
ATOM      2  C   UNL     1       2.562   4.574  17.633  0.00  0.00    +0.000 C 
ATOM      3  C   UNL     1       3.163   3.291  16.999  0.00  0.00    +0.000 C 
ATOM      4  C   UNL     1       3.256   2.087  17.939  0.00  0.00    +0.000 C 
ATOM      5  C   UNL     1       1.960   1.803  18.693  0.00  0.00    +0.000 C 
ATOM      6  C   UNL     1       1.341   3.048  19.315  0.00  0.00    +0.000 C 
ATOM      7  C   UNL     1       1.217   4.170  18.288  0.00  0.00    +0.000 C 
ENDBRANCH   1   2
BRANCH   1   9
ATOM      8  O   UNL     1       2.549   5.575  20.815  0.00  0.00    +0.000 OA
ATOM      9  C   UNL     1       2.764   6.096  19.714  0.00  0.00    +0.000 C 
BRANCH   9  10
ATOM     10  C   UNL     1       2.158   7.460  19.465  0.00  0.00    +0.000 A 
ATOM     11  C   UNL     1       2.140   8.068  18.201  0.00  0.00    +0.000 A 
ATOM     12  C   UNL     1       1.447   9.264  17.989  0.00  0.00    +0.000 A 
ATOM     13  C   UNL     1       0.792   9.882  19.047  0.00  0.00    +0.000 A 
ATOM     14 CL   UNL     1      -0.097  11.327  18.767  0.00  0.00    +0.000 Cl
ATOM     15  C   UNL     1       0.844   9.326  20.324  0.00  0.00    +0.000 A 
ATOM     16  C   UNL     1       1.530   8.119  20.532  0.00  0.00    +0.000 A 
ENDBRANCH   9  10
ENDBRANCH   1   9
BRANCH   1  17
ATOM     17  O   UNL     1       4.303   6.255  17.728  0.00  0.00    +0.000 OA
ATOM     18  H   UNL     1       4.708   6.978  18.232  0.00  0.00    +0.000 HD
ENDBRANCH   1  17
BRANCH   1  19
ATOM     19  C   UNL     1       4.613   4.417  19.203  0.00  0.00    +0.000 C 
BRANCH  19  20
ATOM     20  N   UNL     1       5.990   4.670  18.874  0.00  0.00    +0.000 N 
ATOM     21  C   UNL     1       6.643   4.374  17.719  0.00  0.00    +0.000 A 
ATOM     22  N   UNL     1       7.837   4.913  17.749  0.00  0.00    +0.000 NA
ATOM     23  C   UNL     1       7.858   5.561  18.950  0.00  0.00    +0.000 A 
ATOM     24  N   UNL     1       6.732   5.464  19.665  0.00  0.00    +0.000 NA
ENDBRANCH  19  20
ENDBRANCH   1  19
TORSDOF 6
ENDMDL
MODEL 9
REMARK VINA RESULT:      -7.1      3.226      6.001
REMARK  Name = 
REMARK  6 active torsions:
REMARK  status: ('A' for Active; 'I' for Inactive)
REMARK    1  A    between atoms: C_2  and  C_3
REMARK    2  A    between atoms: C_2  and  C_10
REMARK    3  A    between atoms: C_10  and  O_11
REMARK    4  A    between atoms: C_10  and  C_12
REMARK    5  A    between atoms: C_10  and  C_18
REMARK    6  A    between atoms: C_12  and  N_13
REMARK                            x       y       z     vdW  Elec       q    Type
REMARK                         _______ _______ _______ _____ _____    ______ ____
ROOT
ATOM      1  C   UNL     1       3.642   4.892  19.123  0.00  0.00    +0.000 C 
ENDROOT
BRANCH   1   2
ATOM      2  C   UNL     1       3.247   3.356  19.134  0.00  0.00    +0.000 C 
ATOM      3  C   UNL     1       3.578   2.622  20.461  0.00  0.00    +0.000 C 
ATOM      4  C   UNL     1       2.607   2.897  21.612  0.00  0.00    +0.000 C 
ATOM      5  C   UNL     1       1.141   2.743  21.220  0.00  0.00    +0.000 C 
ATOM      6  C   UNL     1       0.791   3.444  19.914  0.00  0.00    +0.000 C 
ATOM      7  C   UNL     1       1.764   3.052  18.804  0.00  0.00    +0.000 C 
ENDBRANCH   1   2
BRANCH   1   9
ATOM      8  O   UNL     1       5.992   5.438  19.638  0.00  0.00    +0.000 OA
ATOM      9  C   UNL     1       5.171   5.052  18.797  0.00  0.00    +0.000 C 
BRANCH   9  10
ATOM     10  C   UNL     1       5.682   4.802  17.395  0.00  0.00    +0.000 A 
ATOM     11  C   UNL     1       5.154   3.810  16.556  0.00  0.00    +0.000 A 
ATOM     12  C   UNL     1       5.560   3.708  15.221  0.00  0.00    +0.000 A 
ATOM     13  C   UNL     1       6.521   4.577  14.722  0.00  0.00    +0.000 A 
ATOM     14 CL   UNL     1       6.979   4.475  13.066  0.00  0.00    +0.000 Cl
ATOM     15  C   UNL     1       7.100   5.534  15.552  0.00  0.00    +0.000 A 
ATOM     16  C   UNL     1       6.684   5.643  16.888  0.00  0.00    +0.000 A 
ENDBRANCH   9  10
ENDBRANCH   1   9
BRANCH   1  17
ATOM     17  O   UNL     1       3.266   5.420  20.403  0.00  0.00    +0.000 OA
ATOM     18  H   UNL     1       2.458   5.002  20.740  0.00  0.00    +0.000 HD
ENDBRANCH   1  17
BRANCH   1  19
ATOM     19  C   UNL     1       2.805   5.680  18.085  0.00  0.00    +0.000 C 
BRANCH  19  20
ATOM     20  N   UNL     1       2.589   7.075  18.355  0.00  0.00    +0.000 N 
ATOM     21  C   UNL     1       2.949   8.142  17.592  0.00  0.00    +0.000 A 
ATOM     22  N   UNL     1       2.428   9.232  18.100  0.00  0.00    +0.000 NA
ATOM     23  C   UNL     1       1.725   8.769  19.175  0.00  0.00    +0.000 A 
ATOM     24  N   UNL     1       1.770   7.445  19.355  0.00  0.00    +0.000 NA
ENDBRANCH  19  20
ENDBRANCH   1  19
TORSDOF 6
ENDMDL
