MODEL 1
REMARK VINA RESULT:      -7.4      0.000      0.000
REMARK  Name = 
REMARK  7 active torsions:
REMARK  status: ('A' for Active; 'I' for Inactive)
REMARK    1  A    between atoms: C_1  and  C_2
REMARK    2  A    between atoms: C_2  and  S_4
REMARK    3  A    between atoms: S_4  and  C_5
REMARK    4  A    between atoms: C_5  and  C_6
REMARK    5  A    between atoms: C_6  and  C_7
REMARK    6  A    between atoms: C_18  and  C_19
REMARK    7  A    between atoms: C_19  and  O_21
REMARK                            x       y       z     vdW  Elec       q    Type
REMARK                         _______ _______ _______ _____ _____    ______ ____
ROOT
ATOM      1  C   UNL     1       4.617   4.474  18.898  0.00  0.00    +0.000 C 
ATOM      2  O   UNL     1       4.816   3.462  19.544  0.00  0.00    +0.000 OA
ATOM      3  N   UNL     1       3.500   4.656  18.083  0.00  0.00    +0.000 N 
ATOM      4  C   UNL     1       2.850   3.454  17.764  0.00  0.00    +0.000 C 
ATOM      5  O   UNL     1       3.300   2.567  17.056  0.00  0.00    +0.000 OA
ATOM      6  C   UNL     1       1.420   3.519  18.297  0.00  0.00    +0.000 C 
ATOM      7  C   UNL     1       0.972   2.198  18.897  0.00  0.00    +0.000 C 
ATOM      8  C   UNL     1       1.682   1.913  20.210  0.00  0.00    +0.000 C 
ATOM      9  C   UNL     1       1.368   3.020  21.203  0.00  0.00    +0.000 C 
ATOM     10  C   UNL     1       1.821   4.405  20.716  0.00  0.00    +0.000 C 
ATOM     11  C   UNL     1       1.450   4.741  19.254  0.00  0.00    +0.000 C 
ATOM     12  C   UNL     1       2.448   5.591  18.457  0.00  0.00    +0.000 C 
ENDROOT
BRANCH  12  13
ATOM     13  C   UNL     1       2.781   7.041  18.722  0.00  0.00    +0.000 C 
ATOM     14  O   UNL     1       3.116   7.877  17.890  0.00  0.00    +0.000 OA
BRANCH  13  15
ATOM     15  O   UNL     1       2.555   7.454  19.987  0.00  0.00    +0.000 OA
ATOM     16  H   UNL     1       1.826   8.112  19.899  0.00  0.00    +0.000 HD
ENDBRANCH  13  15
ENDBRANCH  12  13
BRANCH   1  17
ATOM     17  C   UNL     1       5.509   5.697  19.011  0.00  0.00    +0.000 C 
BRANCH  17  18
ATOM     18  C   UNL     1       6.155   6.053  17.701  0.00  0.00    +0.000 C 
BRANCH  18  19
ATOM     19  S   UNL     1       7.222   4.691  17.163  0.00  0.00    +0.000 S 
BRANCH  19  21
ATOM     20  C   UNL     1       5.562   4.330  15.060  0.00  0.00    +0.000 C 
ATOM     21  C   UNL     1       6.899   4.884  15.461  0.00  0.00    +0.000 C 
ATOM     22  O   UNL     1       7.733   5.347  14.711  0.00  0.00    +0.000 OA
ENDBRANCH  19  21
ENDBRANCH  18  19
ENDBRANCH  17  18
ENDBRANCH   1  17
TORSDOF 6
ENDMDL
MODEL 2
REMARK VINA RESULT:      -7.2      1.660      2.245
REMARK  Name = 
REMARK  7 active torsions:
REMARK  status: ('A' for Active; 'I' for Inactive)
REMARK    1  A    between atoms: C_1  and  C_2
REMARK    2  A    between atoms: C_2  and  S_4
REMARK    3  A    between atoms: S_4  and  C_5
REMARK    4  A    between atoms: C_5  and  C_6
REMARK    5  A    between atoms: C_6  and  C_7
REMARK    6  A    between atoms: C_18  and  C_19
REMARK    7  A    between atoms: C_19  and  O_21
REMARK                            x       y       z     vdW  Elec       q    Type
REMARK                         _______ _______ _______ _____ _____    ______ ____
ROOT
ATOM      1  C   UNL     1       4.997   3.641  18.725  0.00  0.00    +0.000 C 
ATOM      2  O   UNL     1       4.846   3.132  19.821  0.00  0.00    +0.000 OA
ATOM      3  N   UNL     1       4.006   3.652  17.744  0.00  0.00    +0.000 N 
ATOM      4  C   UNL     1       2.997   2.704  17.969  0.00  0.00    +0.000 C 
ATOM      5  O   UNL     1       3.131   1.492  17.907  0.00  0.00    +0.000 OA
ATOM      6  C   UNL     1       1.666   3.439  18.123  0.00  0.00    +0.000 C 
ATOM      7  C   UNL     1       0.804   2.837  19.219  0.00  0.00    +0.000 C 
ATOM      8  C   UNL     1       1.374   3.126  20.598  0.00  0.00    +0.000 C 
ATOM      9  C   UNL     1       1.439   4.629  20.811  0.00  0.00    +0.000 C 
ATOM     10  C   UNL     1       2.326   5.342  19.779  0.00  0.00    +0.000 C 
ATOM     11  C   UNL     1       2.094   4.919  18.310  0.00  0.00    +0.000 C 
ATOM     12  C   UNL     1       3.321   4.888  17.390  0.00  0.00    +0.000 C 
ENDROOT
BRANCH  12  13
ATOM     13  C   UNL     1       4.114   6.091  16.934  0.00  0.00    +0.000 C 
ATOM     14  O   UNL     1       4.184   7.177  17.499  0.00  0.00    +0.000 OA
BRANCH  13  15
ATOM     15  O   UNL     1       4.912   5.873  15.867  0.00  0.00    +0.000 OA
ATOM     16  H   UNL     1       4.965   6.751  15.421  0.00  0.00    +0.000 HD
ENDBRANCH  13  15
ENDBRANCH  12  13
BRANCH   1  17
ATOM     17  C   UNL     1       6.242   4.428  18.361  0.00  0.00    +0.000 C 
BRANCH  17  18
ATOM     18  C   UNL     1       6.472   5.590  19.286  0.00  0.00    +0.000 C 
BRANCH  18  19
ATOM     19  S   UNL     1       8.148   6.236  19.041  0.00  0.00    +0.000 S 
BRANCH  19  21
ATOM     20  C   UNL     1       7.688   8.594  17.802  0.00  0.00    +0.000 C 
ATOM     21  C   UNL     1       7.780   7.111  17.579  0.00  0.00    +0.000 C 
ATOM     22  O   UNL     1       7.549   6.531  16.539  0.00  0.00    +0.000 OA
ENDBRANCH  19  21
ENDBRANCH  18  19
ENDBRANCH  17  18
ENDBRANCH   1  17
TORSDOF 6
ENDMDL
MODEL 3
REMARK VINA RESULT:      -7.1      1.593      3.037
REMARK  Name = 
REMARK  7 active torsions:
REMARK  status: ('A' for Active; 'I' for Inactive)
REMARK    1  A    between atoms: C_1  and  C_2
REMARK    2  A    between atoms: C_2  and  S_4
REMARK    3  A    between atoms: S_4  and  C_5
REMARK    4  A    between atoms: C_5  and  C_6
REMARK    5  A    between atoms: C_6  and  C_7
REMARK    6  A    between atoms: C_18  and  C_19
REMARK    7  A    between atoms: C_19  and  O_21
REMARK                            x       y       z     vdW  Elec       q    Type
REMARK                         _______ _______ _______ _____ _____    ______ ____
ROOT
ATOM      1  C   UNL     1       3.162   6.046  18.421  0.00  0.00    +0.000 C 
ATOM      2  O   UNL     1       2.105   5.836  17.856  0.00  0.00    +0.000 OA
ATOM      3  N   UNL     1       3.452   5.577  19.702  0.00  0.00    +0.000 N 
ATOM      4  C   UNL     1       2.309   5.199  20.422  0.00  0.00    +0.000 C 
ATOM      5  O   UNL     1       1.441   5.955  20.829  0.00  0.00    +0.000 OA
ATOM      6  C   UNL     1       2.424   3.716  20.771  0.00  0.00    +0.000 C 
ATOM      7  C   UNL     1       1.097   2.990  20.628  0.00  0.00    +0.000 C 
ATOM      8  C   UNL     1       0.698   2.843  19.169  0.00  0.00    +0.000 C 
ATOM      9  C   UNL     1       1.762   2.044  18.434  0.00  0.00    +0.000 C 
ATOM     10  C   UNL     1       3.146   2.710  18.476  0.00  0.00    +0.000 C 
ATOM     11  C   UNL     1       3.585   3.224  19.866  0.00  0.00    +0.000 C 
ATOM     12  C   UNL     1       4.422   4.509  19.903  0.00  0.00    +0.000 C 
ENDROOT
BRANCH  12  13
ATOM     13  C   UNL     1       5.834   4.659  19.385  0.00  0.00    +0.000 C 
ATOM     14  O   UNL     1       6.667   5.476  19.760  0.00  0.00    +0.000 OA
BRANCH  13  15
ATOM     15  O   UNL     1       6.223   3.703  18.515  0.00  0.00    +0.000 OA
ATOM     16  H   UNL     1       6.273   2.884  19.063  0.00  0.00    +0.000 HD
ENDBRANCH  13  15
ENDBRANCH  12  13
BRANCH   1  17
ATOM     17  C   UNL     1       4.325   6.740  17.735  0.00  0.00    +0.000 C 
BRANCH  17  18
ATOM     18  C   UNL     1       4.721   6.057  16.456  0.00  0.00    +0.000 C 
BRANCH  18  19
ATOM     19  S   UNL     1       6.441   6.466  16.060  0.00  0.00    +0.000 S 
BRANCH  19  21
ATOM     20  C   UNL     1       5.977   4.123  14.794  0.00  0.00    +0.000 C 
ATOM     21  C   UNL     1       6.930   4.829  15.714  0.00  0.00    +0.000 C 
ATOM     22  O   UNL     1       7.899   4.335  16.252  0.00  0.00    +0.000 OA
ENDBRANCH  19  21
ENDBRANCH  18  19
ENDBRANCH  17  18
ENDBRANCH   1  17
TORSDOF 6
ENDMDL
MODEL 4
REMARK VINA RESULT:      -7.1      0.924      1.167
REMARK  Name = 
REMARK  7 active torsions:
REMARK  status: ('A' for Active; 'I' for Inactive)
REMARK    1  A    between atoms: C_1  and  C_2
REMARK    2  A    between atoms: C_2  and  S_4
REMARK    3  A    between atoms: S_4  and  C_5
REMARK    4  A    between atoms: C_5  and  C_6
REMARK    5  A    between atoms: C_6  and  C_7
REMARK    6  A    between atoms: C_18  and  C_19
REMARK    7  A    between atoms: C_19  and  O_21
REMARK                            x       y       z     vdW  Elec       q    Type
REMARK                         _______ _______ _______ _____ _____    ______ ____
ROOT
ATOM      1  C   UNL     1       4.712   4.476  19.068  0.00  0.00    +0.000 C 
ATOM      2  O   UNL     1       4.836   3.528  19.822  0.00  0.00    +0.000 OA
ATOM      3  N   UNL     1       3.717   4.554  18.094  0.00  0.00    +0.000 N 
ATOM      4  C   UNL     1       3.141   3.310  17.794  0.00  0.00    +0.000 C 
ATOM      5  O   UNL     1       3.702   2.381  17.236  0.00  0.00    +0.000 OA
ATOM      6  C   UNL     1       1.649   3.377  18.116  0.00  0.00    +0.000 C 
ATOM      7  C   UNL     1       1.145   2.098  18.762  0.00  0.00    +0.000 C 
ATOM      8  C   UNL     1       1.669   1.946  20.180  0.00  0.00    +0.000 C 
ATOM      9  C   UNL     1       1.198   3.124  21.019  0.00  0.00    +0.000 C 
ATOM     10  C   UNL     1       1.689   4.476  20.480  0.00  0.00    +0.000 C 
ATOM     11  C   UNL     1       1.522   4.675  18.957  0.00  0.00    +0.000 C 
ATOM     12  C   UNL     1       2.606   5.485  18.235  0.00  0.00    +0.000 C 
ENDROOT
BRANCH  12  13
ATOM     13  C   UNL     1       2.873   6.962  18.414  0.00  0.00    +0.000 C 
ATOM     14  O   UNL     1       2.595   7.640  19.397  0.00  0.00    +0.000 OA
BRANCH  13  15
ATOM     15  O   UNL     1       3.603   7.530  17.432  0.00  0.00    +0.000 OA
ATOM     16  H   UNL     1       3.892   8.392  17.812  0.00  0.00    +0.000 HD
ENDBRANCH  13  15
ENDBRANCH  12  13
BRANCH   1  17
ATOM     17  C   UNL     1       5.556   5.730  19.197  0.00  0.00    +0.000 C 
BRANCH  17  18
ATOM     18  C   UNL     1       6.956   5.528  18.688  0.00  0.00    +0.000 C 
BRANCH  18  19
ATOM     19  S   UNL     1       7.297   6.717  17.364  0.00  0.00    +0.000 S 
BRANCH  19  21
ATOM     20  C   UNL     1       6.925   4.498  15.866  0.00  0.00    +0.000 C 
ATOM     21  C   UNL     1       6.388   5.874  16.139  0.00  0.00    +0.000 C 
ATOM     22  O   UNL     1       5.481   6.416  15.543  0.00  0.00    +0.000 OA
ENDBRANCH  19  21
ENDBRANCH  18  19
ENDBRANCH  17  18
ENDBRANCH   1  17
TORSDOF 6
ENDMDL
MODEL 5
REMARK VINA RESULT:      -7.1      1.080      1.132
REMARK  Name = 
REMARK  7 active torsions:
REMARK  status: ('A' for Active; 'I' for Inactive)
REMARK    1  A    between atoms: C_1  and  C_2
REMARK    2  A    between atoms: C_2  and  S_4
REMARK    3  A    between atoms: S_4  and  C_5
REMARK    4  A    between atoms: C_5  and  C_6
REMARK    5  A    between atoms: C_6  and  C_7
REMARK    6  A    between atoms: C_18  and  C_19
REMARK    7  A    between atoms: C_19  and  O_21
REMARK                            x       y       z     vdW  Elec       q    Type
REMARK                         _______ _______ _______ _____ _____    ______ ____
ROOT
ATOM      1  C   UNL     1       4.902   3.998  18.954  0.00  0.00    +0.000 C 
ATOM      2  O   UNL     1       4.867   3.205  19.877  0.00  0.00    +0.000 OA
ATOM      3  N   UNL     1       3.924   4.062  17.963  0.00  0.00    +0.000 N 
ATOM      4  C   UNL     1       3.133   2.905  17.894  0.00  0.00    +0.000 C 
ATOM      5  O   UNL     1       3.514   1.802  17.534  0.00  0.00    +0.000 OA
ATOM      6  C   UNL     1       1.681   3.293  18.165  0.00  0.00    +0.000 C 
ATOM      7  C   UNL     1       0.968   2.270  19.033  0.00  0.00    +0.000 C 
ATOM      8  C   UNL     1       1.475   2.303  20.465  0.00  0.00    +0.000 C 
ATOM      9  C   UNL     1       1.231   3.683  21.053  0.00  0.00    +0.000 C 
ATOM     10  C   UNL     1       1.946   4.800  20.277  0.00  0.00    +0.000 C 
ATOM     11  C   UNL     1       1.796   4.730  18.740  0.00  0.00    +0.000 C 
ATOM     12  C   UNL     1       2.996   5.183  17.900  0.00  0.00    +0.000 C 
ENDROOT
BRANCH  12  13
ATOM     13  C   UNL     1       3.522   6.597  17.800  0.00  0.00    +0.000 C 
ATOM     14  O   UNL     1       4.183   7.067  16.881  0.00  0.00    +0.000 OA
BRANCH  13  15
ATOM     15  O   UNL     1       3.096   7.430  18.772  0.00  0.00    +0.000 OA
ATOM     16  H   UNL     1       3.841   7.452  19.417  0.00  0.00    +0.000 HD
ENDBRANCH  13  15
ENDBRANCH  12  13
BRANCH   1  17
ATOM     17  C   UNL     1       5.956   5.086  18.859  0.00  0.00    +0.000 C 
BRANCH  17  18
ATOM     18  C   UNL     1       7.093   4.697  17.955  0.00  0.00    +0.000 C 
BRANCH  18  19
ATOM     19  S   UNL     1       7.108   5.780  16.502  0.00  0.00    +0.000 S 
BRANCH  19  21
ATOM     20  C   UNL     1       7.112   4.887  13.951  0.00  0.00    +0.000 C 
ATOM     21  C   UNL     1       6.715   4.528  15.354  0.00  0.00    +0.000 C 
ATOM     22  O   UNL     1       6.110   3.532  15.691  0.00  0.00    +0.000 OA
ENDBRANCH  19  21
ENDBRANCH  18  19
ENDBRANCH  17  18
ENDBRANCH   1  17
TORSDOF 6
ENDMDL
MODEL 6
REMARK VINA RESULT:      -7.0      0.977      1.256
REMARK  Name = 
REMARK  7 active torsions:
REMARK  status: ('A' for Active; 'I' for Inactive)
REMARK    1  A    between atoms: C_1  and  C_2
REMARK    2  A    between atoms: C_2  and  S_4
REMARK    3  A    between atoms: S_4  and  C_5
REMARK    4  A    between atoms: C_5  and  C_6
REMARK    5  A    between atoms: C_6  and  C_7
REMARK    6  A    between atoms: C_18  and  C_19
REMARK    7  A    between atoms: C_19  and  O_21
REMARK                            x       y       z     vdW  Elec       q    Type
REMARK                         _______ _______ _______ _____ _____    ______ ____
ROOT
ATOM      1  C   UNL     1       4.604   4.503  19.082  0.00  0.00    +0.000 C 
ATOM      2  O   UNL     1       4.770   3.482  19.724  0.00  0.00    +0.000 OA
ATOM      3  N   UNL     1       3.552   4.680  18.184  0.00  0.00    +0.000 N 
ATOM      4  C   UNL     1       2.951   3.474  17.794  0.00  0.00    +0.000 C 
ATOM      5  O   UNL     1       3.471   2.608  17.109  0.00  0.00    +0.000 OA
ATOM      6  C   UNL     1       1.483   3.505  18.213  0.00  0.00    +0.000 C 
ATOM      7  C   UNL     1       1.012   2.166  18.753  0.00  0.00    +0.000 C 
ATOM      8  C   UNL     1       1.622   1.869  20.113  0.00  0.00    +0.000 C 
ATOM      9  C   UNL     1       1.211   2.953  21.097  0.00  0.00    +0.000 C 
ATOM     10  C   UNL     1       1.674   4.354  20.671  0.00  0.00    +0.000 C 
ATOM     11  C   UNL     1       1.415   4.710  19.190  0.00  0.00    +0.000 C 
ATOM     12  C   UNL     1       2.456   5.591  18.489  0.00  0.00    +0.000 C 
ENDROOT
BRANCH  12  13
ATOM     13  C   UNL     1       2.742   7.042  18.804  0.00  0.00    +0.000 C 
ATOM     14  O   UNL     1       3.087   7.908  18.008  0.00  0.00    +0.000 OA
BRANCH  13  15
ATOM     15  O   UNL     1       2.455   7.414  20.069  0.00  0.00    +0.000 OA
ATOM     16  H   UNL     1       1.481   7.286  20.144  0.00  0.00    +0.000 HD
ENDBRANCH  13  15
ENDBRANCH  12  13
BRANCH   1  17
ATOM     17  C   UNL     1       5.462   5.738  19.286  0.00  0.00    +0.000 C 
BRANCH  17  18
ATOM     18  C   UNL     1       6.931   5.418  19.281  0.00  0.00    +0.000 C 
BRANCH  18  19
ATOM     19  S   UNL     1       7.419   4.845  17.633  0.00  0.00    +0.000 S 
BRANCH  19  21
ATOM     20  C   UNL     1       7.668   7.531  17.469  0.00  0.00    +0.000 C 
ATOM     21  C   UNL     1       7.037   6.336  16.814  0.00  0.00    +0.000 C 
ATOM     22  O   UNL     1       6.272   6.359  15.873  0.00  0.00    +0.000 OA
ENDBRANCH  19  21
ENDBRANCH  18  19
ENDBRANCH  17  18
ENDBRANCH   1  17
TORSDOF 6
ENDMDL
MODEL 7
REMARK VINA RESULT:      -7.0      2.081      5.343
REMARK  Name = 
REMARK  7 active torsions:
REMARK  status: ('A' for Active; 'I' for Inactive)
REMARK    1  A    between atoms: C_1  and  C_2
REMARK    2  A    between atoms: C_2  and  S_4
REMARK    3  A    between atoms: S_4  and  C_5
REMARK    4  A    between atoms: C_5  and  C_6
REMARK    5  A    between atoms: C_6  and  C_7
REMARK    6  A    between atoms: C_18  and  C_19
REMARK    7  A    between atoms: C_19  and  O_21
REMARK                            x       y       z     vdW  Elec       q    Type
REMARK                         _______ _______ _______ _____ _____    ______ ____
ROOT
ATOM      1  C   UNL     1       3.193   4.149  17.777  0.00  0.00    +0.000 C 
ATOM      2  O   UNL     1       3.663   3.324  17.014  0.00  0.00    +0.000 OA
ATOM      3  N   UNL     1       3.970   4.943  18.619  0.00  0.00    +0.000 N 
ATOM      4  C   UNL     1       5.269   4.445  18.801  0.00  0.00    +0.000 C 
ATOM      5  O   UNL     1       5.563   3.420  19.396  0.00  0.00    +0.000 OA
ATOM      6  C   UNL     1       6.264   5.488  18.295  0.00  0.00    +0.000 C 
ATOM      7  C   UNL     1       7.426   4.856  17.548  0.00  0.00    +0.000 C 
ATOM      8  C   UNL     1       6.988   4.300  16.204  0.00  0.00    +0.000 C 
ATOM      9  C   UNL     1       6.427   5.427  15.351  0.00  0.00    +0.000 C 
ATOM     10  C   UNL     1       5.213   6.115  15.992  0.00  0.00    +0.000 C 
ATOM     11  C   UNL     1       5.373   6.470  17.488  0.00  0.00    +0.000 C 
ATOM     12  C   UNL     1       4.121   6.370  18.368  0.00  0.00    +0.000 C 
ENDROOT
BRANCH  12  13
ATOM     13  C   UNL     1       2.900   7.256  18.273  0.00  0.00    +0.000 C 
ATOM     14  O   UNL     1       2.409   7.715  17.248  0.00  0.00    +0.000 OA
BRANCH  13  15
ATOM     15  O   UNL     1       2.238   7.435  19.435  0.00  0.00    +0.000 OA
ATOM     16  H   UNL     1       2.918   7.270  20.129  0.00  0.00    +0.000 HD
ENDBRANCH  13  15
ENDBRANCH  12  13
BRANCH   1  17
ATOM     17  C   UNL     1       1.713   4.482  17.798  0.00  0.00    +0.000 C 
BRANCH  17  18
ATOM     18  C   UNL     1       1.097   4.251  19.150  0.00  0.00    +0.000 C 
BRANCH  18  19
ATOM     19  S   UNL     1       1.412   2.545  19.673  0.00  0.00    +0.000 S 
BRANCH  19  21
ATOM     20  C   UNL     1       2.286   4.351  21.484  0.00  0.00    +0.000 C 
ATOM     21  C   UNL     1       1.794   2.941  21.327  0.00  0.00    +0.000 C 
ATOM     22  O   UNL     1       1.733   2.106  22.205  0.00  0.00    +0.000 OA
ENDBRANCH  19  21
ENDBRANCH  18  19
ENDBRANCH  17  18
ENDBRANCH   1  17
TORSDOF 6
ENDMDL
MODEL 8
REMARK VINA RESULT:      -6.9      1.667      3.095
REMARK  Name = 
REMARK  7 active torsions:
REMARK  status: ('A' for Active; 'I' for Inactive)
REMARK    1  A    between atoms: C_1  and  C_2
REMARK    2  A    between atoms: C_2  and  S_4
REMARK    3  A    between atoms: S_4  and  C_5
REMARK    4  A    between atoms: C_5  and  C_6
REMARK    5  A    between atoms: C_6  and  C_7
REMARK    6  A    between atoms: C_18  and  C_19
REMARK    7  A    between atoms: C_19  and  O_21
REMARK                            x       y       z     vdW  Elec       q    Type
REMARK                         _______ _______ _______ _____ _____    ______ ____
ROOT
ATOM      1  C   UNL     1       3.819   6.109  17.969  0.00  0.00    +0.000 C 
ATOM      2  O   UNL     1       2.793   5.908  17.345  0.00  0.00    +0.000 OA
ATOM      3  N   UNL     1       3.994   5.725  19.298  0.00  0.00    +0.000 N 
ATOM      4  C   UNL     1       2.784   5.459  19.958  0.00  0.00    +0.000 C 
ATOM      5  O   UNL     1       1.932   6.284  20.244  0.00  0.00    +0.000 OA
ATOM      6  C   UNL     1       2.795   4.003  20.420  0.00  0.00    +0.000 C 
ATOM      7  C   UNL     1       1.444   3.333  20.233  0.00  0.00    +0.000 C 
ATOM      8  C   UNL     1       1.140   3.095  18.763  0.00  0.00    +0.000 C 
ATOM      9  C   UNL     1       2.208   2.192  18.168  0.00  0.00    +0.000 C 
ATOM     10  C   UNL     1       3.619   2.792  18.263  0.00  0.00    +0.000 C 
ATOM     11  C   UNL     1       3.988   3.388  19.641  0.00  0.00    +0.000 C 
ATOM     12  C   UNL     1       4.888   4.629  19.647  0.00  0.00    +0.000 C 
ENDROOT
BRANCH  12  13
ATOM     13  C   UNL     1       6.339   4.671  19.223  0.00  0.00    +0.000 C 
ATOM     14  O   UNL     1       6.828   4.131  18.237  0.00  0.00    +0.000 OA
BRANCH  13  15
ATOM     15  O   UNL     1       7.119   5.497  19.952  0.00  0.00    +0.000 OA
ATOM     16  H   UNL     1       7.729   4.890  20.433  0.00  0.00    +0.000 HD
ENDBRANCH  13  15
ENDBRANCH  12  13
BRANCH   1  17
ATOM     17  C   UNL     1       5.062   6.692  17.321  0.00  0.00    +0.000 C 
BRANCH  17  18
ATOM     18  C   UNL     1       5.111   6.424  15.843  0.00  0.00    +0.000 C 
BRANCH  18  19
ATOM     19  S   UNL     1       5.286   4.643  15.557  0.00  0.00    +0.000 S 
BRANCH  19  21
ATOM     20  C   UNL     1       6.446   3.931  13.222  0.00  0.00    +0.000 C 
ATOM     21  C   UNL     1       6.624   4.779  14.449  0.00  0.00    +0.000 C 
ATOM     22  O   UNL     1       7.606   5.435  14.726  0.00  0.00    +0.000 OA
ENDBRANCH  19  21
ENDBRANCH  18  19
ENDBRANCH  17  18
ENDBRANCH   1  17
TORSDOF 6
ENDMDL
MODEL 9
REMARK VINA RESULT:      -6.9      1.186      1.207
REMARK  Name = 
REMARK  7 active torsions:
REMARK  status: ('A' for Active; 'I' for Inactive)
REMARK    1  A    between atoms: C_1  and  C_2
REMARK    2  A    between atoms: C_2  and  S_4
REMARK    3  A    between atoms: S_4  and  C_5
REMARK    4  A    between atoms: C_5  and  C_6
REMARK    5  A    between atoms: C_6  and  C_7
REMARK    6  A    between atoms: C_18  and  C_19
REMARK    7  A    between atoms: C_19  and  O_21
REMARK                            x       y       z     vdW  Elec       q    Type
REMARK                         _______ _______ _______ _____ _____    ______ ____
ROOT
ATOM      1  C   UNL     1       4.058   5.012  18.352  0.00  0.00    +0.000 C 
ATOM      2  O   UNL     1       4.578   3.955  18.662  0.00  0.00    +0.000 OA
ATOM      3  N   UNL     1       2.688   5.155  18.131  0.00  0.00    +0.000 N 
ATOM      4  C   UNL     1       2.036   3.933  17.907  0.00  0.00    +0.000 C 
ATOM      5  O   UNL     1       2.181   3.216  16.930  0.00  0.00    +0.000 OA
ATOM      6  C   UNL     1       0.982   3.739  18.995  0.00  0.00    +0.000 C 
ATOM      7  C   UNL     1       0.919   2.302  19.482  0.00  0.00    +0.000 C 
ATOM      8  C   UNL     1       2.148   1.936  20.299  0.00  0.00    +0.000 C 
ATOM      9  C   UNL     1       2.236   2.849  21.512  0.00  0.00    +0.000 C 
ATOM     10  C   UNL     1       2.347   4.334  21.135  0.00  0.00    +0.000 C 
ATOM     11  C   UNL     1       1.356   4.813  20.051  0.00  0.00    +0.000 C 
ATOM     12  C   UNL     1       1.853   5.886  19.074  0.00  0.00    +0.000 C 
ENDROOT
BRANCH  12  13
ATOM     13  C   UNL     1       2.183   7.318  19.426  0.00  0.00    +0.000 C 
ATOM     14  O   UNL     1       2.288   8.257  18.645  0.00  0.00    +0.000 OA
BRANCH  13  15
ATOM     15  O   UNL     1       2.235   7.579  20.750  0.00  0.00    +0.000 OA
ATOM     16  H   UNL     1       2.951   8.250  20.836  0.00  0.00    +0.000 HD
ENDBRANCH  13  15
ENDBRANCH  12  13
BRANCH   1  17
ATOM     17  C   UNL     1       4.836   6.313  18.295  0.00  0.00    +0.000 C 
BRANCH  17  18
ATOM     18  C   UNL     1       5.440   6.556  16.939  0.00  0.00    +0.000 C 
BRANCH  18  19
ATOM     19  S   UNL     1       7.247   6.544  17.072  0.00  0.00    +0.000 S 
BRANCH  19  21
ATOM     20  C   UNL     1       6.536   4.393  15.597  0.00  0.00    +0.000 C 
ATOM     21  C   UNL     1       7.433   4.849  16.712  0.00  0.00    +0.000 C 
ATOM     22  O   UNL     1       8.160   4.141  17.377  0.00  0.00    +0.000 OA
ENDBRANCH  19  21
ENDBRANCH  18  19
ENDBRANCH  17  18
ENDBRANCH   1  17
TORSDOF 6
ENDMDL
