MODEL 1
REMARK VINA RESULT:      -7.9      0.000      0.000
REMARK  Name = 
REMARK  4 active torsions:
REMARK  status: ('A' for Active; 'I' for Inactive)
REMARK    1  A    between atoms: C_1  and  C_2
REMARK    2  A    between atoms: N_13  and  C_14
REMARK    3  A    between atoms: N_17  and  C_18
REMARK    4  A    between atoms: C_18  and  C_19
REMARK                            x       y       z     vdW  Elec       q    Type
REMARK                         _______ _______ _______ _____ _____    ______ ____
ROOT
ATOM      1  C   UNL     1       1.548   3.828  18.062  0.00  0.00    +0.000 C 
ATOM      2  C   UNL     1       2.926   4.206  17.670  0.00  0.00    +0.000 A 
ATOM      3  N   UNL     1       3.714   3.417  16.961  0.00  0.00    +0.000 NA
ATOM      4  C   UNL     1       4.867   4.122  16.755  0.00  0.00    +0.000 A 
ATOM      5  C   UNL     1       6.034   3.793  16.047  0.00  0.00    +0.000 A 
ATOM      6  N   UNL     1       7.098   4.646  15.934  0.00  0.00    +0.000 NA
ATOM      7  C   UNL     1       6.940   5.823  16.561  0.00  0.00    +0.000 A 
ATOM      8  N   UNL     1       7.844   6.848  16.600  0.00  0.00    +0.000 N 
ATOM      9  C   UNL     1       7.323   7.887  17.342  0.00  0.00    +0.000 A 
ATOM     10  C   UNL     1       6.057   7.530  17.778  0.00  0.00    +0.000 A 
ATOM     11  C   UNL     1       5.832   6.221  17.275  0.00  0.00    +0.000 A 
ATOM     12  C   UNL     1       4.777   5.355  17.376  0.00  0.00    +0.000 A 
ATOM     13  N   UNL     1       3.552   5.416  17.966  0.00  0.00    +0.000 N 
ATOM     14  H   UNL     1       8.746   6.819  16.149  0.00  0.00    +0.000 HD
ENDROOT
BRANCH  13  15
ATOM     15  C   UNL     1       2.972   6.544  18.677  0.00  0.00    +0.000 C 
ATOM     16  C   UNL     1       2.189   7.475  17.753  0.00  0.00    +0.000 C 
ATOM     17  C   UNL     1       1.957   8.797  18.480  0.00  0.00    +0.000 C 
ATOM     18  N   UNL     1       1.231   8.623  19.752  0.00  0.00    +0.000 NA
ATOM     19  C   UNL     1       1.830   7.600  20.629  0.00  0.00    +0.000 C 
ATOM     20  C   UNL     1       2.093   6.273  19.907  0.00  0.00    +0.000 C 
BRANCH  18  21
ATOM     21  C   UNL     1       1.159   9.908  20.485  0.00  0.00    +0.000 C 
BRANCH  21  22
ATOM     22  C   UNL     1       0.544  11.044  19.695  0.00  0.00    +0.000 A 
ATOM     23  C   UNL     1       1.284  12.202  19.417  0.00  0.00    +0.000 A 
ATOM     24  C   UNL     1       0.719  13.243  18.677  0.00  0.00    +0.000 A 
ATOM     25  C   UNL     1      -0.588  13.135  18.205  0.00  0.00    +0.000 A 
ATOM     26  C   UNL     1      -1.335  11.991  18.480  0.00  0.00    +0.000 A 
ATOM     27  C   UNL     1      -0.774  10.952  19.222  0.00  0.00    +0.000 A 
ENDBRANCH  21  22
ENDBRANCH  18  21
ENDBRANCH  13  15
TORSDOF 3
ENDMDL
MODEL 2
REMARK VINA RESULT:      -7.9      0.910      1.215
REMARK  Name = 
REMARK  4 active torsions:
REMARK  status: ('A' for Active; 'I' for Inactive)
REMARK    1  A    between atoms: C_1  and  C_2
REMARK    2  A    between atoms: N_13  and  C_14
REMARK    3  A    between atoms: N_17  and  C_18
REMARK    4  A    between atoms: C_18  and  C_19
REMARK                            x       y       z     vdW  Elec       q    Type
REMARK                         _______ _______ _______ _____ _____    ______ ____
ROOT
ATOM      1  C   UNL     1       1.511   4.033  17.965  0.00  0.00    +0.000 C 
ATOM      2  C   UNL     1       2.911   4.372  17.617  0.00  0.00    +0.000 A 
ATOM      3  N   UNL     1       3.711   3.546  16.967  0.00  0.00    +0.000 NA
ATOM      4  C   UNL     1       4.885   4.221  16.785  0.00  0.00    +0.000 A 
ATOM      5  C   UNL     1       6.073   3.848  16.136  0.00  0.00    +0.000 A 
ATOM      6  N   UNL     1       7.157   4.677  16.037  0.00  0.00    +0.000 NA
ATOM      7  C   UNL     1       6.997   5.877  16.618  0.00  0.00    +0.000 A 
ATOM      8  N   UNL     1       7.918   6.886  16.660  0.00  0.00    +0.000 N 
ATOM      9  C   UNL     1       7.389   7.959  17.345  0.00  0.00    +0.000 A 
ATOM     10  C   UNL     1       6.099   7.640  17.742  0.00  0.00    +0.000 A 
ATOM     11  C   UNL     1       5.869   6.320  17.274  0.00  0.00    +0.000 A 
ATOM     12  C   UNL     1       4.795   5.477  17.360  0.00  0.00    +0.000 A 
ATOM     13  N   UNL     1       3.548   5.580  17.899  0.00  0.00    +0.000 N 
ATOM     14  H   UNL     1       8.837   6.826  16.247  0.00  0.00    +0.000 HD
ENDROOT
BRANCH  13  15
ATOM     15  C   UNL     1       2.963   6.742  18.547  0.00  0.00    +0.000 C 
ATOM     16  C   UNL     1       2.192   7.628  17.571  0.00  0.00    +0.000 C 
ATOM     17  C   UNL     1       1.955   8.984  18.231  0.00  0.00    +0.000 C 
ATOM     18  N   UNL     1       1.214   8.872  19.501  0.00  0.00    +0.000 NA
ATOM     19  C   UNL     1       1.801   7.891  20.434  0.00  0.00    +0.000 C 
ATOM     20  C   UNL     1       2.069   6.531  19.779  0.00  0.00    +0.000 C 
BRANCH  18  21
ATOM     21  C   UNL     1       1.136  10.191  20.171  0.00  0.00    +0.000 C 
BRANCH  21  22
ATOM     22  C   UNL     1      -0.181  10.912  19.979  0.00  0.00    +0.000 A 
ATOM     23  C   UNL     1      -0.993  10.632  18.871  0.00  0.00    +0.000 A 
ATOM     24  C   UNL     1      -2.213  11.289  18.703  0.00  0.00    +0.000 A 
ATOM     25  C   UNL     1      -2.635  12.230  19.641  0.00  0.00    +0.000 A 
ATOM     26  C   UNL     1      -1.833  12.522  20.743  0.00  0.00    +0.000 A 
ATOM     27  C   UNL     1      -0.612  11.869  20.910  0.00  0.00    +0.000 A 
ENDBRANCH  21  22
ENDBRANCH  18  21
ENDBRANCH  13  15
TORSDOF 3
ENDMDL
MODEL 3
REMARK VINA RESULT:      -7.7      1.374      1.967
REMARK  Name = 
REMARK  4 active torsions:
REMARK  status: ('A' for Active; 'I' for Inactive)
REMARK    1  A    between atoms: C_1  and  C_2
REMARK    2  A    between atoms: N_13  and  C_14
REMARK    3  A    between atoms: N_17  and  C_18
REMARK    4  A    between atoms: C_18  and  C_19
REMARK                            x       y       z     vdW  Elec       q    Type
REMARK                         _______ _______ _______ _____ _____    ______ ____
ROOT
ATOM      1  C   UNL     1       1.270   4.184  18.070  0.00  0.00    +0.000 C 
ATOM      2  C   UNL     1       2.682   4.417  17.686  0.00  0.00    +0.000 A 
ATOM      3  N   UNL     1       3.415   3.513  17.061  0.00  0.00    +0.000 NA
ATOM      4  C   UNL     1       4.626   4.103  16.831  0.00  0.00    +0.000 A 
ATOM      5  C   UNL     1       5.776   3.627  16.180  0.00  0.00    +0.000 A 
ATOM      6  N   UNL     1       6.909   4.379  16.028  0.00  0.00    +0.000 NA
ATOM      7  C   UNL     1       6.836   5.610  16.558  0.00  0.00    +0.000 A 
ATOM      8  N   UNL     1       7.820   6.559  16.541  0.00  0.00    +0.000 N 
ATOM      9  C   UNL     1       7.373   7.692  17.186  0.00  0.00    +0.000 A 
ATOM     10  C   UNL     1       6.073   7.475  17.616  0.00  0.00    +0.000 A 
ATOM     11  C   UNL     1       5.751   6.153  17.211  0.00  0.00    +0.000 A 
ATOM     12  C   UNL     1       4.627   5.386  17.351  0.00  0.00    +0.000 A 
ATOM     13  N   UNL     1       3.399   5.592  17.904  0.00  0.00    +0.000 N 
ATOM     14  H   UNL     1       8.726   6.421  16.117  0.00  0.00    +0.000 HD
ENDROOT
BRANCH  13  15
ATOM     15  C   UNL     1       2.901   6.816  18.509  0.00  0.00    +0.000 C 
ATOM     16  C   UNL     1       2.056   7.642  17.542  0.00  0.00    +0.000 C 
ATOM     17  C   UNL     1       1.908   9.052  18.110  0.00  0.00    +0.000 C 
ATOM     18  N   UNL     1       1.293   9.060  19.450  0.00  0.00    +0.000 NA
ATOM     19  C   UNL     1       1.950   8.141  20.399  0.00  0.00    +0.000 C 
ATOM     20  C   UNL     1       2.128   6.727  19.833  0.00  0.00    +0.000 C 
BRANCH  18  21
ATOM     21  C   UNL     1       1.305  10.429  20.015  0.00  0.00    +0.000 C 
BRANCH  21  22
ATOM     22  C   UNL     1       0.297  10.657  21.121  0.00  0.00    +0.000 A 
ATOM     23  C   UNL     1       0.208   9.766  22.200  0.00  0.00    +0.000 A 
ATOM     24  C   UNL     1      -0.714   9.985  23.226  0.00  0.00    +0.000 A 
ATOM     25  C   UNL     1      -1.552  11.098  23.186  0.00  0.00    +0.000 A 
ATOM     26  C   UNL     1      -1.477  11.987  22.115  0.00  0.00    +0.000 A 
ATOM     27  C   UNL     1      -0.560  11.768  21.088  0.00  0.00    +0.000 A 
ENDBRANCH  21  22
ENDBRANCH  18  21
ENDBRANCH  13  15
TORSDOF 3
ENDMDL
MODEL 4
REMARK VINA RESULT:      -7.2      2.261      8.408
REMARK  Name = 
REMARK  4 active torsions:
REMARK  status: ('A' for Active; 'I' for Inactive)
REMARK    1  A    between atoms: C_1  and  C_2
REMARK    2  A    between atoms: N_13  and  C_14
REMARK    3  A    between atoms: N_17  and  C_18
REMARK    4  A    between atoms: C_18  and  C_19
REMARK                            x       y       z     vdW  Elec       q    Type
REMARK                         _______ _______ _______ _____ _____    ______ ____
ROOT
ATOM      1  C   UNL     1       1.664   9.484  22.757  0.00  0.00    +0.000 C 
ATOM      2  C   UNL     1       0.645  10.044  21.838  0.00  0.00    +0.000 A 
ATOM      3  N   UNL     1      -0.127  11.068  22.158  0.00  0.00    +0.000 NA
ATOM      4  C   UNL     1      -0.888  11.327  21.053  0.00  0.00    +0.000 A 
ATOM      5  C   UNL     1      -1.855  12.315  20.810  0.00  0.00    +0.000 A 
ATOM      6  N   UNL     1      -2.514  12.433  19.617  0.00  0.00    +0.000 NA
ATOM      7  C   UNL     1      -2.165  11.520  18.695  0.00  0.00    +0.000 A 
ATOM      8  N   UNL     1      -2.665  11.418  17.427  0.00  0.00    +0.000 N 
ATOM      9  C   UNL     1      -2.064  10.357  16.783  0.00  0.00    +0.000 A 
ATOM     10  C   UNL     1      -1.152   9.772  17.648  0.00  0.00    +0.000 A 
ATOM     11  C   UNL     1      -1.231  10.521  18.852  0.00  0.00    +0.000 A 
ATOM     12  C   UNL     1      -0.581  10.421  20.053  0.00  0.00    +0.000 A 
ATOM     13  N   UNL     1       0.385   9.597  20.544  0.00  0.00    +0.000 N 
ATOM     14  H   UNL     1      -3.367  12.037  17.048  0.00  0.00    +0.000 HD
ENDROOT
BRANCH  13  15
ATOM     15  C   UNL     1       1.077   8.532  19.836  0.00  0.00    +0.000 C 
ATOM     16  C   UNL     1       2.091   9.066  18.827  0.00  0.00    +0.000 C 
ATOM     17  C   UNL     1       2.474   7.933  17.878  0.00  0.00    +0.000 C 
ATOM     18  N   UNL     1       3.034   6.767  18.587  0.00  0.00    +0.000 NA
ATOM     19  C   UNL     1       2.188   6.301  19.702  0.00  0.00    +0.000 C 
ATOM     20  C   UNL     1       1.775   7.433  20.650  0.00  0.00    +0.000 C 
BRANCH  18  21
ATOM     21  C   UNL     1       3.252   5.647  17.643  0.00  0.00    +0.000 C 
BRANCH  21  22
ATOM     22  C   UNL     1       4.706   5.281  17.433  0.00  0.00    +0.000 A 
ATOM     23  C   UNL     1       5.645   5.471  18.457  0.00  0.00    +0.000 A 
ATOM     24  C   UNL     1       6.983   5.121  18.265  0.00  0.00    +0.000 A 
ATOM     25  C   UNL     1       7.395   4.575  17.051  0.00  0.00    +0.000 A 
ATOM     26  C   UNL     1       6.473   4.388  16.023  0.00  0.00    +0.000 A 
ATOM     27  C   UNL     1       5.136   4.740  16.212  0.00  0.00    +0.000 A 
ENDBRANCH  21  22
ENDBRANCH  18  21
ENDBRANCH  13  15
TORSDOF 3
ENDMDL
MODEL 5
REMARK VINA RESULT:      -7.2      1.293      3.797
REMARK  Name = 
REMARK  4 active torsions:
REMARK  status: ('A' for Active; 'I' for Inactive)
REMARK    1  A    between atoms: C_1  and  C_2
REMARK    2  A    between atoms: N_13  and  C_14
REMARK    3  A    between atoms: N_17  and  C_18
REMARK    4  A    between atoms: C_18  and  C_19
REMARK                            x       y       z     vdW  Elec       q    Type
REMARK                         _______ _______ _______ _____ _____    ______ ____
ROOT
ATOM      1  C   UNL     1       5.449   7.165  17.023  0.00  0.00    +0.000 C 
ATOM      2  C   UNL     1       4.786   5.864  17.275  0.00  0.00    +0.000 A 
ATOM      3  N   UNL     1       5.345   4.704  16.981  0.00  0.00    +0.000 NA
ATOM      4  C   UNL     1       4.468   3.744  17.402  0.00  0.00    +0.000 A 
ATOM      5  C   UNL     1       4.550   2.343  17.374  0.00  0.00    +0.000 A 
ATOM      6  N   UNL     1       3.564   1.531  17.864  0.00  0.00    +0.000 NA
ATOM      7  C   UNL     1       2.505   2.183  18.370  0.00  0.00    +0.000 A 
ATOM      8  N   UNL     1       1.391   1.614  18.923  0.00  0.00    +0.000 N 
ATOM      9  C   UNL     1       0.524   2.606  19.327  0.00  0.00    +0.000 A 
ATOM     10  C   UNL     1       1.093   3.837  19.040  0.00  0.00    +0.000 A 
ATOM     11  C   UNL     1       2.345   3.549  18.434  0.00  0.00    +0.000 A 
ATOM     12  C   UNL     1       3.343   4.344  17.941  0.00  0.00    +0.000 A 
ATOM     13  N   UNL     1       3.531   5.690  17.857  0.00  0.00    +0.000 N 
ATOM     14  H   UNL     1       1.253   0.617  19.006  0.00  0.00    +0.000 HD
ENDROOT
BRANCH  13  15
ATOM     15  C   UNL     1       2.654   6.735  18.360  0.00  0.00    +0.000 C 
ATOM     16  C   UNL     1       2.779   6.926  19.869  0.00  0.00    +0.000 C 
ATOM     17  C   UNL     1       1.580   7.735  20.357  0.00  0.00    +0.000 C 
ATOM     18  N   UNL     1       1.475   9.046  19.691  0.00  0.00    +0.000 NA
ATOM     19  C   UNL     1       1.529   8.958  18.219  0.00  0.00    +0.000 C 
ATOM     20  C   UNL     1       2.714   8.127  17.714  0.00  0.00    +0.000 C 
BRANCH  18  21
ATOM     21  C   UNL     1       0.222   9.728  20.090  0.00  0.00    +0.000 C 
BRANCH  21  22
ATOM     22  C   UNL     1       0.078  11.136  19.552  0.00  0.00    +0.000 A 
ATOM     23  C   UNL     1      -0.940  11.451  18.640  0.00  0.00    +0.000 A 
ATOM     24  C   UNL     1      -1.078  12.753  18.155  0.00  0.00    +0.000 A 
ATOM     25  C   UNL     1      -0.204  13.753  18.579  0.00  0.00    +0.000 A 
ATOM     26  C   UNL     1       0.816  13.450  19.479  0.00  0.00    +0.000 A 
ATOM     27  C   UNL     1       0.958  12.149  19.962  0.00  0.00    +0.000 A 
ENDBRANCH  21  22
ENDBRANCH  18  21
ENDBRANCH  13  15
TORSDOF 3
ENDMDL
MODEL 6
REMARK VINA RESULT:      -7.1      0.440      1.406
REMARK  Name = 
REMARK  4 active torsions:
REMARK  status: ('A' for Active; 'I' for Inactive)
REMARK    1  A    between atoms: C_1  and  C_2
REMARK    2  A    between atoms: N_13  and  C_14
REMARK    3  A    between atoms: N_17  and  C_18
REMARK    4  A    between atoms: C_18  and  C_19
REMARK                            x       y       z     vdW  Elec       q    Type
REMARK                         _______ _______ _______ _____ _____    ______ ____
ROOT
ATOM      1  C   UNL     1       1.552   3.467  17.616  0.00  0.00    +0.000 C 
ATOM      2  C   UNL     1       2.931   3.954  17.377  0.00  0.00    +0.000 A 
ATOM      3  N   UNL     1       3.866   3.215  16.806  0.00  0.00    +0.000 NA
ATOM      4  C   UNL     1       4.970   4.013  16.709  0.00  0.00    +0.000 A 
ATOM      5  C   UNL     1       6.241   3.767  16.163  0.00  0.00    +0.000 A 
ATOM      6  N   UNL     1       7.234   4.708  16.139  0.00  0.00    +0.000 NA
ATOM      7  C   UNL     1       6.899   5.887  16.687  0.00  0.00    +0.000 A 
ATOM      8  N   UNL     1       7.699   6.990  16.788  0.00  0.00    +0.000 N 
ATOM      9  C   UNL     1       7.004   8.004  17.412  0.00  0.00    +0.000 A 
ATOM     10  C   UNL     1       5.728   7.549  17.709  0.00  0.00    +0.000 A 
ATOM     11  C   UNL     1       5.681   6.209  17.243  0.00  0.00    +0.000 A 
ATOM     12  C   UNL     1       4.699   5.255  17.256  0.00  0.00    +0.000 A 
ATOM     13  N   UNL     1       3.409   5.225  17.690  0.00  0.00    +0.000 N 
ATOM     14  H   UNL     1       8.650   7.027  16.451  0.00  0.00    +0.000 HD
ENDROOT
BRANCH  13  15
ATOM     15  C   UNL     1       2.651   6.321  18.272  0.00  0.00    +0.000 C 
ATOM     16  C   UNL     1       2.963   6.523  19.753  0.00  0.00    +0.000 C 
ATOM     17  C   UNL     1       1.872   7.401  20.362  0.00  0.00    +0.000 C 
ATOM     18  N   UNL     1       1.755   8.707  19.689  0.00  0.00    +0.000 NA
ATOM     19  C   UNL     1       1.631   8.598  18.223  0.00  0.00    +0.000 C 
ATOM     20  C   UNL     1       2.705   7.700  17.599  0.00  0.00    +0.000 C 
BRANCH  18  21
ATOM     21  C   UNL     1       0.594   9.459  20.219  0.00  0.00    +0.000 C 
BRANCH  21  22
ATOM     22  C   UNL     1       0.338  10.781  19.528  0.00  0.00    +0.000 A 
ATOM     23  C   UNL     1      -0.862  11.006  18.837  0.00  0.00    +0.000 A 
ATOM     24  C   UNL     1      -1.100  12.231  18.212  0.00  0.00    +0.000 A 
ATOM     25  C   UNL     1      -0.145  13.245  18.273  0.00  0.00    +0.000 A 
ATOM     26  C   UNL     1       1.054  13.031  18.951  0.00  0.00    +0.000 A 
ATOM     27  C   UNL     1       1.296  11.806  19.573  0.00  0.00    +0.000 A 
ENDBRANCH  21  22
ENDBRANCH  18  21
ENDBRANCH  13  15
TORSDOF 3
ENDMDL
MODEL 7
REMARK VINA RESULT:      -7.0      2.688      8.431
REMARK  Name = 
REMARK  4 active torsions:
REMARK  status: ('A' for Active; 'I' for Inactive)
REMARK    1  A    between atoms: C_1  and  C_2
REMARK    2  A    between atoms: N_13  and  C_14
REMARK    3  A    between atoms: N_17  and  C_18
REMARK    4  A    between atoms: C_18  and  C_19
REMARK                            x       y       z     vdW  Elec       q    Type
REMARK                         _______ _______ _______ _____ _____    ______ ____
ROOT
ATOM      1  C   UNL     1       1.467   9.523  22.886  0.00  0.00    +0.000 C 
ATOM      2  C   UNL     1       0.477  10.142  21.974  0.00  0.00    +0.000 A 
ATOM      3  N   UNL     1      -0.292  11.155  22.329  0.00  0.00    +0.000 NA
ATOM      4  C   UNL     1      -1.023  11.481  21.221  0.00  0.00    +0.000 A 
ATOM      5  C   UNL     1      -1.974  12.492  21.007  0.00  0.00    +0.000 A 
ATOM      6  N   UNL     1      -2.601  12.680  19.806  0.00  0.00    +0.000 NA
ATOM      7  C   UNL     1      -2.238  11.814  18.846  0.00  0.00    +0.000 A 
ATOM      8  N   UNL     1      -2.707  11.785  17.562  0.00  0.00    +0.000 N 
ATOM      9  C   UNL     1      -2.100  10.753  16.877  0.00  0.00    +0.000 A 
ATOM     10  C   UNL     1      -1.216  10.113  17.732  0.00  0.00    +0.000 A 
ATOM     11  C   UNL     1      -1.318  10.797  18.972  0.00  0.00    +0.000 A 
ATOM     12  C   UNL     1      -0.700  10.626  20.181  0.00  0.00    +0.000 A 
ATOM     13  N   UNL     1       0.246   9.767  20.651  0.00  0.00    +0.000 N 
ATOM     14  H   UNL     1      -3.393  12.430  17.199  0.00  0.00    +0.000 HD
ENDROOT
BRANCH  13  15
ATOM     15  C   UNL     1       0.945   8.734  19.905  0.00  0.00    +0.000 C 
ATOM     16  C   UNL     1       1.952   9.311  18.913  0.00  0.00    +0.000 C 
ATOM     17  C   UNL     1       2.342   8.215  17.924  0.00  0.00    +0.000 C 
ATOM     18  N   UNL     1       2.914   7.031  18.590  0.00  0.00    +0.000 NA
ATOM     19  C   UNL     1       2.075   6.518  19.690  0.00  0.00    +0.000 C 
ATOM     20  C   UNL     1       1.654   7.612  20.679  0.00  0.00    +0.000 C 
BRANCH  18  21
ATOM     21  C   UNL     1       3.139   5.946  17.607  0.00  0.00    +0.000 C 
BRANCH  21  22
ATOM     22  C   UNL     1       2.812   4.560  18.121  0.00  0.00    +0.000 A 
ATOM     23  C   UNL     1       3.791   3.786  18.761  0.00  0.00    +0.000 A 
ATOM     24  C   UNL     1       3.482   2.513  19.245  0.00  0.00    +0.000 A 
ATOM     25  C   UNL     1       2.194   2.003  19.098  0.00  0.00    +0.000 A 
ATOM     26  C   UNL     1       1.214   2.759  18.457  0.00  0.00    +0.000 A 
ATOM     27  C   UNL     1       1.521   4.030  17.969  0.00  0.00    +0.000 A 
ENDBRANCH  21  22
ENDBRANCH  18  21
ENDBRANCH  13  15
TORSDOF 3
ENDMDL
MODEL 8
REMARK VINA RESULT:      -7.0      1.640      3.874
REMARK  Name = 
REMARK  4 active torsions:
REMARK  status: ('A' for Active; 'I' for Inactive)
REMARK    1  A    between atoms: C_1  and  C_2
REMARK    2  A    between atoms: N_13  and  C_14
REMARK    3  A    between atoms: N_17  and  C_18
REMARK    4  A    between atoms: C_18  and  C_19
REMARK                            x       y       z     vdW  Elec       q    Type
REMARK                         _______ _______ _______ _____ _____    ______ ____
ROOT
ATOM      1  C   UNL     1       5.311   7.380  17.026  0.00  0.00    +0.000 C 
ATOM      2  C   UNL     1       4.685   6.060  17.273  0.00  0.00    +0.000 A 
ATOM      3  N   UNL     1       5.277   4.917  16.978  0.00  0.00    +0.000 NA
ATOM      4  C   UNL     1       4.426   3.933  17.395  0.00  0.00    +0.000 A 
ATOM      5  C   UNL     1       4.548   2.534  17.364  0.00  0.00    +0.000 A 
ATOM      6  N   UNL     1       3.583   1.693  17.850  0.00  0.00    +0.000 NA
ATOM      7  C   UNL     1       2.505   2.315  18.355  0.00  0.00    +0.000 A 
ATOM      8  N   UNL     1       1.407   1.713  18.904  0.00  0.00    +0.000 N 
ATOM      9  C   UNL     1       0.511   2.680  19.309  0.00  0.00    +0.000 A 
ATOM     10  C   UNL     1       1.046   3.927  19.025  0.00  0.00    +0.000 A 
ATOM     11  C   UNL     1       2.307   3.676  18.422  0.00  0.00    +0.000 A 
ATOM     12  C   UNL     1       3.284   4.500  17.932  0.00  0.00    +0.000 A 
ATOM     13  N   UNL     1       3.434   5.851  17.852  0.00  0.00    +0.000 N 
ATOM     14  H   UNL     1       1.296   0.713  18.985  0.00  0.00    +0.000 HD
ENDROOT
BRANCH  13  15
ATOM     15  C   UNL     1       2.526   6.869  18.355  0.00  0.00    +0.000 C 
ATOM     16  C   UNL     1       2.688   7.105  19.854  0.00  0.00    +0.000 C 
ATOM     17  C   UNL     1       1.470   7.875  20.358  0.00  0.00    +0.000 C 
ATOM     18  N   UNL     1       1.286   9.162  19.663  0.00  0.00    +0.000 NA
ATOM     19  C   UNL     1       1.300   9.037  18.193  0.00  0.00    +0.000 C 
ATOM     20  C   UNL     1       2.506   8.245  17.673  0.00  0.00    +0.000 C 
BRANCH  18  21
ATOM     21  C   UNL     1       0.017   9.798  20.083  0.00  0.00    +0.000 C 
BRANCH  21  22
ATOM     22  C   UNL     1       0.178  11.184  20.670  0.00  0.00    +0.000 A 
ATOM     23  C   UNL     1       1.214  12.026  20.241  0.00  0.00    +0.000 A 
ATOM     24  C   UNL     1       1.352  13.308  20.775  0.00  0.00    +0.000 A 
ATOM     25  C   UNL     1       0.455  13.764  21.739  0.00  0.00    +0.000 A 
ATOM     26  C   UNL     1      -0.575  12.935  22.179  0.00  0.00    +0.000 A 
ATOM     27  C   UNL     1      -0.712  11.651  21.650  0.00  0.00    +0.000 A 
ENDBRANCH  21  22
ENDBRANCH  18  21
ENDBRANCH  13  15
TORSDOF 3
ENDMDL
MODEL 9
REMARK VINA RESULT:      -6.9      3.558      8.622
REMARK  Name = 
REMARK  4 active torsions:
REMARK  status: ('A' for Active; 'I' for Inactive)
REMARK    1  A    between atoms: C_1  and  C_2
REMARK    2  A    between atoms: N_13  and  C_14
REMARK    3  A    between atoms: N_17  and  C_18
REMARK    4  A    between atoms: C_18  and  C_19
REMARK                            x       y       z     vdW  Elec       q    Type
REMARK                         _______ _______ _______ _____ _____    ______ ____
ROOT
ATOM      1  C   UNL     1      -1.225  10.865  23.086  0.00  0.00    +0.000 C 
ATOM      2  C   UNL     1      -0.622  11.964  22.295  0.00  0.00    +0.000 A 
ATOM      3  N   UNL     1      -0.907  13.238  22.501  0.00  0.00    +0.000 NA
ATOM      4  C   UNL     1      -0.126  13.944  21.630  0.00  0.00    +0.000 A 
ATOM      5  C   UNL     1       0.011  15.327  21.427  0.00  0.00    +0.000 A 
ATOM      6  N   UNL     1       0.868  15.861  20.504  0.00  0.00    +0.000 NA
ATOM      7  C   UNL     1       1.566  14.955  19.801  0.00  0.00    +0.000 A 
ATOM      8  N   UNL     1       2.488  15.220  18.827  0.00  0.00    +0.000 N 
ATOM      9  C   UNL     1       2.988  14.033  18.336  0.00  0.00    +0.000 A 
ATOM     10  C   UNL     1       2.387  12.984  19.015  0.00  0.00    +0.000 A 
ATOM     11  C   UNL     1       1.491  13.586  19.936  0.00  0.00    +0.000 A 
ATOM     12  C   UNL     1       0.629  13.071  20.866  0.00  0.00    +0.000 A 
ATOM     13  N   UNL     1       0.315  11.811  21.275  0.00  0.00    +0.000 N 
ATOM     14  H   UNL     1       2.740  16.152  18.531  0.00  0.00    +0.000 HD
ENDROOT
BRANCH  13  15
ATOM     15  C   UNL     1       0.905  10.564  20.816  0.00  0.00    +0.000 C 
ATOM     16  C   UNL     1       0.713   9.426  21.815  0.00  0.00    +0.000 C 
ATOM     17  C   UNL     1       1.671   8.295  21.451  0.00  0.00    +0.000 C 
ATOM     18  N   UNL     1       1.466   7.799  20.078  0.00  0.00    +0.000 NA
ATOM     19  C   UNL     1       1.459   8.873  19.066  0.00  0.00    +0.000 C 
ATOM     20  C   UNL     1       0.519  10.028  19.429  0.00  0.00    +0.000 C 
BRANCH  18  21
ATOM     21  C   UNL     1       2.510   6.809  19.726  0.00  0.00    +0.000 C 
BRANCH  21  22
ATOM     22  C   UNL     1       1.988   5.406  19.498  0.00  0.00    +0.000 A 
ATOM     23  C   UNL     1       1.466   4.657  20.562  0.00  0.00    +0.000 A 
ATOM     24  C   UNL     1       0.974   3.368  20.347  0.00  0.00    +0.000 A 
ATOM     25  C   UNL     1       0.995   2.817  19.068  0.00  0.00    +0.000 A 
ATOM     26  C   UNL     1       1.517   3.549  18.003  0.00  0.00    +0.000 A 
ATOM     27  C   UNL     1       2.013   4.835  18.216  0.00  0.00    +0.000 A 
ENDBRANCH  21  22
ENDBRANCH  18  21
ENDBRANCH  13  15
TORSDOF 3
ENDMDL
