MODEL 1
REMARK VINA RESULT:      -7.6      0.000      0.000
REMARK  Name = 
REMARK  4 active torsions:
REMARK  status: ('A' for Active; 'I' for Inactive)
REMARK    1  A    between atoms: C_1  and  C_2
REMARK    2  A    between atoms: C_5  and  C_6
REMARK    3  A    between atoms: N_8  and  C_9
REMARK    4  A    between atoms: C_12  and  C_13
REMARK                            x       y       z     vdW  Elec       q    Type
REMARK                         _______ _______ _______ _____ _____    ______ ____
ROOT
ATOM      1  C   UNL     1       1.486   8.560  19.512  0.00  0.00    +0.000 A 
ATOM      2  C   UNL     1       1.845   7.402  20.208  0.00  0.00    +0.000 A 
ATOM      3  C   UNL     1       2.759   6.491  19.673  0.00  0.00    +0.000 A 
ATOM      4  C   UNL     1       3.337   6.711  18.420  0.00  0.00    +0.000 A 
ATOM      5  C   UNL     1       3.013   7.894  17.741  0.00  0.00    +0.000 A 
ATOM      6  C   UNL     1       2.083   8.800  18.272  0.00  0.00    +0.000 A 
ENDROOT
BRANCH   4   7
ATOM      7  C   UNL     1       4.215   5.632  17.808  0.00  0.00    +0.000 C 
ATOM      8  C   UNL     1       4.916   6.169  16.548  0.00  0.00    +0.000 C 
ATOM      9  C   UNL     1       5.892   5.149  15.974  0.00  0.00    +0.000 C 
ATOM     10  C   UNL     1       6.842   4.630  17.049  0.00  0.00    +0.000 C 
ATOM     11  N   UNL     1       6.101   4.040  18.164  0.00  0.00    +0.000 NA
ATOM     12  C   UNL     1       5.225   5.032  18.805  0.00  0.00    +0.000 C 
ATOM     13  H   UNL     1       6.757   3.673  18.853  0.00  0.00    +0.000 HD
ENDBRANCH   4   7
BRANCH   1  16
ATOM     14  C   UNL     1       0.543  10.064  21.253  0.00  0.00    +0.000 C 
ATOM     15  O   UNL     1       1.427   9.940  22.097  0.00  0.00    +0.000 OA
ATOM     16  N   UNL     1       0.526   9.483  19.996  0.00  0.00    +0.000 N 
ATOM     17  H   UNL     1      -0.159   9.813  19.326  0.00  0.00    +0.000 HD
BRANCH  14  22
ATOM     18  C   UNL     1      -3.967  13.128  22.969  0.00  0.00    +0.000 C 
ATOM     19  C   UNL     1      -2.761  12.404  22.454  0.00  0.00    +0.000 A 
ATOM     20  C   UNL     1      -2.353  12.511  21.125  0.00  0.00    +0.000 A 
ATOM     21  C   UNL     1      -1.241  11.784  20.690  0.00  0.00    +0.000 A 
ATOM     22  C   UNL     1      -0.576  10.963  21.602  0.00  0.00    +0.000 A 
ATOM     23  C   UNL     1      -1.056  10.911  22.903  0.00  0.00    +0.000 A 
ATOM     24  N   UNL     1      -2.118  11.621  23.349  0.00  0.00    +0.000 NA
ENDBRANCH  14  22
ENDBRANCH   1  16
TORSDOF 3
ENDMDL
MODEL 2
REMARK VINA RESULT:      -7.6      0.646      1.046
REMARK  Name = 
REMARK  4 active torsions:
REMARK  status: ('A' for Active; 'I' for Inactive)
REMARK    1  A    between atoms: C_1  and  C_2
REMARK    2  A    between atoms: C_5  and  C_6
REMARK    3  A    between atoms: N_8  and  C_9
REMARK    4  A    between atoms: C_12  and  C_13
REMARK                            x       y       z     vdW  Elec       q    Type
REMARK                         _______ _______ _______ _____ _____    ______ ____
ROOT
ATOM      1  C   UNL     1       1.478   8.466  19.564  0.00  0.00    +0.000 A 
ATOM      2  C   UNL     1       1.864   7.307  20.241  0.00  0.00    +0.000 A 
ATOM      3  C   UNL     1       2.792   6.422  19.688  0.00  0.00    +0.000 A 
ATOM      4  C   UNL     1       3.359   6.670  18.435  0.00  0.00    +0.000 A 
ATOM      5  C   UNL     1       3.006   7.856  17.774  0.00  0.00    +0.000 A 
ATOM      6  C   UNL     1       2.062   8.736  18.324  0.00  0.00    +0.000 A 
ENDROOT
BRANCH   4   7
ATOM      7  C   UNL     1       4.254   5.618  17.803  0.00  0.00    +0.000 C 
ATOM      8  C   UNL     1       4.987   6.206  16.584  0.00  0.00    +0.000 C 
ATOM      9  C   UNL     1       5.979   5.211  15.995  0.00  0.00    +0.000 C 
ATOM     10  C   UNL     1       6.901   4.649  17.073  0.00  0.00    +0.000 C 
ATOM     11  N   UNL     1       6.133   4.015  18.143  0.00  0.00    +0.000 NA
ATOM     12  C   UNL     1       5.239   4.979  18.801  0.00  0.00    +0.000 C 
ATOM     13  H   UNL     1       6.772   3.620  18.833  0.00  0.00    +0.000 HD
ENDBRANCH   4   7
BRANCH   1  16
ATOM     14  C   UNL     1       0.518   9.930  21.330  0.00  0.00    +0.000 C 
ATOM     15  O   UNL     1       1.411   9.816  22.164  0.00  0.00    +0.000 OA
ATOM     16  N   UNL     1       0.502   9.363  20.066  0.00  0.00    +0.000 N 
ATOM     17  H   UNL     1      -0.195   9.687  19.406  0.00  0.00    +0.000 HD
BRANCH  14  22
ATOM     18  C   UNL     1      -3.671  13.680  22.362  0.00  0.00    +0.000 C 
ATOM     19  C   UNL     1      -2.615  12.636  22.166  0.00  0.00    +0.000 A 
ATOM     20  C   UNL     1      -2.124  11.880  23.230  0.00  0.00    +0.000 A 
ATOM     21  C   UNL     1      -1.111  10.945  22.996  0.00  0.00    +0.000 A 
ATOM     22  C   UNL     1      -0.617  10.801  21.698  0.00  0.00    +0.000 A 
ATOM     23  C   UNL     1      -1.159  11.601  20.702  0.00  0.00    +0.000 A 
ATOM     24  N   UNL     1      -2.151  12.498  20.903  0.00  0.00    +0.000 NA
ENDBRANCH  14  22
ENDBRANCH   1  16
TORSDOF 3
ENDMDL
MODEL 3
REMARK VINA RESULT:      -7.6      0.504      1.140
REMARK  Name = 
REMARK  4 active torsions:
REMARK  status: ('A' for Active; 'I' for Inactive)
REMARK    1  A    between atoms: C_1  and  C_2
REMARK    2  A    between atoms: C_5  and  C_6
REMARK    3  A    between atoms: N_8  and  C_9
REMARK    4  A    between atoms: C_12  and  C_13
REMARK                            x       y       z     vdW  Elec       q    Type
REMARK                         _______ _______ _______ _____ _____    ______ ____
ROOT
ATOM      1  C   UNL     1       1.575   8.503  19.347  0.00  0.00    +0.000 A 
ATOM      2  C   UNL     1       2.216   8.718  18.125  0.00  0.00    +0.000 A 
ATOM      3  C   UNL     1       3.156   7.810  17.631  0.00  0.00    +0.000 A 
ATOM      4  C   UNL     1       3.485   6.659  18.352  0.00  0.00    +0.000 A 
ATOM      5  C   UNL     1       2.809   6.418  19.557  0.00  0.00    +0.000 A 
ATOM      6  C   UNL     1       1.878   7.340  20.059  0.00  0.00    +0.000 A 
ENDROOT
BRANCH   4   7
ATOM      7  C   UNL     1       4.612   5.768  17.855  0.00  0.00    +0.000 C 
ATOM      8  C   UNL     1       5.669   6.609  17.118  0.00  0.00    +0.000 C 
ATOM      9  C   UNL     1       6.868   5.763  16.707  0.00  0.00    +0.000 C 
ATOM     10  C   UNL     1       7.411   4.967  17.890  0.00  0.00    +0.000 C 
ATOM     11  N   UNL     1       6.374   4.115  18.469  0.00  0.00    +0.000 NA
ATOM     12  C   UNL     1       5.247   4.914  18.970  0.00  0.00    +0.000 C 
ATOM     13  H   UNL     1       6.769   3.571  19.236  0.00  0.00    +0.000 HD
ENDBRANCH   4   7
BRANCH   1  16
ATOM     14  C   UNL     1       0.715   9.922  21.199  0.00  0.00    +0.000 C 
ATOM     15  O   UNL     1       1.609   9.716  22.014  0.00  0.00    +0.000 OA
ATOM     16  N   UNL     1       0.655   9.423  19.907  0.00  0.00    +0.000 N 
ATOM     17  H   UNL     1      -0.030   9.819  19.274  0.00  0.00    +0.000 HD
BRANCH  14  22
ATOM     18  C   UNL     1      -3.685  13.000  23.158  0.00  0.00    +0.000 C 
ATOM     19  C   UNL     1      -2.502  12.278  22.591  0.00  0.00    +0.000 A 
ATOM     20  C   UNL     1      -2.040  12.528  21.299  0.00  0.00    +0.000 A 
ATOM     21  C   UNL     1      -0.953  11.799  20.807  0.00  0.00    +0.000 A 
ATOM     22  C   UNL     1      -0.366  10.833  21.626  0.00  0.00    +0.000 A 
ATOM     23  C   UNL     1      -0.897  10.645  22.895  0.00  0.00    +0.000 A 
ATOM     24  N   UNL     1      -1.935  11.353  23.397  0.00  0.00    +0.000 NA
ENDBRANCH  14  22
ENDBRANCH   1  16
TORSDOF 3
ENDMDL
MODEL 4
REMARK VINA RESULT:      -7.5      0.915      1.557
REMARK  Name = 
REMARK  4 active torsions:
REMARK  status: ('A' for Active; 'I' for Inactive)
REMARK    1  A    between atoms: C_1  and  C_2
REMARK    2  A    between atoms: C_5  and  C_6
REMARK    3  A    between atoms: N_8  and  C_9
REMARK    4  A    between atoms: C_12  and  C_13
REMARK                            x       y       z     vdW  Elec       q    Type
REMARK                         _______ _______ _______ _____ _____    ______ ____
ROOT
ATOM      1  C   UNL     1       1.612   8.404  19.554  0.00  0.00    +0.000 A 
ATOM      2  C   UNL     1       2.206   8.581  18.302  0.00  0.00    +0.000 A 
ATOM      3  C   UNL     1       3.058   7.614  17.763  0.00  0.00    +0.000 A 
ATOM      4  C   UNL     1       3.344   6.441  18.467  0.00  0.00    +0.000 A 
ATOM      5  C   UNL     1       2.713   6.241  19.703  0.00  0.00    +0.000 A 
ATOM      6  C   UNL     1       1.870   7.221  20.250  0.00  0.00    +0.000 A 
ENDROOT
BRANCH   4   7
ATOM      7  C   UNL     1       4.384   5.479  17.916  0.00  0.00    +0.000 C 
ATOM      8  C   UNL     1       5.100   6.106  16.707  0.00  0.00    +0.000 C 
ATOM      9  C   UNL     1       6.227   5.213  16.202  0.00  0.00    +0.000 C 
ATOM     10  C   UNL     1       7.157   4.803  17.340  0.00  0.00    +0.000 C 
ATOM     11  N   UNL     1       6.418   4.122  18.402  0.00  0.00    +0.000 NA
ATOM     12  C   UNL     1       5.389   4.997  18.980  0.00  0.00    +0.000 C 
ATOM     13  H   UNL     1       7.065   3.830  19.134  0.00  0.00    +0.000 HD
ENDBRANCH   4   7
BRANCH   1  16
ATOM     14  C   UNL     1       0.894   9.819  21.469  0.00  0.00    +0.000 C 
ATOM     15  O   UNL     1       1.767   9.497  22.268  0.00  0.00    +0.000 OA
ATOM     16  N   UNL     1       0.783   9.382  20.158  0.00  0.00    +0.000 N 
ATOM     17  H   UNL     1       0.135   9.865  19.547  0.00  0.00    +0.000 HD
BRANCH  14  22
ATOM     18  C   UNL     1      -2.527  14.047  23.230  0.00  0.00    +0.000 C 
ATOM     19  C   UNL     1      -1.710  12.873  22.786  0.00  0.00    +0.000 A 
ATOM     20  C   UNL     1      -1.851  11.616  23.374  0.00  0.00    +0.000 A 
ATOM     21  C   UNL     1      -1.036  10.564  22.945  0.00  0.00    +0.000 A 
ATOM     22  C   UNL     1      -0.097  10.807  21.941  0.00  0.00    +0.000 A 
ATOM     23  C   UNL     1      -0.020  12.090  21.418  0.00  0.00    +0.000 A 
ATOM     24  N   UNL     1      -0.812  13.117  21.805  0.00  0.00    +0.000 NA
ENDBRANCH  14  22
ENDBRANCH   1  16
TORSDOF 3
ENDMDL
MODEL 5
REMARK VINA RESULT:      -7.4      6.712      8.730
REMARK  Name = 
REMARK  4 active torsions:
REMARK  status: ('A' for Active; 'I' for Inactive)
REMARK    1  A    between atoms: C_1  and  C_2
REMARK    2  A    between atoms: C_5  and  C_6
REMARK    3  A    between atoms: N_8  and  C_9
REMARK    4  A    between atoms: C_12  and  C_13
REMARK                            x       y       z     vdW  Elec       q    Type
REMARK                         _______ _______ _______ _____ _____    ______ ____
ROOT
ATOM      1  C   UNL     1       7.854   8.157  17.829  0.00  0.00    +0.000 A 
ATOM      2  C   UNL     1       8.305   7.137  18.670  0.00  0.00    +0.000 A 
ATOM      3  C   UNL     1       7.555   5.974  18.861  0.00  0.00    +0.000 A 
ATOM      4  C   UNL     1       6.328   5.800  18.218  0.00  0.00    +0.000 A 
ATOM      5  C   UNL     1       5.895   6.804  17.338  0.00  0.00    +0.000 A 
ATOM      6  C   UNL     1       6.641   7.978  17.160  0.00  0.00    +0.000 A 
ENDROOT
BRANCH   4   7
ATOM      7  C   UNL     1       5.474   4.590  18.558  0.00  0.00    +0.000 C 
ATOM      8  C   UNL     1       4.293   5.007  19.452  0.00  0.00    +0.000 C 
ATOM      9  C   UNL     1       3.354   3.836  19.718  0.00  0.00    +0.000 C 
ATOM     10  C   UNL     1       2.947   3.151  18.417  0.00  0.00    +0.000 C 
ATOM     11  N   UNL     1       4.121   2.690  17.677  0.00  0.00    +0.000 NA
ATOM     12  C   UNL     1       4.996   3.814  17.315  0.00  0.00    +0.000 C 
ATOM     13  H   UNL     1       3.822   2.209  16.829  0.00  0.00    +0.000 HD
ENDBRANCH   4   7
BRANCH   1  16
ATOM     14  C   UNL     1       9.036  10.177  18.671  0.00  0.00    +0.000 C 
ATOM     15  O   UNL     1       9.001   9.919  19.871  0.00  0.00    +0.000 OA
ATOM     16  N   UNL     1       8.558   9.374  17.648  0.00  0.00    +0.000 N 
ATOM     17  H   UNL     1       8.817   9.608  16.697  0.00  0.00    +0.000 HD
BRANCH  14  22
ATOM     18  C   UNL     1      11.101  15.219  16.945  0.00  0.00    +0.000 C 
ATOM     19  C   UNL     1      10.655  13.877  17.438  0.00  0.00    +0.000 A 
ATOM     20  C   UNL     1      11.515  12.779  17.458  0.00  0.00    +0.000 A 
ATOM     21  C   UNL     1      11.034  11.541  17.894  0.00  0.00    +0.000 A 
ATOM     22  C   UNL     1       9.699  11.440  18.290  0.00  0.00    +0.000 A 
ATOM     23  C   UNL     1       8.914  12.582  18.230  0.00  0.00    +0.000 A 
ATOM     24  N   UNL     1       9.364  13.794  17.830  0.00  0.00    +0.000 NA
ENDBRANCH  14  22
ENDBRANCH   1  16
TORSDOF 3
ENDMDL
MODEL 6
REMARK VINA RESULT:      -7.4      1.531      2.302
REMARK  Name = 
REMARK  4 active torsions:
REMARK  status: ('A' for Active; 'I' for Inactive)
REMARK    1  A    between atoms: C_1  and  C_2
REMARK    2  A    between atoms: C_5  and  C_6
REMARK    3  A    between atoms: N_8  and  C_9
REMARK    4  A    between atoms: C_12  and  C_13
REMARK                            x       y       z     vdW  Elec       q    Type
REMARK                         _______ _______ _______ _____ _____    ______ ____
ROOT
ATOM      1  C   UNL     1       2.362   7.275  19.369  0.00  0.00    +0.000 A 
ATOM      2  C   UNL     1       2.978   7.767  18.216  0.00  0.00    +0.000 A 
ATOM      3  C   UNL     1       3.856   6.975  17.471  0.00  0.00    +0.000 A 
ATOM      4  C   UNL     1       4.146   5.666  17.863  0.00  0.00    +0.000 A 
ATOM      5  C   UNL     1       3.493   5.155  18.995  0.00  0.00    +0.000 A 
ATOM      6  C   UNL     1       2.625   5.957  19.751  0.00  0.00    +0.000 A 
ENDROOT
BRANCH   4   7
ATOM      7  C   UNL     1       5.211   4.884  17.113  0.00  0.00    +0.000 C 
ATOM      8  C   UNL     1       4.800   4.703  15.641  0.00  0.00    +0.000 C 
ATOM      9  C   UNL     1       5.899   4.022  14.834  0.00  0.00    +0.000 C 
ATOM     10  C   UNL     1       7.240   4.722  15.030  0.00  0.00    +0.000 C 
ATOM     11  N   UNL     1       7.610   4.760  16.444  0.00  0.00    +0.000 NA
ATOM     12  C   UNL     1       6.617   5.503  17.234  0.00  0.00    +0.000 C 
ATOM     13  H   UNL     1       8.523   5.203  16.546  0.00  0.00    +0.000 HD
ENDBRANCH   4   7
BRANCH   1  16
ATOM     14  C   UNL     1       0.845   9.205  19.764  0.00  0.00    +0.000 C 
ATOM     15  O   UNL     1       0.827   9.657  18.624  0.00  0.00    +0.000 OA
ATOM     16  N   UNL     1       1.507   8.061  20.180  0.00  0.00    +0.000 N 
ATOM     17  H   UNL     1       1.288   7.689  21.098  0.00  0.00    +0.000 HD
BRANCH  14  22
ATOM     18  C   UNL     1      -2.118  12.487  23.387  0.00  0.00    +0.000 C 
ATOM     19  C   UNL     1      -1.373  11.544  22.493  0.00  0.00    +0.000 A 
ATOM     20  C   UNL     1      -0.777  10.382  22.985  0.00  0.00    +0.000 A 
ATOM     21  C   UNL     1      -0.063   9.557  22.112  0.00  0.00    +0.000 A 
ATOM     22  C   UNL     1       0.037   9.926  20.769  0.00  0.00    +0.000 A 
ATOM     23  C   UNL     1      -0.580  11.102  20.369  0.00  0.00    +0.000 A 
ATOM     24  N   UNL     1      -1.292  11.905  21.193  0.00  0.00    +0.000 NA
ENDBRANCH  14  22
ENDBRANCH   1  16
TORSDOF 3
ENDMDL
MODEL 7
REMARK VINA RESULT:      -7.3      1.167      1.559
REMARK  Name = 
REMARK  4 active torsions:
REMARK  status: ('A' for Active; 'I' for Inactive)
REMARK    1  A    between atoms: C_1  and  C_2
REMARK    2  A    between atoms: C_5  and  C_6
REMARK    3  A    between atoms: N_8  and  C_9
REMARK    4  A    between atoms: C_12  and  C_13
REMARK                            x       y       z     vdW  Elec       q    Type
REMARK                         _______ _______ _______ _____ _____    ______ ____
ROOT
ATOM      1  C   UNL     1       1.620   8.683  19.555  0.00  0.00    +0.000 A 
ATOM      2  C   UNL     1       2.064   8.895  18.247  0.00  0.00    +0.000 A 
ATOM      3  C   UNL     1       2.787   7.916  17.562  0.00  0.00    +0.000 A 
ATOM      4  C   UNL     1       3.093   6.696  18.170  0.00  0.00    +0.000 A 
ATOM      5  C   UNL     1       2.609   6.464  19.466  0.00  0.00    +0.000 A 
ATOM      6  C   UNL     1       1.897   7.455  20.159  0.00  0.00    +0.000 A 
ENDROOT
BRANCH   4   7
ATOM      7  C   UNL     1       4.001   5.713  17.450  0.00  0.00    +0.000 C 
ATOM      8  C   UNL     1       4.877   6.453  16.423  0.00  0.00    +0.000 C 
ATOM      9  C   UNL     1       5.879   5.513  15.765  0.00  0.00    +0.000 C 
ATOM     10  C   UNL     1       6.665   4.726  16.809  0.00  0.00    +0.000 C 
ATOM     11  N   UNL     1       5.767   3.968  17.679  0.00  0.00    +0.000 NA
ATOM     12  C   UNL     1       4.854   4.859  18.408  0.00  0.00    +0.000 C 
ATOM     13  H   UNL     1       6.316   3.426  18.346  0.00  0.00    +0.000 HD
ENDBRANCH   4   7
BRANCH   1  16
ATOM     14  C   UNL     1      -0.273  10.251  19.932  0.00  0.00    +0.000 C 
ATOM     15  O   UNL     1      -0.957   9.946  18.959  0.00  0.00    +0.000 OA
ATOM     16  N   UNL     1       0.928   9.669  20.302  0.00  0.00    +0.000 N 
ATOM     17  H   UNL     1       1.296   9.876  21.224  0.00  0.00    +0.000 HD
BRANCH  14  22
ATOM     18  C   UNL     1      -2.322  13.947  23.781  0.00  0.00    +0.000 C 
ATOM     19  C   UNL     1      -1.802  13.052  22.699  0.00  0.00    +0.000 A 
ATOM     20  C   UNL     1      -2.334  13.073  21.410  0.00  0.00    +0.000 A 
ATOM     21  C   UNL     1      -1.834  12.189  20.448  0.00  0.00    +0.000 A 
ATOM     22  C   UNL     1      -0.818  11.304  20.813  0.00  0.00    +0.000 A 
ATOM     23  C   UNL     1      -0.354  11.348  22.120  0.00  0.00    +0.000 A 
ATOM     24  N   UNL     1      -0.810  12.207  23.060  0.00  0.00    +0.000 NA
ENDBRANCH  14  22
ENDBRANCH   1  16
TORSDOF 3
ENDMDL
MODEL 8
REMARK VINA RESULT:      -7.3      2.462      4.204
REMARK  Name = 
REMARK  4 active torsions:
REMARK  status: ('A' for Active; 'I' for Inactive)
REMARK    1  A    between atoms: C_1  and  C_2
REMARK    2  A    between atoms: C_5  and  C_6
REMARK    3  A    between atoms: N_8  and  C_9
REMARK    4  A    between atoms: C_12  and  C_13
REMARK                            x       y       z     vdW  Elec       q    Type
REMARK                         _______ _______ _______ _____ _____    ______ ____
ROOT
ATOM      1  C   UNL     1       3.755   6.215  17.798  0.00  0.00    +0.000 A 
ATOM      2  C   UNL     1       3.554   4.890  17.401  0.00  0.00    +0.000 A 
ATOM      3  C   UNL     1       4.377   4.291  16.443  0.00  0.00    +0.000 A 
ATOM      4  C   UNL     1       5.422   5.003  15.851  0.00  0.00    +0.000 A 
ATOM      5  C   UNL     1       5.653   6.318  16.282  0.00  0.00    +0.000 A 
ATOM      6  C   UNL     1       4.816   6.924  17.231  0.00  0.00    +0.000 A 
ENDROOT
BRANCH   4   7
ATOM      7  C   UNL     1       6.204   4.368  14.714  0.00  0.00    +0.000 C 
ATOM      8  C   UNL     1       5.241   3.844  13.634  0.00  0.00    +0.000 C 
ATOM      9  C   UNL     1       5.996   3.303  12.427  0.00  0.00    +0.000 C 
ATOM     10  C   UNL     1       7.019   4.314  11.919  0.00  0.00    +0.000 C 
ATOM     11  N   UNL     1       7.962   4.682  12.974  0.00  0.00    +0.000 NA
ATOM     12  C   UNL     1       7.271   5.303  14.113  0.00  0.00    +0.000 C 
ATOM     13  H   UNL     1       8.653   5.333  12.602  0.00  0.00    +0.000 HD
ENDBRANCH   4   7
BRANCH   1  16
ATOM     14  C   UNL     1       2.255   8.072  18.492  0.00  0.00    +0.000 C 
ATOM     15  O   UNL     1       2.227   8.689  17.431  0.00  0.00    +0.000 OA
ATOM     16  N   UNL     1       2.913   6.876  18.727  0.00  0.00    +0.000 N 
ATOM     17  H   UNL     1       2.703   6.374  19.581  0.00  0.00    +0.000 HD
BRANCH  14  22
ATOM     18  C   UNL     1      -0.674  10.797  22.575  0.00  0.00    +0.000 C 
ATOM     19  C   UNL     1       0.066   9.993  21.552  0.00  0.00    +0.000 A 
ATOM     20  C   UNL     1       0.719   8.805  21.883  0.00  0.00    +0.000 A 
ATOM     21  C   UNL     1       1.426   8.114  20.895  0.00  0.00    +0.000 A 
ATOM     22  C   UNL     1       1.463   8.641  19.602  0.00  0.00    +0.000 A 
ATOM     23  C   UNL     1       0.792   9.831  19.364  0.00  0.00    +0.000 A 
ATOM     24  N   UNL     1       0.086  10.506  20.301  0.00  0.00    +0.000 NA
ENDBRANCH  14  22
ENDBRANCH   1  16
TORSDOF 3
ENDMDL
MODEL 9
REMARK VINA RESULT:      -7.3      1.201      1.881
REMARK  Name = 
REMARK  4 active torsions:
REMARK  status: ('A' for Active; 'I' for Inactive)
REMARK    1  A    between atoms: C_1  and  C_2
REMARK    2  A    between atoms: C_5  and  C_6
REMARK    3  A    between atoms: N_8  and  C_9
REMARK    4  A    between atoms: C_12  and  C_13
REMARK                            x       y       z     vdW  Elec       q    Type
REMARK                         _______ _______ _______ _____ _____    ______ ____
ROOT
ATOM      1  C   UNL     1       1.915   8.229  19.144  0.00  0.00    +0.000 A 
ATOM      2  C   UNL     1       2.553   8.539  17.941  0.00  0.00    +0.000 A 
ATOM      3  C   UNL     1       3.525   7.694  17.399  0.00  0.00    +0.000 A 
ATOM      4  C   UNL     1       3.891   6.515  18.051  0.00  0.00    +0.000 A 
ATOM      5  C   UNL     1       3.219   6.179  19.236  0.00  0.00    +0.000 A 
ATOM      6  C   UNL     1       2.255   7.036  19.787  0.00  0.00    +0.000 A 
ENDROOT
BRANCH   4   7
ATOM      7  C   UNL     1       5.050   5.694  17.509  0.00  0.00    +0.000 C 
ATOM      8  C   UNL     1       4.531   4.616  16.542  0.00  0.00    +0.000 C 
ATOM      9  C   UNL     1       5.677   3.850  15.893  0.00  0.00    +0.000 C 
ATOM     10  C   UNL     1       6.700   4.802  15.282  0.00  0.00    +0.000 C 
ATOM     11  N   UNL     1       7.223   5.726  16.288  0.00  0.00    +0.000 NA
ATOM     12  C   UNL     1       6.151   6.554  16.859  0.00  0.00    +0.000 C 
ATOM     13  H   UNL     1       7.926   6.330  15.863  0.00  0.00    +0.000 HD
ENDBRANCH   4   7
BRANCH   1  16
ATOM     14  C   UNL     1       0.896   9.362  21.109  0.00  0.00    +0.000 C 
ATOM     15  O   UNL     1       1.693   8.991  21.965  0.00  0.00    +0.000 OA
ATOM     16  N   UNL     1       0.962   9.082  19.753  0.00  0.00    +0.000 N 
ATOM     17  H   UNL     1       0.357   9.602  19.128  0.00  0.00    +0.000 HD
BRANCH  14  22
ATOM     18  C   UNL     1      -3.164  13.133  22.515  0.00  0.00    +0.000 C 
ATOM     19  C   UNL     1      -2.141  12.080  22.219  0.00  0.00    +0.000 A 
ATOM     20  C   UNL     1      -1.631  11.250  23.217  0.00  0.00    +0.000 A 
ATOM     21  C   UNL     1      -0.650  10.309  22.890  0.00  0.00    +0.000 A 
ATOM     22  C   UNL     1      -0.204  10.234  21.569  0.00  0.00    +0.000 A 
ATOM     23  C   UNL     1      -0.761  11.104  20.643  0.00  0.00    +0.000 A 
ATOM     24  N   UNL     1      -1.725  12.008  20.934  0.00  0.00    +0.000 NA
ENDBRANCH  14  22
ENDBRANCH   1  16
TORSDOF 3
ENDMDL
