MODEL 1
REMARK VINA RESULT:      -7.8      0.000      0.000
REMARK  Name = 
REMARK  9 active torsions:
REMARK  status: ('A' for Active; 'I' for Inactive)
REMARK    1  A    between atoms: C_1  and  O_2
REMARK    2  A    between atoms: O_2  and  C_3
REMARK    3  A    between atoms: C_6  and  S_7
REMARK    4  A    between atoms: S_7  and  N_10
REMARK    5  A    between atoms: N_10  and  C_11
REMARK    6  A    between atoms: N_10  and  C_26
REMARK    7  A    between atoms: C_11  and  C_12
REMARK    8  A    between atoms: N_14  and  N_15
REMARK    9  A    between atoms: C_29  and  C_30
REMARK                            x       y       z     vdW  Elec       q    Type
REMARK                         _______ _______ _______ _____ _____    ______ ____
ROOT
ATOM      1  N   UNL     1       0.084  11.984  20.614  0.00  0.00    +0.000 N 
ENDROOT
BRANCH   1   2
ATOM      2  C   UNL     1       1.137  12.715  19.975  0.00  0.00    +0.000 A 
ATOM      3  C   UNL     1       1.333  12.680  18.596  0.00  0.00    +0.000 A 
ATOM      4  C   UNL     1       2.411  13.363  18.019  0.00  0.00    +0.000 A 
ATOM      5  C   UNL     1       3.320  14.061  18.817  0.00  0.00    +0.000 A 
ATOM      6  C   UNL     1       4.504  14.757  18.210  0.00  0.00    +0.000 C 
ATOM      7  C   UNL     1       3.124  14.090  20.203  0.00  0.00    +0.000 A 
ATOM      8  C   UNL     1       2.039  13.420  20.777  0.00  0.00    +0.000 A 
ENDBRANCH   1   2
BRANCH   1   9
ATOM      9  S   UNL     1      -1.513  12.546  20.393  0.00  0.00    +0.000 S 
ATOM     10  O   UNL     1      -1.443  13.921  19.949  0.00  0.00    +0.000 OA
ATOM     11  O   UNL     1      -2.293  12.204  21.567  0.00  0.00    +0.000 OA
BRANCH   9  15
ATOM     12  C   UNL     1      -3.049  10.188  16.807  0.00  0.00    +0.000 A 
ATOM     13  C   UNL     1      -1.782   9.913  17.333  0.00  0.00    +0.000 A 
ATOM     14  C   UNL     1      -1.317  10.591  18.462  0.00  0.00    +0.000 A 
ATOM     15  C   UNL     1      -2.126  11.566  19.049  0.00  0.00    +0.000 A 
ATOM     16  C   UNL     1      -3.423  11.772  18.592  0.00  0.00    +0.000 A 
ATOM     17  C   UNL     1      -3.877  11.108  17.449  0.00  0.00    +0.000 A 
BRANCH  12  19
ATOM     18  C   UNL     1      -2.973  10.143  14.438  0.00  0.00    +0.000 C 
ATOM     19  O   UNL     1      -3.353   9.513  15.656  0.00  0.00    +0.000 OA
ENDBRANCH  12  19
ENDBRANCH   9  15
ENDBRANCH   1   9
BRANCH   1  20
ATOM     20  C   UNL     1       0.385  11.076  21.742  0.00  0.00    +0.000 C 
BRANCH  20  21
ATOM     21  C   UNL     1       0.264   9.573  21.521  0.00  0.00    +0.000 C 
ATOM     22  O   UNL     1      -0.695   8.916  21.895  0.00  0.00    +0.000 OA
ATOM     23  N   UNL     1       1.349   9.069  20.817  0.00  0.00    +0.000 N 
ATOM     24  H   UNL     1       2.031   9.726  20.439  0.00  0.00    +0.000 HD
BRANCH  23  25
ATOM     25  N   UNL     1       1.622   7.725  20.707  0.00  0.00    +0.000 NA
ATOM     26  C   UNL     1       2.175   7.397  19.576  0.00  0.00    +0.000 C 
ATOM     27  C   UNL     1       2.372   8.317  18.358  0.00  0.00    +0.000 C 
ATOM     28  O   UNL     1       2.183   9.514  18.360  0.00  0.00    +0.000 OA
ATOM     29  N   UNL     1       2.895   7.524  17.369  0.00  0.00    +0.000 N 
ATOM     30  C   UNL     1       3.267   6.294  17.898  0.00  0.00    +0.000 A 
ATOM     31  C   UNL     1       4.128   5.393  17.310  0.00  0.00    +0.000 A 
ATOM     32  C   UNL     1       4.533   4.303  18.084  0.00  0.00    +0.000 A 
ATOM     33  C   UNL     1       4.014   4.101  19.381  0.00  0.00    +0.000 A 
ATOM     34  C   UNL     1       3.118   5.013  19.954  0.00  0.00    +0.000 A 
ATOM     35  C   UNL     1       2.796   6.125  19.204  0.00  0.00    +0.000 A 
ATOM     36  H   UNL     1       3.153   7.881  16.461  0.00  0.00    +0.000 HD
ENDBRANCH  23  25
ENDBRANCH  20  21
ENDBRANCH   1  20
TORSDOF 7
ENDMDL
MODEL 2
REMARK VINA RESULT:      -7.7      2.398      3.498
REMARK  Name = 
REMARK  9 active torsions:
REMARK  status: ('A' for Active; 'I' for Inactive)
REMARK    1  A    between atoms: C_1  and  O_2
REMARK    2  A    between atoms: O_2  and  C_3
REMARK    3  A    between atoms: C_6  and  S_7
REMARK    4  A    between atoms: S_7  and  N_10
REMARK    5  A    between atoms: N_10  and  C_11
REMARK    6  A    between atoms: N_10  and  C_26
REMARK    7  A    between atoms: C_11  and  C_12
REMARK    8  A    between atoms: N_14  and  N_15
REMARK    9  A    between atoms: C_29  and  C_30
REMARK                            x       y       z     vdW  Elec       q    Type
REMARK                         _______ _______ _______ _____ _____    ______ ____
ROOT
ATOM      1  N   UNL     1       0.810  11.081  20.997  0.00  0.00    +0.000 N 
ENDROOT
BRANCH   1   2
ATOM      2  C   UNL     1      -0.139  11.865  21.731  0.00  0.00    +0.000 A 
ATOM      3  C   UNL     1       0.002  13.242  21.890  0.00  0.00    +0.000 A 
ATOM      4  C   UNL     1      -0.917  13.960  22.664  0.00  0.00    +0.000 A 
ATOM      5  C   UNL     1      -1.967  13.305  23.311  0.00  0.00    +0.000 A 
ATOM      6  C   UNL     1      -2.930  14.063  24.180  0.00  0.00    +0.000 C 
ATOM      7  C   UNL     1      -2.103  11.921  23.156  0.00  0.00    +0.000 A 
ATOM      8  C   UNL     1      -1.193  11.206  22.370  0.00  0.00    +0.000 A 
ENDBRANCH   1   2
BRANCH   1   9
ATOM      9  S   UNL     1       0.895  11.321  19.309  0.00  0.00    +0.000 S 
ATOM     10  O   UNL     1       1.636  10.217  18.741  0.00  0.00    +0.000 OA
ATOM     11  O   UNL     1       1.318  12.684  19.054  0.00  0.00    +0.000 OA
BRANCH   9  15
ATOM     12  C   UNL     1      -3.477  10.847  18.107  0.00  0.00    +0.000 A 
ATOM     13  C   UNL     1      -3.036  12.043  18.683  0.00  0.00    +0.000 A 
ATOM     14  C   UNL     1      -1.691  12.224  19.011  0.00  0.00    +0.000 A 
ATOM     15  C   UNL     1      -0.790  11.183  18.776  0.00  0.00    +0.000 A 
ATOM     16  C   UNL     1      -1.202  10.032  18.113  0.00  0.00    +0.000 A 
ATOM     17  C   UNL     1      -2.554   9.846  17.807  0.00  0.00    +0.000 A 
BRANCH  12  19
ATOM     18  C   UNL     1      -5.433  11.874  17.249  0.00  0.00    +0.000 C 
ATOM     19  O   UNL     1      -4.828  10.767  17.907  0.00  0.00    +0.000 OA
ENDBRANCH  12  19
ENDBRANCH   9  15
ENDBRANCH   1   9
BRANCH   1  20
ATOM     20  C   UNL     1       1.364   9.841  21.584  0.00  0.00    +0.000 C 
BRANCH  20  21
ATOM     21  C   UNL     1       0.728   8.509  21.205  0.00  0.00    +0.000 C 
ATOM     22  O   UNL     1      -0.477   8.310  21.229  0.00  0.00    +0.000 OA
ATOM     23  N   UNL     1       1.680   7.582  20.800  0.00  0.00    +0.000 N 
ATOM     24  H   UNL     1       2.646   7.893  20.693  0.00  0.00    +0.000 HD
BRANCH  23  25
ATOM     25  N   UNL     1       1.417   6.240  20.655  0.00  0.00    +0.000 NA
ATOM     26  C   UNL     1       2.001   5.703  19.624  0.00  0.00    +0.000 C 
ATOM     27  C   UNL     1       2.772   6.452  18.523  0.00  0.00    +0.000 C 
ATOM     28  O   UNL     1       3.075   7.625  18.568  0.00  0.00    +0.000 OA
ATOM     29  N   UNL     1       3.119   5.503  17.596  0.00  0.00    +0.000 N 
ATOM     30  C   UNL     1       2.868   4.234  18.103  0.00  0.00    +0.000 A 
ATOM     31  C   UNL     1       3.399   3.056  17.623  0.00  0.00    +0.000 A 
ATOM     32  C   UNL     1       3.186   1.906  18.386  0.00  0.00    +0.000 A 
ATOM     33  C   UNL     1       2.392   1.945  19.553  0.00  0.00    +0.000 A 
ATOM     34  C   UNL     1       1.836   3.146  20.012  0.00  0.00    +0.000 A 
ATOM     35  C   UNL     1       2.129   4.284  19.289  0.00  0.00    +0.000 A 
ATOM     36  H   UNL     1       3.665   5.716  16.774  0.00  0.00    +0.000 HD
ENDBRANCH  23  25
ENDBRANCH  20  21
ENDBRANCH   1  20
TORSDOF 7
ENDMDL
MODEL 3
REMARK VINA RESULT:      -7.6      1.450      2.199
REMARK  Name = 
REMARK  9 active torsions:
REMARK  status: ('A' for Active; 'I' for Inactive)
REMARK    1  A    between atoms: C_1  and  O_2
REMARK    2  A    between atoms: O_2  and  C_3
REMARK    3  A    between atoms: C_6  and  S_7
REMARK    4  A    between atoms: S_7  and  N_10
REMARK    5  A    between atoms: N_10  and  C_11
REMARK    6  A    between atoms: N_10  and  C_26
REMARK    7  A    between atoms: C_11  and  C_12
REMARK    8  A    between atoms: N_14  and  N_15
REMARK    9  A    between atoms: C_29  and  C_30
REMARK                            x       y       z     vdW  Elec       q    Type
REMARK                         _______ _______ _______ _____ _____    ______ ____
ROOT
ATOM      1  N   UNL     1       0.300  11.587  19.487  0.00  0.00    +0.000 N 
ENDROOT
BRANCH   1   2
ATOM      2  C   UNL     1       1.341  12.565  19.382  0.00  0.00    +0.000 A 
ATOM      3  C   UNL     1       1.785  13.047  18.153  0.00  0.00    +0.000 A 
ATOM      4  C   UNL     1       2.845  13.959  18.093  0.00  0.00    +0.000 A 
ATOM      5  C   UNL     1       3.492  14.375  19.260  0.00  0.00    +0.000 A 
ATOM      6  C   UNL     1       4.660  15.318  19.200  0.00  0.00    +0.000 C 
ATOM      7  C   UNL     1       3.049  13.884  20.494  0.00  0.00    +0.000 A 
ATOM      8  C   UNL     1       1.981  12.984  20.553  0.00  0.00    +0.000 A 
ENDBRANCH   1   2
BRANCH   1   9
ATOM      9  S   UNL     1      -1.292  12.152  19.727  0.00  0.00    +0.000 S 
ATOM     10  O   UNL     1      -1.282  13.589  19.567  0.00  0.00    +0.000 OA
ATOM     11  O   UNL     1      -1.817  11.563  20.944  0.00  0.00    +0.000 OA
BRANCH   9  15
ATOM     12  C   UNL     1      -3.585  10.538  16.133  0.00  0.00    +0.000 A 
ATOM     13  C   UNL     1      -2.290  10.079  16.399  0.00  0.00    +0.000 A 
ATOM     14  C   UNL     1      -1.593  10.525  17.524  0.00  0.00    +0.000 A 
ATOM     15  C   UNL     1      -2.198  11.455  18.371  0.00  0.00    +0.000 A 
ATOM     16  C   UNL     1      -3.519  11.838  18.168  0.00  0.00    +0.000 A 
ATOM     17  C   UNL     1      -4.206  11.406  17.029  0.00  0.00    +0.000 A 
BRANCH  12  19
ATOM     18  C   UNL     1      -3.249  10.035  13.840  0.00  0.00    +0.000 C 
ATOM     19  O   UNL     1      -4.126  10.085  14.960  0.00  0.00    +0.000 OA
ENDBRANCH  12  19
ENDBRANCH   9  15
ENDBRANCH   1   9
BRANCH   1  20
ATOM     20  C   UNL     1       0.629  10.181  19.811  0.00  0.00    +0.000 C 
BRANCH  20  21
ATOM     21  C   UNL     1       1.469   9.383  18.821  0.00  0.00    +0.000 C 
ATOM     22  O   UNL     1       1.620   9.708  17.654  0.00  0.00    +0.000 OA
ATOM     23  N   UNL     1       2.060   8.279  19.422  0.00  0.00    +0.000 N 
ATOM     24  H   UNL     1       1.974   8.171  20.433  0.00  0.00    +0.000 HD
BRANCH  23  25
ATOM     25  N   UNL     1       2.649   7.256  18.715  0.00  0.00    +0.000 NA
ATOM     26  C   UNL     1       2.441   6.080  19.231  0.00  0.00    +0.000 C 
ATOM     27  C   UNL     1       1.775   5.786  20.587  0.00  0.00    +0.000 C 
ATOM     28  O   UNL     1       1.210   6.611  21.272  0.00  0.00    +0.000 OA
ATOM     29  N   UNL     1       1.865   4.429  20.763  0.00  0.00    +0.000 N 
ATOM     30  C   UNL     1       2.285   3.827  19.582  0.00  0.00    +0.000 A 
ATOM     31  C   UNL     1       2.154   2.491  19.270  0.00  0.00    +0.000 A 
ATOM     32  C   UNL     1       2.455   2.113  17.960  0.00  0.00    +0.000 A 
ATOM     33  C   UNL     1       2.947   3.052  17.028  0.00  0.00    +0.000 A 
ATOM     34  C   UNL     1       3.099   4.402  17.369  0.00  0.00    +0.000 A 
ATOM     35  C   UNL     1       2.718   4.768  18.643  0.00  0.00    +0.000 A 
ATOM     36  H   UNL     1       1.476   3.954  21.564  0.00  0.00    +0.000 HD
ENDBRANCH  23  25
ENDBRANCH  20  21
ENDBRANCH   1  20
TORSDOF 7
ENDMDL
MODEL 4
REMARK VINA RESULT:      -7.6      2.570      4.625
REMARK  Name = 
REMARK  9 active torsions:
REMARK  status: ('A' for Active; 'I' for Inactive)
REMARK    1  A    between atoms: C_1  and  O_2
REMARK    2  A    between atoms: O_2  and  C_3
REMARK    3  A    between atoms: C_6  and  S_7
REMARK    4  A    between atoms: S_7  and  N_10
REMARK    5  A    between atoms: N_10  and  C_11
REMARK    6  A    between atoms: N_10  and  C_26
REMARK    7  A    between atoms: C_11  and  C_12
REMARK    8  A    between atoms: N_14  and  N_15
REMARK    9  A    between atoms: C_29  and  C_30
REMARK                            x       y       z     vdW  Elec       q    Type
REMARK                         _______ _______ _______ _____ _____    ______ ____
ROOT
ATOM      1  N   UNL     1       0.146  11.319  21.205  0.00  0.00    +0.000 N 
ENDROOT
BRANCH   1   2
ATOM      2  C   UNL     1      -0.725  12.016  22.105  0.00  0.00    +0.000 A 
ATOM      3  C   UNL     1      -1.857  11.418  22.654  0.00  0.00    +0.000 A 
ATOM      4  C   UNL     1      -2.712  12.154  23.482  0.00  0.00    +0.000 A 
ATOM      5  C   UNL     1      -2.462  13.503  23.744  0.00  0.00    +0.000 A 
ATOM      6  C   UNL     1      -3.400  14.311  24.594  0.00  0.00    +0.000 C 
ATOM      7  C   UNL     1      -1.328  14.104  23.185  0.00  0.00    +0.000 A 
ATOM      8  C   UNL     1      -0.466  13.364  22.370  0.00  0.00    +0.000 A 
ENDBRANCH   1   2
BRANCH   1   9
ATOM      9  S   UNL     1      -0.197  11.423  19.536  0.00  0.00    +0.000 S 
ATOM     10  O   UNL     1      -1.545  11.927  19.391  0.00  0.00    +0.000 OA
ATOM     11  O   UNL     1       0.180  10.172  18.906  0.00  0.00    +0.000 OA
BRANCH   9  15
ATOM     12  C   UNL     1       2.731  14.663  18.228  0.00  0.00    +0.000 A 
ATOM     13  C   UNL     1       3.072  13.313  18.084  0.00  0.00    +0.000 A 
ATOM     14  C   UNL     1       2.167  12.308  18.433  0.00  0.00    +0.000 A 
ATOM     15  C   UNL     1       0.921  12.668  18.950  0.00  0.00    +0.000 A 
ATOM     16  C   UNL     1       0.539  14.004  19.002  0.00  0.00    +0.000 A 
ATOM     17  C   UNL     1       1.456  15.007  18.673  0.00  0.00    +0.000 A 
BRANCH  12  19
ATOM     18  C   UNL     1       5.046  15.001  17.843  0.00  0.00    +0.000 C 
ATOM     19  O   UNL     1       3.733  15.544  17.926  0.00  0.00    +0.000 OA
ENDBRANCH  12  19
ENDBRANCH   9  15
ENDBRANCH   1   9
BRANCH   1  20
ATOM     20  C   UNL     1       1.013  10.228  21.703  0.00  0.00    +0.000 C 
BRANCH  20  21
ATOM     21  C   UNL     1       0.555   8.788  21.509  0.00  0.00    +0.000 C 
ATOM     22  O   UNL     1      -0.573   8.401  21.772  0.00  0.00    +0.000 OA
ATOM     23  N   UNL     1       1.560   7.998  20.967  0.00  0.00    +0.000 N 
ATOM     24  H   UNL     1       2.423   8.450  20.664  0.00  0.00    +0.000 HD
BRANCH  23  25
ATOM     25  N   UNL     1       1.508   6.624  20.931  0.00  0.00    +0.000 NA
ATOM     26  C   UNL     1       2.066   6.110  19.874  0.00  0.00    +0.000 C 
ATOM     27  C   UNL     1       2.591   6.885  18.653  0.00  0.00    +0.000 C 
ATOM     28  O   UNL     1       2.699   8.091  18.595  0.00  0.00    +0.000 OA
ATOM     29  N   UNL     1       2.994   5.935  17.750  0.00  0.00    +0.000 N 
ATOM     30  C   UNL     1       3.006   4.684  18.355  0.00  0.00    +0.000 A 
ATOM     31  C   UNL     1       3.673   3.572  17.888  0.00  0.00    +0.000 A 
ATOM     32  C   UNL     1       3.729   2.463  18.736  0.00  0.00    +0.000 A 
ATOM     33  C   UNL     1       3.060   2.465  19.979  0.00  0.00    +0.000 A 
ATOM     34  C   UNL     1       2.363   3.595  20.426  0.00  0.00    +0.000 A 
ATOM     35  C   UNL     1       2.391   4.707  19.610  0.00  0.00    +0.000 A 
ATOM     36  H   UNL     1       3.413   6.168  16.861  0.00  0.00    +0.000 HD
ENDBRANCH  23  25
ENDBRANCH  20  21
ENDBRANCH   1  20
TORSDOF 7
ENDMDL
MODEL 5
REMARK VINA RESULT:      -7.5      2.217      4.023
REMARK  Name = 
REMARK  9 active torsions:
REMARK  status: ('A' for Active; 'I' for Inactive)
REMARK    1  A    between atoms: C_1  and  O_2
REMARK    2  A    between atoms: O_2  and  C_3
REMARK    3  A    between atoms: C_6  and  S_7
REMARK    4  A    between atoms: S_7  and  N_10
REMARK    5  A    between atoms: N_10  and  C_11
REMARK    6  A    between atoms: N_10  and  C_26
REMARK    7  A    between atoms: C_11  and  C_12
REMARK    8  A    between atoms: N_14  and  N_15
REMARK    9  A    between atoms: C_29  and  C_30
REMARK                            x       y       z     vdW  Elec       q    Type
REMARK                         _______ _______ _______ _____ _____    ______ ____
ROOT
ATOM      1  N   UNL     1       0.702  11.643  18.980  0.00  0.00    +0.000 N 
ENDROOT
BRANCH   1   2
ATOM      2  C   UNL     1       1.754  12.577  19.252  0.00  0.00    +0.000 A 
ATOM      3  C   UNL     1       1.991  13.076  20.532  0.00  0.00    +0.000 A 
ATOM      4  C   UNL     1       2.991  14.031  20.742  0.00  0.00    +0.000 A 
ATOM      5  C   UNL     1       3.743  14.521  19.672  0.00  0.00    +0.000 A 
ATOM      6  C   UNL     1       4.787  15.581  19.883  0.00  0.00    +0.000 C 
ATOM      7  C   UNL     1       3.499  14.025  18.386  0.00  0.00    +0.000 A 
ATOM      8  C   UNL     1       2.509  13.059  18.179  0.00  0.00    +0.000 A 
ENDBRANCH   1   2
BRANCH   1   9
ATOM      9  S   UNL     1      -0.851  12.275  18.659  0.00  0.00    +0.000 S 
ATOM     10  O   UNL     1      -1.528  11.357  17.770  0.00  0.00    +0.000 OA
ATOM     11  O   UNL     1      -0.718  13.672  18.293  0.00  0.00    +0.000 OA
BRANCH   9  15
ATOM     12  C   UNL     1      -2.837  12.296  22.763  0.00  0.00    +0.000 A 
ATOM     13  C   UNL     1      -3.543  12.749  21.642  0.00  0.00    +0.000 A 
ATOM     14  C   UNL     1      -2.967  12.702  20.370  0.00  0.00    +0.000 A 
ATOM     15  C   UNL     1      -1.666  12.217  20.233  0.00  0.00    +0.000 A 
ATOM     16  C   UNL     1      -0.998  11.674  21.325  0.00  0.00    +0.000 A 
ATOM     17  C   UNL     1      -1.569  11.743  22.600  0.00  0.00    +0.000 A 
BRANCH  12  19
ATOM     18  C   UNL     1      -3.505  13.795  24.474  0.00  0.00    +0.000 C 
ATOM     19  O   UNL     1      -3.482  12.469  23.957  0.00  0.00    +0.000 OA
ENDBRANCH  12  19
ENDBRANCH   9  15
ENDBRANCH   1   9
BRANCH   1  20
ATOM     20  C   UNL     1       0.842  10.226  19.383  0.00  0.00    +0.000 C 
BRANCH  20  21
ATOM     21  C   UNL     1       1.650   9.292  18.492  0.00  0.00    +0.000 C 
ATOM     22  O   UNL     1       1.884   9.522  17.315  0.00  0.00    +0.000 OA
ATOM     23  N   UNL     1       2.110   8.184  19.192  0.00  0.00    +0.000 N 
ATOM     24  H   UNL     1       1.968   8.155  20.202  0.00  0.00    +0.000 HD
BRANCH  23  25
ATOM     25  N   UNL     1       2.636   7.067  18.584  0.00  0.00    +0.000 NA
ATOM     26  C   UNL     1       2.396   5.963  19.229  0.00  0.00    +0.000 C 
ATOM     27  C   UNL     1       1.762   5.843  20.626  0.00  0.00    +0.000 C 
ATOM     28  O   UNL     1       1.251   6.761  21.233  0.00  0.00    +0.000 OA
ATOM     29  N   UNL     1       1.802   4.511  20.944  0.00  0.00    +0.000 N 
ATOM     30  C   UNL     1       2.161   3.769  19.824  0.00  0.00    +0.000 A 
ATOM     31  C   UNL     1       1.967   2.414  19.661  0.00  0.00    +0.000 A 
ATOM     32  C   UNL     1       2.212   1.886  18.391  0.00  0.00    +0.000 A 
ATOM     33  C   UNL     1       2.713   2.699  17.351  0.00  0.00    +0.000 A 
ATOM     34  C   UNL     1       2.930   4.070  17.542  0.00  0.00    +0.000 A 
ATOM     35  C   UNL     1       2.602   4.586  18.779  0.00  0.00    +0.000 A 
ATOM     36  H   UNL     1       1.419   4.141  21.801  0.00  0.00    +0.000 HD
ENDBRANCH  23  25
ENDBRANCH  20  21
ENDBRANCH   1  20
TORSDOF 7
ENDMDL
MODEL 6
REMARK VINA RESULT:      -7.4      2.617      4.799
REMARK  Name = 
REMARK  9 active torsions:
REMARK  status: ('A' for Active; 'I' for Inactive)
REMARK    1  A    between atoms: C_1  and  O_2
REMARK    2  A    between atoms: O_2  and  C_3
REMARK    3  A    between atoms: C_6  and  S_7
REMARK    4  A    between atoms: S_7  and  N_10
REMARK    5  A    between atoms: N_10  and  C_11
REMARK    6  A    between atoms: N_10  and  C_26
REMARK    7  A    between atoms: C_11  and  C_12
REMARK    8  A    between atoms: N_14  and  N_15
REMARK    9  A    between atoms: C_29  and  C_30
REMARK                            x       y       z     vdW  Elec       q    Type
REMARK                         _______ _______ _______ _____ _____    ______ ____
ROOT
ATOM      1  N   UNL     1       0.063  11.655  20.595  0.00  0.00    +0.000 N 
ENDROOT
BRANCH   1   2
ATOM      2  C   UNL     1      -0.819  11.254  19.540  0.00  0.00    +0.000 A 
ATOM      3  C   UNL     1      -0.393  10.456  18.480  0.00  0.00    +0.000 A 
ATOM      4  C   UNL     1      -1.273  10.136  17.440  0.00  0.00    +0.000 A 
ATOM      5  C   UNL     1      -2.577  10.637  17.432  0.00  0.00    +0.000 A 
ATOM      6  C   UNL     1      -3.513  10.336  16.296  0.00  0.00    +0.000 C 
ATOM      7  C   UNL     1      -3.001  11.444  18.494  0.00  0.00    +0.000 A 
ATOM      8  C   UNL     1      -2.125  11.751  19.541  0.00  0.00    +0.000 A 
ENDBRANCH   1   2
BRANCH   1   9
ATOM      9  S   UNL     1       0.375  13.324  20.772  0.00  0.00    +0.000 S 
ATOM     10  O   UNL     1       0.232  13.942  19.473  0.00  0.00    +0.000 OA
ATOM     11  O   UNL     1       1.605  13.490  21.521  0.00  0.00    +0.000 OA
BRANCH   9  15
ATOM     12  C   UNL     1      -3.170  14.704  23.285  0.00  0.00    +0.000 A 
ATOM     13  C   UNL     1      -2.394  13.619  23.707  0.00  0.00    +0.000 A 
ATOM     14  C   UNL     1      -1.275  13.215  22.976  0.00  0.00    +0.000 A 
ATOM     15  C   UNL     1      -0.951  13.896  21.801  0.00  0.00    +0.000 A 
ATOM     16  C   UNL     1      -1.657  15.035  21.430  0.00  0.00    +0.000 A 
ATOM     17  C   UNL     1      -2.789  15.423  22.153  0.00  0.00    +0.000 A 
BRANCH  12  19
ATOM     18  C   UNL     1      -4.390  16.253  24.601  0.00  0.00    +0.000 C 
ATOM     19  O   UNL     1      -4.281  14.948  24.045  0.00  0.00    +0.000 OA
ENDBRANCH  12  19
ENDBRANCH   9  15
ENDBRANCH   1   9
BRANCH   1  20
ATOM     20  C   UNL     1       0.987  10.674  21.207  0.00  0.00    +0.000 C 
BRANCH  20  21
ATOM     21  C   UNL     1       0.487   9.255  21.449  0.00  0.00    +0.000 C 
ATOM     22  O   UNL     1      -0.518   8.998  22.093  0.00  0.00    +0.000 OA
ATOM     23  N   UNL     1       1.290   8.313  20.819  0.00  0.00    +0.000 N 
ATOM     24  H   UNL     1       2.030   8.642  20.199  0.00  0.00    +0.000 HD
BRANCH  23  25
ATOM     25  N   UNL     1       1.225   6.964  21.082  0.00  0.00    +0.000 NA
ATOM     26  C   UNL     1       1.875   6.235  20.223  0.00  0.00    +0.000 C 
ATOM     27  C   UNL     1       2.525   6.727  18.918  0.00  0.00    +0.000 C 
ATOM     28  O   UNL     1       2.653   7.892  18.607  0.00  0.00    +0.000 OA
ATOM     29  N   UNL     1       3.001   5.605  18.290  0.00  0.00    +0.000 N 
ATOM     30  C   UNL     1       2.940   4.518  19.153  0.00  0.00    +0.000 A 
ATOM     31  C   UNL     1       3.634   3.337  19.010  0.00  0.00    +0.000 A 
ATOM     32  C   UNL     1       3.594   2.443  20.083  0.00  0.00    +0.000 A 
ATOM     33  C   UNL     1       2.809   2.712  21.224  0.00  0.00    +0.000 A 
ATOM     34  C   UNL     1       2.086   3.906  21.342  0.00  0.00    +0.000 A 
ATOM     35  C   UNL     1       2.207   4.811  20.308  0.00  0.00    +0.000 A 
ATOM     36  H   UNL     1       3.507   5.641  17.417  0.00  0.00    +0.000 HD
ENDBRANCH  23  25
ENDBRANCH  20  21
ENDBRANCH   1  20
TORSDOF 7
ENDMDL
MODEL 7
REMARK VINA RESULT:      -7.4      2.559      4.793
REMARK  Name = 
REMARK  9 active torsions:
REMARK  status: ('A' for Active; 'I' for Inactive)
REMARK    1  A    between atoms: C_1  and  O_2
REMARK    2  A    between atoms: O_2  and  C_3
REMARK    3  A    between atoms: C_6  and  S_7
REMARK    4  A    between atoms: S_7  and  N_10
REMARK    5  A    between atoms: N_10  and  C_11
REMARK    6  A    between atoms: N_10  and  C_26
REMARK    7  A    between atoms: C_11  and  C_12
REMARK    8  A    between atoms: N_14  and  N_15
REMARK    9  A    between atoms: C_29  and  C_30
REMARK                            x       y       z     vdW  Elec       q    Type
REMARK                         _______ _______ _______ _____ _____    ______ ____
ROOT
ATOM      1  N   UNL     1       0.063  11.707  20.585  0.00  0.00    +0.000 N 
ENDROOT
BRANCH   1   2
ATOM      2  C   UNL     1      -0.734  11.296  19.469  0.00  0.00    +0.000 A 
ATOM      3  C   UNL     1      -2.091  11.597  19.375  0.00  0.00    +0.000 A 
ATOM      4  C   UNL     1      -2.846  11.125  18.295  0.00  0.00    +0.000 A 
ATOM      5  C   UNL     1      -2.259  10.320  17.315  0.00  0.00    +0.000 A 
ATOM      6  C   UNL     1      -3.074   9.772  16.178  0.00  0.00    +0.000 C 
ATOM      7  C   UNL     1      -0.897  10.013  17.414  0.00  0.00    +0.000 A 
ATOM      8  C   UNL     1      -0.141  10.498  18.486  0.00  0.00    +0.000 A 
ENDBRANCH   1   2
BRANCH   1   9
ATOM      9  S   UNL     1       0.321  13.382  20.795  0.00  0.00    +0.000 S 
ATOM     10  O   UNL     1       0.202  14.015  19.500  0.00  0.00    +0.000 OA
ATOM     11  O   UNL     1       1.522  13.572  21.586  0.00  0.00    +0.000 OA
BRANCH   9  15
ATOM     12  C   UNL     1      -3.085  14.858  23.440  0.00  0.00    +0.000 A 
ATOM     13  C   UNL     1      -3.028  15.241  22.096  0.00  0.00    +0.000 A 
ATOM     14  C   UNL     1      -2.020  14.757  21.259  0.00  0.00    +0.000 A 
ATOM     15  C   UNL     1      -1.053  13.901  21.788  0.00  0.00    +0.000 A 
ATOM     16  C   UNL     1      -1.161  13.439  23.095  0.00  0.00    +0.000 A 
ATOM     17  C   UNL     1      -2.159  13.942  23.935  0.00  0.00    +0.000 A 
BRANCH  12  19
ATOM     18  C   UNL     1      -5.324  15.635  23.514  0.00  0.00    +0.000 C 
ATOM     19  O   UNL     1      -4.073  15.463  24.169  0.00  0.00    +0.000 OA
ENDBRANCH  12  19
ENDBRANCH   9  15
ENDBRANCH   1   9
BRANCH   1  20
ATOM     20  C   UNL     1       0.966  10.744  21.252  0.00  0.00    +0.000 C 
BRANCH  20  21
ATOM     21  C   UNL     1       0.470   9.322  21.486  0.00  0.00    +0.000 C 
ATOM     22  O   UNL     1      -0.539   9.060  22.122  0.00  0.00    +0.000 OA
ATOM     23  N   UNL     1       1.281   8.385  20.859  0.00  0.00    +0.000 N 
ATOM     24  H   UNL     1       2.024   8.719  20.245  0.00  0.00    +0.000 HD
BRANCH  23  25
ATOM     25  N   UNL     1       1.218   7.035  21.116  0.00  0.00    +0.000 NA
ATOM     26  C   UNL     1       1.847   6.309  20.239  0.00  0.00    +0.000 C 
ATOM     27  C   UNL     1       2.466   6.805  18.921  0.00  0.00    +0.000 C 
ATOM     28  O   UNL     1       2.590   7.971  18.613  0.00  0.00    +0.000 OA
ATOM     29  N   UNL     1       2.925   5.685  18.277  0.00  0.00    +0.000 N 
ATOM     30  C   UNL     1       2.881   4.594  19.137  0.00  0.00    +0.000 A 
ATOM     31  C   UNL     1       3.570   3.412  18.971  0.00  0.00    +0.000 A 
ATOM     32  C   UNL     1       3.553   2.513  20.040  0.00  0.00    +0.000 A 
ATOM     33  C   UNL     1       2.795   2.779  21.201  0.00  0.00    +0.000 A 
ATOM     34  C   UNL     1       2.079   3.974  21.342  0.00  0.00    +0.000 A 
ATOM     35  C   UNL     1       2.177   4.884  20.309  0.00  0.00    +0.000 A 
ATOM     36  H   UNL     1       3.410   5.724  17.392  0.00  0.00    +0.000 HD
ENDBRANCH  23  25
ENDBRANCH  20  21
ENDBRANCH   1  20
TORSDOF 7
ENDMDL
MODEL 8
REMARK VINA RESULT:      -7.3      2.385      4.194
REMARK  Name = 
REMARK  9 active torsions:
REMARK  status: ('A' for Active; 'I' for Inactive)
REMARK    1  A    between atoms: C_1  and  O_2
REMARK    2  A    between atoms: O_2  and  C_3
REMARK    3  A    between atoms: C_6  and  S_7
REMARK    4  A    between atoms: S_7  and  N_10
REMARK    5  A    between atoms: N_10  and  C_11
REMARK    6  A    between atoms: N_10  and  C_26
REMARK    7  A    between atoms: C_11  and  C_12
REMARK    8  A    between atoms: N_14  and  N_15
REMARK    9  A    between atoms: C_29  and  C_30
REMARK                            x       y       z     vdW  Elec       q    Type
REMARK                         _______ _______ _______ _____ _____    ______ ____
ROOT
ATOM      1  N   UNL     1       0.635  11.403  19.122  0.00  0.00    +0.000 N 
ENDROOT
BRANCH   1   2
ATOM      2  C   UNL     1       1.608  12.446  19.251  0.00  0.00    +0.000 A 
ATOM      3  C   UNL     1       2.360  12.897  18.168  0.00  0.00    +0.000 A 
ATOM      4  C   UNL     1       3.341  13.878  18.350  0.00  0.00    +0.000 A 
ATOM      5  C   UNL     1       3.603  14.395  19.621  0.00  0.00    +0.000 A 
ATOM      6  C   UNL     1       4.686  15.414  19.832  0.00  0.00    +0.000 C 
ATOM      7  C   UNL     1       2.852  13.935  20.709  0.00  0.00    +0.000 A 
ATOM      8  C   UNL     1       1.861  12.966  20.523  0.00  0.00    +0.000 A 
ENDBRANCH   1   2
BRANCH   1   9
ATOM      9  S   UNL     1      -0.994  11.866  18.903  0.00  0.00    +0.000 S 
ATOM     10  O   UNL     1      -1.766  10.669  18.653  0.00  0.00    +0.000 OA
ATOM     11  O   UNL     1      -1.042  12.968  17.962  0.00  0.00    +0.000 OA
BRANCH   9  15
ATOM     12  C   UNL     1      -2.013  13.531  23.023  0.00  0.00    +0.000 A 
ATOM     13  C   UNL     1      -2.166  14.334  21.887  0.00  0.00    +0.000 A 
ATOM     14  C   UNL     1      -1.906  13.824  20.614  0.00  0.00    +0.000 A 
ATOM     15  C   UNL     1      -1.469  12.504  20.488  0.00  0.00    +0.000 A 
ATOM     16  C   UNL     1      -1.412  11.673  21.601  0.00  0.00    +0.000 A 
ATOM     17  C   UNL     1      -1.651  12.193  22.877  0.00  0.00    +0.000 A 
BRANCH  12  19
ATOM     18  C   UNL     1      -1.323  15.230  24.526  0.00  0.00    +0.000 C 
ATOM     19  O   UNL     1      -2.222  14.172  24.214  0.00  0.00    +0.000 OA
ENDBRANCH  12  19
ENDBRANCH   9  15
ENDBRANCH   1   9
BRANCH   1  20
ATOM     20  C   UNL     1       0.945  10.033  19.586  0.00  0.00    +0.000 C 
BRANCH  20  21
ATOM     21  C   UNL     1       1.562   9.051  18.599  0.00  0.00    +0.000 C 
ATOM     22  O   UNL     1       1.418   9.136  17.389  0.00  0.00    +0.000 OA
ATOM     23  N   UNL     1       2.327   8.087  19.242  0.00  0.00    +0.000 N 
ATOM     24  H   UNL     1       2.487   8.184  20.245  0.00  0.00    +0.000 HD
BRANCH  23  25
ATOM     25  N   UNL     1       2.778   6.942  18.628  0.00  0.00    +0.000 NA
ATOM     26  C   UNL     1       2.425   5.850  19.240  0.00  0.00    +0.000 C 
ATOM     27  C   UNL     1       1.734   5.757  20.611  0.00  0.00    +0.000 C 
ATOM     28  O   UNL     1       1.281   6.703  21.221  0.00  0.00    +0.000 OA
ATOM     29  N   UNL     1       1.651   4.420  20.901  0.00  0.00    +0.000 N 
ATOM     30  C   UNL     1       1.985   3.672  19.778  0.00  0.00    +0.000 A 
ATOM     31  C   UNL     1       1.684   2.342  19.579  0.00  0.00    +0.000 A 
ATOM     32  C   UNL     1       1.928   1.820  18.306  0.00  0.00    +0.000 A 
ATOM     33  C   UNL     1       2.531   2.607  17.302  0.00  0.00    +0.000 A 
ATOM     34  C   UNL     1       2.855   3.951  17.529  0.00  0.00    +0.000 A 
ATOM     35  C   UNL     1       2.529   4.469  18.766  0.00  0.00    +0.000 A 
ATOM     36  H   UNL     1       1.208   4.068  21.737  0.00  0.00    +0.000 HD
ENDBRANCH  23  25
ENDBRANCH  20  21
ENDBRANCH   1  20
TORSDOF 7
ENDMDL
MODEL 9
REMARK VINA RESULT:      -7.3      2.698      7.234
REMARK  Name = 
REMARK  9 active torsions:
REMARK  status: ('A' for Active; 'I' for Inactive)
REMARK    1  A    between atoms: C_1  and  O_2
REMARK    2  A    between atoms: O_2  and  C_3
REMARK    3  A    between atoms: C_6  and  S_7
REMARK    4  A    between atoms: S_7  and  N_10
REMARK    5  A    between atoms: N_10  and  C_11
REMARK    6  A    between atoms: N_10  and  C_26
REMARK    7  A    between atoms: C_11  and  C_12
REMARK    8  A    between atoms: N_14  and  N_15
REMARK    9  A    between atoms: C_29  and  C_30
REMARK                            x       y       z     vdW  Elec       q    Type
REMARK                         _______ _______ _______ _____ _____    ______ ____
ROOT
ATOM      1  N   UNL     1       1.335   8.957  19.908  0.00  0.00    +0.000 N 
ENDROOT
BRANCH   1   2
ATOM      2  C   UNL     1       1.854   7.676  19.531  0.00  0.00    +0.000 A 
ATOM      3  C   UNL     1       2.447   7.452  18.290  0.00  0.00    +0.000 A 
ATOM      4  C   UNL     1       2.888   6.170  17.940  0.00  0.00    +0.000 A 
ATOM      5  C   UNL     1       2.713   5.095  18.814  0.00  0.00    +0.000 A 
ATOM      6  C   UNL     1       3.142   3.708  18.427  0.00  0.00    +0.000 C 
ATOM      7  C   UNL     1       2.111   5.321  20.058  0.00  0.00    +0.000 A 
ATOM      8  C   UNL     1       1.685   6.605  20.412  0.00  0.00    +0.000 A 
ENDBRANCH   1   2
BRANCH   1   9
ATOM      9  S   UNL     1       1.284  10.171  18.708  0.00  0.00    +0.000 S 
ATOM     10  O   UNL     1       1.790   9.602  17.479  0.00  0.00    +0.000 OA
ATOM     11  O   UNL     1       1.878  11.380  19.245  0.00  0.00    +0.000 OA
BRANCH   9  15
ATOM     12  C   UNL     1      -3.121  11.144  18.047  0.00  0.00    +0.000 A 
ATOM     13  C   UNL     1      -2.517  10.110  17.323  0.00  0.00    +0.000 A 
ATOM     14  C   UNL     1      -1.183   9.765  17.550  0.00  0.00    +0.000 A 
ATOM     15  C   UNL     1      -0.448  10.483  18.495  0.00  0.00    +0.000 A 
ATOM     16  C   UNL     1      -1.069  11.444  19.287  0.00  0.00    +0.000 A 
ATOM     17  C   UNL     1      -2.398  11.800  19.042  0.00  0.00    +0.000 A 
BRANCH  12  19
ATOM     18  C   UNL     1      -5.433  10.728  18.361  0.00  0.00    +0.000 C 
ATOM     19  O   UNL     1      -4.405  11.433  17.675  0.00  0.00    +0.000 OA
ENDBRANCH  12  19
ENDBRANCH   9  15
ENDBRANCH   1   9
BRANCH   1  20
ATOM     20  C   UNL     1       1.262   9.341  21.335  0.00  0.00    +0.000 C 
BRANCH  20  21
ATOM     21  C   UNL     1      -0.103   9.380  22.010  0.00  0.00    +0.000 C 
ATOM     22  O   UNL     1      -0.918   8.475  21.927  0.00  0.00    +0.000 OA
ATOM     23  N   UNL     1      -0.277  10.542  22.750  0.00  0.00    +0.000 N 
ATOM     24  H   UNL     1       0.517  11.173  22.857  0.00  0.00    +0.000 HD
BRANCH  23  25
ATOM     25  N   UNL     1      -1.495  10.953  23.241  0.00  0.00    +0.000 NA
ATOM     26  C   UNL     1      -1.734  12.217  23.049  0.00  0.00    +0.000 C 
ATOM     27  C   UNL     1      -0.741  13.259  22.506  0.00  0.00    +0.000 C 
ATOM     28  O   UNL     1       0.343  12.997  22.030  0.00  0.00    +0.000 OA
ATOM     29  N   UNL     1      -1.388  14.466  22.574  0.00  0.00    +0.000 N 
ATOM     30  C   UNL     1      -2.732  14.265  22.864  0.00  0.00    +0.000 A 
ATOM     31  C   UNL     1      -3.743  15.181  22.667  0.00  0.00    +0.000 A 
ATOM     32  C   UNL     1      -5.053  14.725  22.833  0.00  0.00    +0.000 A 
ATOM     33  C   UNL     1      -5.315  13.406  23.262  0.00  0.00    +0.000 A 
ATOM     34  C   UNL     1      -4.274  12.495  23.483  0.00  0.00    +0.000 A 
ATOM     35  C   UNL     1      -2.993  12.941  23.233  0.00  0.00    +0.000 A 
ATOM     36  H   UNL     1      -0.974  15.327  22.248  0.00  0.00    +0.000 HD
ENDBRANCH  23  25
ENDBRANCH  20  21
ENDBRANCH   1  20
TORSDOF 7
ENDMDL
