MODEL 1
REMARK VINA RESULT:      -8.3      0.000      0.000
REMARK  Name = 
REMARK  7 active torsions:
REMARK  status: ('A' for Active; 'I' for Inactive)
REMARK    1  A    between atoms: C_1  and  C_2
REMARK    2  A    between atoms: C_5  and  C_6
REMARK    3  A    between atoms: N_8  and  C_9
REMARK    4  A    between atoms: C_9  and  C_10
REMARK    5  A    between atoms: C_14  and  C_15
REMARK    6  A    between atoms: C_21  and  S_22
REMARK    7  A    between atoms: S_22  and  C_23
REMARK                            x       y       z     vdW  Elec       q    Type
REMARK                         _______ _______ _______ _____ _____    ______ ____
ROOT
ATOM      1  C   UNL     1       4.415   4.189  18.022  0.00  0.00    +0.000 A 
ATOM      2  N   UNL     1       4.145   2.977  18.564  0.00  0.00    +0.000 NA
ATOM      3  N   UNL     1       3.120   3.115  19.398  0.00  0.00    +0.000 NA
ATOM      4  C   UNL     1       2.762   4.406  19.341  0.00  0.00    +0.000 A 
ATOM      5  C   UNL     1       1.714   5.003  20.042  0.00  0.00    +0.000 A 
ATOM      6  C   UNL     1       1.472   6.367  19.812  0.00  0.00    +0.000 A 
ATOM      7  C   UNL     1       2.262   7.087  18.895  0.00  0.00    +0.000 A 
ATOM      8  C   UNL     1       3.305   6.426  18.225  0.00  0.00    +0.000 A 
ATOM      9  N   UNL     1       3.527   5.103  18.490  0.00  0.00    +0.000 N 
ENDROOT
BRANCH   1  16
ATOM     10  C   UNL     1       7.030   5.468  18.899  0.00  0.00    +0.000 C 
ATOM     11  C   UNL     1       6.769   5.042  17.476  0.00  0.00    +0.000 A 
ATOM     12  C   UNL     1       7.782   5.237  16.522  0.00  0.00    +0.000 A 
ATOM     13  C   UNL     1       7.604   4.852  15.195  0.00  0.00    +0.000 A 
ATOM     14  C   UNL     1       6.403   4.266  14.766  0.00  0.00    +0.000 A 
ATOM     15  C   UNL     1       5.388   4.075  15.723  0.00  0.00    +0.000 A 
ATOM     16  C   UNL     1       5.549   4.433  17.075  0.00  0.00    +0.000 A 
BRANCH  14  17
ATOM     17  C   UNL     1       6.242   3.851  13.328  0.00  0.00    +0.000 C 
ATOM     18  O   UNL     1       6.850   4.480  12.474  0.00  0.00    +0.000 OA
ATOM     19  N   UNL     1       5.472   2.780  12.952  0.00  0.00    +0.000 N 
ATOM     20  H   UNL     1       4.947   2.245  13.648  0.00  0.00    +0.000 HD
BRANCH  19  21
ATOM     21  C   UNL     1       5.364   2.309  11.580  0.00  0.00    +0.000 C 
BRANCH  21  22
ATOM     22  C   UNL     1       6.427   1.286  11.285  0.00  0.00    +0.000 C 
ATOM     23  N   UNL     1       6.167  -0.039  11.396  0.00  0.00    +0.000 N 
ATOM     24  O   UNL     1       7.543   1.657  10.955  0.00  0.00    +0.000 OA
ATOM     25  H   UNL     1       5.235  -0.377  11.680  0.00  0.00    +0.000 HD
ATOM     26  H   UNL     1       6.898  -0.735  11.184  0.00  0.00    +0.000 HD
ENDBRANCH  21  22
ENDBRANCH  19  21
ENDBRANCH  14  17
ENDBRANCH   1  16
BRANCH   7  27
ATOM     27  S   UNL     1       1.880   8.808  18.515  0.00  0.00    +0.000 S 
BRANCH  27  28
ATOM     28  C   UNL     1       1.064   9.218  20.065  0.00  0.00    +0.000 A 
ATOM     29  C   UNL     1       1.637   8.827  21.284  0.00  0.00    +0.000 A 
ATOM     30  C   UNL     1       0.985   9.105  22.492  0.00  0.00    +0.000 A 
ATOM     31  C   UNL     1      -0.235   9.784  22.489  0.00  0.00    +0.000 A 
ATOM     32  F   UNL     1      -0.872  10.055  23.655  0.00  0.00    +0.000 F 
ATOM     33  C   UNL     1      -0.804  10.173  21.277  0.00  0.00    +0.000 A 
ATOM     34  C   UNL     1      -0.167   9.880  20.067  0.00  0.00    +0.000 A 
ATOM     35  F   UNL     1      -0.754  10.224  18.897  0.00  0.00    +0.000 F 
ENDBRANCH  27  28
ENDBRANCH   7  27
TORSDOF 6
ENDMDL
MODEL 2
REMARK VINA RESULT:      -8.2      3.472      5.425
REMARK  Name = 
REMARK  7 active torsions:
REMARK  status: ('A' for Active; 'I' for Inactive)
REMARK    1  A    between atoms: C_1  and  C_2
REMARK    2  A    between atoms: C_5  and  C_6
REMARK    3  A    between atoms: N_8  and  C_9
REMARK    4  A    between atoms: C_9  and  C_10
REMARK    5  A    between atoms: C_14  and  C_15
REMARK    6  A    between atoms: C_21  and  S_22
REMARK    7  A    between atoms: S_22  and  C_23
REMARK                            x       y       z     vdW  Elec       q    Type
REMARK                         _______ _______ _______ _____ _____    ______ ____
ROOT
ATOM      1  C   UNL     1       2.721   5.831  19.407  0.00  0.00    +0.000 A 
ATOM      2  N   UNL     1       2.386   5.002  20.425  0.00  0.00    +0.000 NA
ATOM      3  N   UNL     1       1.620   5.678  21.275  0.00  0.00    +0.000 NA
ATOM      4  C   UNL     1       1.479   6.906  20.756  0.00  0.00    +0.000 A 
ATOM      5  C   UNL     1       0.738   7.953  21.304  0.00  0.00    +0.000 A 
ATOM      6  C   UNL     1       0.679   9.157  20.583  0.00  0.00    +0.000 A 
ATOM      7  C   UNL     1       1.344   9.280  19.347  0.00  0.00    +0.000 A 
ATOM      8  C   UNL     1       2.078   8.188  18.854  0.00  0.00    +0.000 A 
ATOM      9  N   UNL     1       2.131   7.039  19.593  0.00  0.00    +0.000 N 
ENDROOT
BRANCH   1  16
ATOM     10  C   UNL     1       2.079   3.530  17.527  0.00  0.00    +0.000 C 
ATOM     11  C   UNL     1       3.340   4.348  17.411  0.00  0.00    +0.000 A 
ATOM     12  C   UNL     1       4.248   4.038  16.384  0.00  0.00    +0.000 A 
ATOM     13  C   UNL     1       5.424   4.767  16.218  0.00  0.00    +0.000 A 
ATOM     14  C   UNL     1       5.744   5.829  17.079  0.00  0.00    +0.000 A 
ATOM     15  C   UNL     1       4.834   6.135  18.108  0.00  0.00    +0.000 A 
ATOM     16  C   UNL     1       3.629   5.431  18.284  0.00  0.00    +0.000 A 
BRANCH  14  17
ATOM     17  C   UNL     1       7.016   6.605  16.870  0.00  0.00    +0.000 C 
ATOM     18  O   UNL     1       7.745   6.282  15.942  0.00  0.00    +0.000 OA
ATOM     19  N   UNL     1       7.364   7.674  17.655  0.00  0.00    +0.000 N 
ATOM     20  H   UNL     1       6.775   7.957  18.442  0.00  0.00    +0.000 HD
BRANCH  19  21
ATOM     21  C   UNL     1       8.547   8.490  17.426  0.00  0.00    +0.000 C 
BRANCH  21  22
ATOM     22  C   UNL     1       8.518   9.720  18.294  0.00  0.00    +0.000 C 
ATOM     23  N   UNL     1       9.151   9.741  19.491  0.00  0.00    +0.000 N 
ATOM     24  O   UNL     1       7.904  10.706  17.917  0.00  0.00    +0.000 OA
ATOM     25  H   UNL     1       9.670   8.918  19.834  0.00  0.00    +0.000 HD
ATOM     26  H   UNL     1       9.134  10.590  20.077  0.00  0.00    +0.000 HD
ENDBRANCH  21  22
ENDBRANCH  19  21
ENDBRANCH  14  17
ENDBRANCH   1  16
BRANCH   7  27
ATOM     27  S   UNL     1       1.177  10.785  18.367  0.00  0.00    +0.000 S 
BRANCH  27  28
ATOM     28  C   UNL     1      -0.620  10.811  18.276  0.00  0.00    +0.000 A 
ATOM     29  C   UNL     1      -1.294   9.887  17.466  0.00  0.00    +0.000 A 
ATOM     30  C   UNL     1      -2.690   9.929  17.357  0.00  0.00    +0.000 A 
ATOM     31  C   UNL     1      -3.418  10.888  18.064  0.00  0.00    +0.000 A 
ATOM     32  F   UNL     1      -4.770  10.935  17.962  0.00  0.00    +0.000 F 
ATOM     33  C   UNL     1      -2.747  11.807  18.870  0.00  0.00    +0.000 A 
ATOM     34  C   UNL     1      -1.352  11.781  18.967  0.00  0.00    +0.000 A 
ATOM     35  F   UNL     1      -0.712  12.708  19.717  0.00  0.00    +0.000 F 
ENDBRANCH  27  28
ENDBRANCH   7  27
TORSDOF 6
ENDMDL
MODEL 3
REMARK VINA RESULT:      -8.1      6.517     10.048
REMARK  Name = 
REMARK  7 active torsions:
REMARK  status: ('A' for Active; 'I' for Inactive)
REMARK    1  A    between atoms: C_1  and  C_2
REMARK    2  A    between atoms: C_5  and  C_6
REMARK    3  A    between atoms: N_8  and  C_9
REMARK    4  A    between atoms: C_9  and  C_10
REMARK    5  A    between atoms: C_14  and  C_15
REMARK    6  A    between atoms: C_21  and  S_22
REMARK    7  A    between atoms: S_22  and  C_23
REMARK                            x       y       z     vdW  Elec       q    Type
REMARK                         _______ _______ _______ _____ _____    ______ ____
ROOT
ATOM      1  C   UNL     1      -1.166  12.240  18.393  0.00  0.00    +0.000 A 
ATOM      2  N   UNL     1      -0.654  13.478  18.188  0.00  0.00    +0.000 NA
ATOM      3  N   UNL     1       0.431  13.608  18.943  0.00  0.00    +0.000 NA
ATOM      4  C   UNL     1       0.581  12.441  19.586  0.00  0.00    +0.000 A 
ATOM      5  C   UNL     1       1.603  12.116  20.479  0.00  0.00    +0.000 A 
ATOM      6  C   UNL     1       1.608  10.819  21.019  0.00  0.00    +0.000 A 
ATOM      7  C   UNL     1       0.615   9.891  20.653  0.00  0.00    +0.000 A 
ATOM      8  C   UNL     1      -0.390  10.284  19.752  0.00  0.00    +0.000 A 
ATOM      9  N   UNL     1      -0.377  11.561  19.263  0.00  0.00    +0.000 N 
ENDROOT
BRANCH   1  16
ATOM     10  C   UNL     1      -3.850  12.289  19.823  0.00  0.00    +0.000 C 
ATOM     11  C   UNL     1      -3.684  11.764  18.419  0.00  0.00    +0.000 A 
ATOM     12  C   UNL     1      -4.821  11.288  17.743  0.00  0.00    +0.000 A 
ATOM     13  C   UNL     1      -4.734  10.803  16.441  0.00  0.00    +0.000 A 
ATOM     14  C   UNL     1      -3.504  10.764  15.764  0.00  0.00    +0.000 A 
ATOM     15  C   UNL     1      -2.366  11.238  16.444  0.00  0.00    +0.000 A 
ATOM     16  C   UNL     1      -2.430  11.755  17.751  0.00  0.00    +0.000 A 
BRANCH  14  17
ATOM     17  C   UNL     1      -3.441  10.244  14.353  0.00  0.00    +0.000 C 
ATOM     18  O   UNL     1      -2.386   9.766  13.960  0.00  0.00    +0.000 OA
ATOM     19  N   UNL     1      -4.526  10.256  13.514  0.00  0.00    +0.000 N 
ATOM     20  H   UNL     1      -5.416  10.659  13.817  0.00  0.00    +0.000 HD
BRANCH  19  21
ATOM     21  C   UNL     1      -4.515   9.688  12.175  0.00  0.00    +0.000 C 
BRANCH  21  22
ATOM     22  C   UNL     1      -5.917   9.404  11.708  0.00  0.00    +0.000 C 
ATOM     23  N   UNL     1      -6.491  10.153  10.736  0.00  0.00    +0.000 N 
ATOM     24  O   UNL     1      -6.549   8.494  12.223  0.00  0.00    +0.000 OA
ATOM     25  H   UNL     1      -5.981  10.931  10.292  0.00  0.00    +0.000 HD
ATOM     26  H   UNL     1      -7.450   9.948  10.415  0.00  0.00    +0.000 HD
ENDBRANCH  21  22
ENDBRANCH  19  21
ENDBRANCH  14  17
ENDBRANCH   1  16
BRANCH   7  27
ATOM     27  S   UNL     1       0.685   8.193  21.257  0.00  0.00    +0.000 S 
BRANCH  27  28
ATOM     28  C   UNL     1       1.773   7.533  19.986  0.00  0.00    +0.000 A 
ATOM     29  C   UNL     1       2.070   8.300  18.850  0.00  0.00    +0.000 A 
ATOM     30  C   UNL     1       2.883   7.776  17.837  0.00  0.00    +0.000 A 
ATOM     31  C   UNL     1       3.408   6.488  17.958  0.00  0.00    +0.000 A 
ATOM     32  F   UNL     1       4.195   5.974  16.979  0.00  0.00    +0.000 F 
ATOM     33  C   UNL     1       3.113   5.726  19.087  0.00  0.00    +0.000 A 
ATOM     34  C   UNL     1       2.287   6.237  20.093  0.00  0.00    +0.000 A 
ATOM     35  F   UNL     1       1.972   5.469  21.161  0.00  0.00    +0.000 F 
ENDBRANCH  27  28
ENDBRANCH   7  27
TORSDOF 6
ENDMDL
MODEL 4
REMARK VINA RESULT:      -8.0      1.047      1.058
REMARK  Name = 
REMARK  7 active torsions:
REMARK  status: ('A' for Active; 'I' for Inactive)
REMARK    1  A    between atoms: C_1  and  C_2
REMARK    2  A    between atoms: C_5  and  C_6
REMARK    3  A    between atoms: N_8  and  C_9
REMARK    4  A    between atoms: C_9  and  C_10
REMARK    5  A    between atoms: C_14  and  C_15
REMARK    6  A    between atoms: C_21  and  S_22
REMARK    7  A    between atoms: S_22  and  C_23
REMARK                            x       y       z     vdW  Elec       q    Type
REMARK                         _______ _______ _______ _____ _____    ______ ____
ROOT
ATOM      1  C   UNL     1       4.257   4.376  18.812  0.00  0.00    +0.000 A 
ATOM      2  N   UNL     1       3.985   3.222  19.470  0.00  0.00    +0.000 NA
ATOM      3  N   UNL     1       2.969   3.446  20.296  0.00  0.00    +0.000 NA
ATOM      4  C   UNL     1       2.618   4.728  20.119  0.00  0.00    +0.000 A 
ATOM      5  C   UNL     1       1.581   5.398  20.770  0.00  0.00    +0.000 A 
ATOM      6  C   UNL     1       1.344   6.735  20.413  0.00  0.00    +0.000 A 
ATOM      7  C   UNL     1       2.130   7.359  19.424  0.00  0.00    +0.000 A 
ATOM      8  C   UNL     1       3.162   6.629  18.811  0.00  0.00    +0.000 A 
ATOM      9  N   UNL     1       3.379   5.336  19.199  0.00  0.00    +0.000 N 
ENDROOT
BRANCH   1  16
ATOM     10  C   UNL     1       7.052   5.225  19.655  0.00  0.00    +0.000 C 
ATOM     11  C   UNL     1       6.688   4.930  18.221  0.00  0.00    +0.000 A 
ATOM     12  C   UNL     1       7.687   5.042  17.240  0.00  0.00    +0.000 A 
ATOM     13  C   UNL     1       7.415   4.769  15.901  0.00  0.00    +0.000 A 
ATOM     14  C   UNL     1       6.131   4.382  15.489  0.00  0.00    +0.000 A 
ATOM     15  C   UNL     1       5.131   4.273  16.473  0.00  0.00    +0.000 A 
ATOM     16  C   UNL     1       5.383   4.520  17.835  0.00  0.00    +0.000 A 
BRANCH  14  17
ATOM     17  C   UNL     1       5.868   4.083  14.037  0.00  0.00    +0.000 C 
ATOM     18  O   UNL     1       4.713   4.127  13.638  0.00  0.00    +0.000 OA
ATOM     19  N   UNL     1       6.874   3.802  13.149  0.00  0.00    +0.000 N 
ATOM     20  H   UNL     1       7.847   3.751  13.461  0.00  0.00    +0.000 HD
BRANCH  19  21
ATOM     21  C   UNL     1       6.656   3.588  11.727  0.00  0.00    +0.000 C 
BRANCH  21  22
ATOM     22  C   UNL     1       6.269   2.159  11.458  0.00  0.00    +0.000 C 
ATOM     23  N   UNL     1       7.213   1.200  11.305  0.00  0.00    +0.000 N 
ATOM     24  O   UNL     1       5.087   1.865  11.363  0.00  0.00    +0.000 OA
ATOM     25  H   UNL     1       8.217   1.425  11.373  0.00  0.00    +0.000 HD
ATOM     26  H   UNL     1       6.941   0.220  11.130  0.00  0.00    +0.000 HD
ENDBRANCH  21  22
ENDBRANCH  19  21
ENDBRANCH  14  17
ENDBRANCH   1  16
BRANCH   7  27
ATOM     27  S   UNL     1       1.754   9.038  18.885  0.00  0.00    +0.000 S 
BRANCH  27  28
ATOM     28  C   UNL     1       0.829   9.553  20.339  0.00  0.00    +0.000 A 
ATOM     29  C   UNL     1       1.265   9.178  21.617  0.00  0.00    +0.000 A 
ATOM     30  C   UNL     1       0.526   9.539  22.751  0.00  0.00    +0.000 A 
ATOM     31  C   UNL     1      -0.647  10.284  22.612  0.00  0.00    +0.000 A 
ATOM     32  F   UNL     1      -1.368  10.636  23.706  0.00  0.00    +0.000 F 
ATOM     33  C   UNL     1      -1.081  10.657  21.341  0.00  0.00    +0.000 A 
ATOM     34  C   UNL     1      -0.356  10.283  20.205  0.00  0.00    +0.000 A 
ATOM     35  F   UNL     1      -0.815  10.613  18.975  0.00  0.00    +0.000 F 
ENDBRANCH  27  28
ENDBRANCH   7  27
TORSDOF 6
ENDMDL
MODEL 5
REMARK VINA RESULT:      -8.0      3.526      5.315
REMARK  Name = 
REMARK  7 active torsions:
REMARK  status: ('A' for Active; 'I' for Inactive)
REMARK    1  A    between atoms: C_1  and  C_2
REMARK    2  A    between atoms: C_5  and  C_6
REMARK    3  A    between atoms: N_8  and  C_9
REMARK    4  A    between atoms: C_9  and  C_10
REMARK    5  A    between atoms: C_14  and  C_15
REMARK    6  A    between atoms: C_21  and  S_22
REMARK    7  A    between atoms: S_22  and  C_23
REMARK                            x       y       z     vdW  Elec       q    Type
REMARK                         _______ _______ _______ _____ _____    ______ ____
ROOT
ATOM      1  C   UNL     1       2.666   5.894  19.352  0.00  0.00    +0.000 A 
ATOM      2  N   UNL     1       2.262   5.066  20.346  0.00  0.00    +0.000 NA
ATOM      3  N   UNL     1       1.503   5.764  21.184  0.00  0.00    +0.000 NA
ATOM      4  C   UNL     1       1.436   7.005  20.683  0.00  0.00    +0.000 A 
ATOM      5  C   UNL     1       0.729   8.078  21.227  0.00  0.00    +0.000 A 
ATOM      6  C   UNL     1       0.749   9.295  20.525  0.00  0.00    +0.000 A 
ATOM      7  C   UNL     1       1.457   9.406  19.312  0.00  0.00    +0.000 A 
ATOM      8  C   UNL     1       2.153   8.288  18.822  0.00  0.00    +0.000 A 
ATOM      9  N   UNL     1       2.129   7.126  19.542  0.00  0.00    +0.000 N 
ENDROOT
BRANCH   1  16
ATOM     10  C   UNL     1       2.099   3.487  17.584  0.00  0.00    +0.000 C 
ATOM     11  C   UNL     1       3.335   4.337  17.430  0.00  0.00    +0.000 A 
ATOM     12  C   UNL     1       4.254   4.006  16.420  0.00  0.00    +0.000 A 
ATOM     13  C   UNL     1       5.407   4.762  16.220  0.00  0.00    +0.000 A 
ATOM     14  C   UNL     1       5.692   5.874  17.029  0.00  0.00    +0.000 A 
ATOM     15  C   UNL     1       4.772   6.201  18.042  0.00  0.00    +0.000 A 
ATOM     16  C   UNL     1       3.588   5.469  18.251  0.00  0.00    +0.000 A 
BRANCH  14  17
ATOM     17  C   UNL     1       6.941   6.678  16.784  0.00  0.00    +0.000 C 
ATOM     18  O   UNL     1       7.724   6.283  15.932  0.00  0.00    +0.000 OA
ATOM     19  N   UNL     1       7.208   7.845  17.452  0.00  0.00    +0.000 N 
ATOM     20  H   UNL     1       6.572   8.190  18.175  0.00  0.00    +0.000 HD
BRANCH  19  21
ATOM     21  C   UNL     1       8.366   8.682  17.179  0.00  0.00    +0.000 C 
BRANCH  21  22
ATOM     22  C   UNL     1       8.604   9.644  18.311  0.00  0.00    +0.000 C 
ATOM     23  N   UNL     1       8.971   9.197  19.537  0.00  0.00    +0.000 N 
ATOM     24  O   UNL     1       8.450  10.841  18.126  0.00  0.00    +0.000 OA
ATOM     25  H   UNL     1       9.100   8.191  19.720  0.00  0.00    +0.000 HD
ATOM     26  H   UNL     1       9.141   9.863  20.307  0.00  0.00    +0.000 HD
ENDBRANCH  21  22
ENDBRANCH  19  21
ENDBRANCH  14  17
ENDBRANCH   1  16
BRANCH   7  27
ATOM     27  S   UNL     1       1.391  10.932  18.354  0.00  0.00    +0.000 S 
BRANCH  27  28
ATOM     28  C   UNL     1      -0.362  11.274  18.571  0.00  0.00    +0.000 A 
ATOM     29  C   UNL     1      -0.776  12.285  19.449  0.00  0.00    +0.000 A 
ATOM     30  C   UNL     1      -2.140  12.527  19.655  0.00  0.00    +0.000 A 
ATOM     31  C   UNL     1      -3.095  11.767  18.978  0.00  0.00    +0.000 A 
ATOM     32  F   UNL     1      -4.418  11.996  19.174  0.00  0.00    +0.000 F 
ATOM     33  C   UNL     1      -2.684  10.761  18.105  0.00  0.00    +0.000 A 
ATOM     34  C   UNL     1      -1.323  10.503  17.910  0.00  0.00    +0.000 A 
ATOM     35  F   UNL     1      -0.940   9.493  17.094  0.00  0.00    +0.000 F 
ENDBRANCH  27  28
ENDBRANCH   7  27
TORSDOF 6
ENDMDL
MODEL 6
REMARK VINA RESULT:      -7.9      5.364      8.305
REMARK  Name = 
REMARK  7 active torsions:
REMARK  status: ('A' for Active; 'I' for Inactive)
REMARK    1  A    between atoms: C_1  and  C_2
REMARK    2  A    between atoms: C_5  and  C_6
REMARK    3  A    between atoms: N_8  and  C_9
REMARK    4  A    between atoms: C_9  and  C_10
REMARK    5  A    between atoms: C_14  and  C_15
REMARK    6  A    between atoms: C_21  and  S_22
REMARK    7  A    between atoms: S_22  and  C_23
REMARK                            x       y       z     vdW  Elec       q    Type
REMARK                         _______ _______ _______ _____ _____    ______ ____
ROOT
ATOM      1  C   UNL     1       0.160  11.059  19.146  0.00  0.00    +0.000 A 
ATOM      2  N   UNL     1      -0.814  11.099  18.205  0.00  0.00    +0.000 NA
ATOM      3  N   UNL     1      -1.095  12.374  17.954  0.00  0.00    +0.000 NA
ATOM      4  C   UNL     1      -0.276  13.097  18.731  0.00  0.00    +0.000 A 
ATOM      5  C   UNL     1      -0.208  14.490  18.787  0.00  0.00    +0.000 A 
ATOM      6  C   UNL     1       0.751  15.062  19.638  0.00  0.00    +0.000 A 
ATOM      7  C   UNL     1       1.613  14.242  20.393  0.00  0.00    +0.000 A 
ATOM      8  C   UNL     1       1.488  12.846  20.295  0.00  0.00    +0.000 A 
ATOM      9  N   UNL     1       0.528  12.324  19.473  0.00  0.00    +0.000 N 
ENDROOT
BRANCH   1  16
ATOM     10  C   UNL     1      -0.482  10.149  21.975  0.00  0.00    +0.000 C 
ATOM     11  C   UNL     1       0.409   9.360  21.048  0.00  0.00    +0.000 A 
ATOM     12  C   UNL     1       0.954   8.150  21.512  0.00  0.00    +0.000 A 
ATOM     13  C   UNL     1       1.773   7.372  20.697  0.00  0.00    +0.000 A 
ATOM     14  C   UNL     1       2.088   7.776  19.390  0.00  0.00    +0.000 A 
ATOM     15  C   UNL     1       1.544   8.989  18.930  0.00  0.00    +0.000 A 
ATOM     16  C   UNL     1       0.695   9.784  19.722  0.00  0.00    +0.000 A 
BRANCH  14  17
ATOM     17  C   UNL     1       2.968   6.909  18.529  0.00  0.00    +0.000 C 
ATOM     18  O   UNL     1       3.561   7.434  17.597  0.00  0.00    +0.000 OA
ATOM     19  N   UNL     1       3.152   5.573  18.775  0.00  0.00    +0.000 N 
ATOM     20  H   UNL     1       2.660   5.111  19.543  0.00  0.00    +0.000 HD
BRANCH  19  21
ATOM     21  C   UNL     1       4.057   4.731  18.008  0.00  0.00    +0.000 C 
BRANCH  21  22
ATOM     22  C   UNL     1       5.128   4.157  18.896  0.00  0.00    +0.000 C 
ATOM     23  N   UNL     1       5.036   2.889  19.366  0.00  0.00    +0.000 N 
ATOM     24  O   UNL     1       6.084   4.849  19.208  0.00  0.00    +0.000 OA
ATOM     25  H   UNL     1       4.234   2.288  19.123  0.00  0.00    +0.000 HD
ATOM     26  H   UNL     1       5.777   2.499  19.968  0.00  0.00    +0.000 HD
ENDBRANCH  21  22
ENDBRANCH  19  21
ENDBRANCH  14  17
ENDBRANCH   1  16
BRANCH   7  27
ATOM     27  S   UNL     1       2.918  14.973  21.399  0.00  0.00    +0.000 S 
BRANCH  27  28
ATOM     28  C   UNL     1       4.205  14.990  20.142  0.00  0.00    +0.000 A 
ATOM     29  C   UNL     1       3.860  14.921  18.785  0.00  0.00    +0.000 A 
ATOM     30  C   UNL     1       4.859  14.891  17.803  0.00  0.00    +0.000 A 
ATOM     31  C   UNL     1       6.204  14.939  18.172  0.00  0.00    +0.000 A 
ATOM     32  F   UNL     1       7.176  14.909  17.226  0.00  0.00    +0.000 F 
ATOM     33  C   UNL     1       6.547  15.008  19.522  0.00  0.00    +0.000 A 
ATOM     34  C   UNL     1       5.555  15.019  20.507  0.00  0.00    +0.000 A 
ATOM     35  F   UNL     1       5.904  15.040  21.814  0.00  0.00    +0.000 F 
ENDBRANCH  27  28
ENDBRANCH   7  27
TORSDOF 6
ENDMDL
MODEL 7
REMARK VINA RESULT:      -7.9      6.359     10.084
REMARK  Name = 
REMARK  7 active torsions:
REMARK  status: ('A' for Active; 'I' for Inactive)
REMARK    1  A    between atoms: C_1  and  C_2
REMARK    2  A    between atoms: C_5  and  C_6
REMARK    3  A    between atoms: N_8  and  C_9
REMARK    4  A    between atoms: C_9  and  C_10
REMARK    5  A    between atoms: C_14  and  C_15
REMARK    6  A    between atoms: C_21  and  S_22
REMARK    7  A    between atoms: S_22  and  C_23
REMARK                            x       y       z     vdW  Elec       q    Type
REMARK                         _______ _______ _______ _____ _____    ______ ____
ROOT
ATOM      1  C   UNL     1       0.327  10.036  20.462  0.00  0.00    +0.000 A 
ATOM      2  N   UNL     1      -0.281   9.832  21.656  0.00  0.00    +0.000 NA
ATOM      3  N   UNL     1      -0.007   8.594  22.054  0.00  0.00    +0.000 NA
ATOM      4  C   UNL     1       0.783   8.063  21.109  0.00  0.00    +0.000 A 
ATOM      5  C   UNL     1       1.331   6.780  21.117  0.00  0.00    +0.000 A 
ATOM      6  C   UNL     1       2.172   6.425  20.049  0.00  0.00    +0.000 A 
ATOM      7  C   UNL     1       2.447   7.348  19.021  0.00  0.00    +0.000 A 
ATOM      8  C   UNL     1       1.857   8.622  19.071  0.00  0.00    +0.000 A 
ATOM      9  N   UNL     1       1.027   8.927  20.114  0.00  0.00    +0.000 N 
ENDROOT
BRANCH   1  16
ATOM     10  C   UNL     1      -1.866  10.457  18.398  0.00  0.00    +0.000 C 
ATOM     11  C   UNL     1      -0.821  11.502  18.702  0.00  0.00    +0.000 A 
ATOM     12  C   UNL     1      -0.874  12.722  18.007  0.00  0.00    +0.000 A 
ATOM     13  C   UNL     1       0.054  13.731  18.254  0.00  0.00    +0.000 A 
ATOM     14  C   UNL     1       1.079  13.556  19.197  0.00  0.00    +0.000 A 
ATOM     15  C   UNL     1       1.132  12.331  19.889  0.00  0.00    +0.000 A 
ATOM     16  C   UNL     1       0.193  11.305  19.677  0.00  0.00    +0.000 A 
BRANCH  14  17
ATOM     17  C   UNL     1       2.063  14.667  19.450  0.00  0.00    +0.000 C 
ATOM     18  O   UNL     1       1.664  15.821  19.371  0.00  0.00    +0.000 OA
ATOM     19  N   UNL     1       3.369  14.430  19.797  0.00  0.00    +0.000 N 
ATOM     20  H   UNL     1       3.727  13.474  19.859  0.00  0.00    +0.000 HD
BRANCH  19  21
ATOM     21  C   UNL     1       4.318  15.483  20.123  0.00  0.00    +0.000 C 
BRANCH  21  22
ATOM     22  C   UNL     1       4.993  15.993  18.879  0.00  0.00    +0.000 C 
ATOM     23  N   UNL     1       5.635  15.146  18.038  0.00  0.00    +0.000 N 
ATOM     24  O   UNL     1       4.973  17.189  18.632  0.00  0.00    +0.000 OA
ATOM     25  H   UNL     1       5.672  14.134  18.230  0.00  0.00    +0.000 HD
ATOM     26  H   UNL     1       6.088  15.502  17.183  0.00  0.00    +0.000 HD
ENDBRANCH  21  22
ENDBRANCH  19  21
ENDBRANCH  14  17
ENDBRANCH   1  16
BRANCH   7  27
ATOM     27  S   UNL     1       3.613   6.932  17.710  0.00  0.00    +0.000 S 
BRANCH  27  28
ATOM     28  C   UNL     1       3.645   5.153  17.975  0.00  0.00    +0.000 A 
ATOM     29  C   UNL     1       2.704   4.333  17.337  0.00  0.00    +0.000 A 
ATOM     30  C   UNL     1       2.696   2.952  17.572  0.00  0.00    +0.000 A 
ATOM     31  C   UNL     1       3.633   2.385  18.438  0.00  0.00    +0.000 A 
ATOM     32  F   UNL     1       3.630   1.048  18.671  0.00  0.00    +0.000 F 
ATOM     33  C   UNL     1       4.568   3.201  19.072  0.00  0.00    +0.000 A 
ATOM     34  C   UNL     1       4.569   4.582  18.855  0.00  0.00    +0.000 A 
ATOM     35  F   UNL     1       5.454   5.367  19.513  0.00  0.00    +0.000 F 
ENDBRANCH  27  28
ENDBRANCH   7  27
TORSDOF 6
ENDMDL
MODEL 8
REMARK VINA RESULT:      -7.9      4.182      7.246
REMARK  Name = 
REMARK  7 active torsions:
REMARK  status: ('A' for Active; 'I' for Inactive)
REMARK    1  A    between atoms: C_1  and  C_2
REMARK    2  A    between atoms: C_5  and  C_6
REMARK    3  A    between atoms: N_8  and  C_9
REMARK    4  A    between atoms: C_9  and  C_10
REMARK    5  A    between atoms: C_14  and  C_15
REMARK    6  A    between atoms: C_21  and  S_22
REMARK    7  A    between atoms: S_22  and  C_23
REMARK                            x       y       z     vdW  Elec       q    Type
REMARK                         _______ _______ _______ _____ _____    ______ ____
ROOT
ATOM      1  C   UNL     1       0.547   9.817  21.443  0.00  0.00    +0.000 A 
ATOM      2  N   UNL     1       0.930   9.430  22.685  0.00  0.00    +0.000 NA
ATOM      3  N   UNL     1       0.163  10.058  23.569  0.00  0.00    +0.000 NA
ATOM      4  C   UNL     1      -0.692  10.807  22.858  0.00  0.00    +0.000 A 
ATOM      5  C   UNL     1      -1.697  11.626  23.374  0.00  0.00    +0.000 A 
ATOM      6  C   UNL     1      -2.521  12.301  22.458  0.00  0.00    +0.000 A 
ATOM      7  C   UNL     1      -2.330  12.136  21.072  0.00  0.00    +0.000 A 
ATOM      8  C   UNL     1      -1.296  11.300  20.619  0.00  0.00    +0.000 A 
ATOM      9  N   UNL     1      -0.499  10.676  21.539  0.00  0.00    +0.000 N 
ENDROOT
BRANCH   1  16
ATOM     10  C   UNL     1       1.158  11.694  19.131  0.00  0.00    +0.000 C 
ATOM     11  C   UNL     1       1.504  10.226  19.102  0.00  0.00    +0.000 A 
ATOM     12  C   UNL     1       2.145   9.712  17.962  0.00  0.00    +0.000 A 
ATOM     13  C   UNL     1       2.502   8.368  17.882  0.00  0.00    +0.000 A 
ATOM     14  C   UNL     1       2.223   7.482  18.935  0.00  0.00    +0.000 A 
ATOM     15  C   UNL     1       1.579   7.999  20.074  0.00  0.00    +0.000 A 
ATOM     16  C   UNL     1       1.228   9.357  20.191  0.00  0.00    +0.000 A 
BRANCH  14  17
ATOM     17  C   UNL     1       2.629   6.036  18.826  0.00  0.00    +0.000 C 
ATOM     18  O   UNL     1       2.357   5.436  17.795  0.00  0.00    +0.000 OA
ATOM     19  N   UNL     1       3.318   5.387  19.818  0.00  0.00    +0.000 N 
ATOM     20  H   UNL     1       3.548   5.866  20.692  0.00  0.00    +0.000 HD
BRANCH  19  21
ATOM     21  C   UNL     1       3.791   4.016  19.706  0.00  0.00    +0.000 C 
BRANCH  21  22
ATOM     22  C   UNL     1       5.020   3.949  18.840  0.00  0.00    +0.000 C 
ATOM     23  N   UNL     1       4.953   3.475  17.572  0.00  0.00    +0.000 N 
ATOM     24  O   UNL     1       6.094   4.314  19.292  0.00  0.00    +0.000 OA
ATOM     25  H   UNL     1       4.059   3.154  17.171  0.00  0.00    +0.000 HD
ATOM     26  H   UNL     1       5.798   3.440  16.981  0.00  0.00    +0.000 HD
ENDBRANCH  21  22
ENDBRANCH  19  21
ENDBRANCH  14  17
ENDBRANCH   1  16
BRANCH   7  27
ATOM     27  S   UNL     1      -3.457  12.912  19.898  0.00  0.00    +0.000 S 
BRANCH  27  28
ATOM     28  C   UNL     1      -3.230  11.747  18.546  0.00  0.00    +0.000 A 
ATOM     29  C   UNL     1      -4.095  10.652  18.411  0.00  0.00    +0.000 A 
ATOM     30  C   UNL     1      -3.898   9.718  17.386  0.00  0.00    +0.000 A 
ATOM     31  C   UNL     1      -2.842   9.878  16.488  0.00  0.00    +0.000 A 
ATOM     32  F   UNL     1      -2.645   8.976  15.493  0.00  0.00    +0.000 F 
ATOM     33  C   UNL     1      -1.982  10.967  16.622  0.00  0.00    +0.000 A 
ATOM     34  C   UNL     1      -2.163  11.892  17.654  0.00  0.00    +0.000 A 
ATOM     35  F   UNL     1      -1.293  12.919  17.799  0.00  0.00    +0.000 F 
ENDBRANCH  27  28
ENDBRANCH   7  27
TORSDOF 6
ENDMDL
MODEL 9
REMARK VINA RESULT:      -7.9      1.423      2.185
REMARK  Name = 
REMARK  7 active torsions:
REMARK  status: ('A' for Active; 'I' for Inactive)
REMARK    1  A    between atoms: C_1  and  C_2
REMARK    2  A    between atoms: C_5  and  C_6
REMARK    3  A    between atoms: N_8  and  C_9
REMARK    4  A    between atoms: C_9  and  C_10
REMARK    5  A    between atoms: C_14  and  C_15
REMARK    6  A    between atoms: C_21  and  S_22
REMARK    7  A    between atoms: S_22  and  C_23
REMARK                            x       y       z     vdW  Elec       q    Type
REMARK                         _______ _______ _______ _____ _____    ______ ____
ROOT
ATOM      1  C   UNL     1       3.623   3.948  18.037  0.00  0.00    +0.000 A 
ATOM      2  N   UNL     1       2.990   2.809  17.664  0.00  0.00    +0.000 NA
ATOM      3  N   UNL     1       1.856   2.721  18.350  0.00  0.00    +0.000 NA
ATOM      4  C   UNL     1       1.798   3.818  19.120  0.00  0.00    +0.000 A 
ATOM      5  C   UNL     1       0.768   4.156  19.998  0.00  0.00    +0.000 A 
ATOM      6  C   UNL     1       0.875   5.376  20.687  0.00  0.00    +0.000 A 
ATOM      7  C   UNL     1       1.984   6.218  20.478  0.00  0.00    +0.000 A 
ATOM      8  C   UNL     1       2.989   5.815  19.583  0.00  0.00    +0.000 A 
ATOM      9  N   UNL     1       2.864   4.611  18.946  0.00  0.00    +0.000 N 
ENDROOT
BRANCH   1  16
ATOM     10  C   UNL     1       5.830   5.004  19.842  0.00  0.00    +0.000 C 
ATOM     11  C   UNL     1       5.997   4.859  18.350  0.00  0.00    +0.000 A 
ATOM     12  C   UNL     1       7.229   5.218  17.777  0.00  0.00    +0.000 A 
ATOM     13  C   UNL     1       7.448   5.093  16.407  0.00  0.00    +0.000 A 
ATOM     14  C   UNL     1       6.441   4.614  15.554  0.00  0.00    +0.000 A 
ATOM     15  C   UNL     1       5.207   4.259  16.130  0.00  0.00    +0.000 A 
ATOM     16  C   UNL     1       4.967   4.352  17.513  0.00  0.00    +0.000 A 
BRANCH  14  17
ATOM     17  C   UNL     1       6.709   4.481  14.078  0.00  0.00    +0.000 C 
ATOM     18  O   UNL     1       7.373   5.350  13.531  0.00  0.00    +0.000 OA
ATOM     19  N   UNL     1       6.269   3.410  13.343  0.00  0.00    +0.000 N 
ATOM     20  H   UNL     1       5.704   2.676  13.778  0.00  0.00    +0.000 HD
BRANCH  19  21
ATOM     21  C   UNL     1       6.581   3.217  11.936  0.00  0.00    +0.000 C 
BRANCH  21  22
ATOM     22  C   UNL     1       5.774   2.083  11.365  0.00  0.00    +0.000 C 
ATOM     23  N   UNL     1       6.339   0.872  11.137  0.00  0.00    +0.000 N 
ATOM     24  O   UNL     1       4.597   2.261  11.090  0.00  0.00    +0.000 OA
ATOM     25  H   UNL     1       7.332   0.700  11.354  0.00  0.00    +0.000 HD
ATOM     26  H   UNL     1       5.779   0.097  10.753  0.00  0.00    +0.000 HD
ENDBRANCH  21  22
ENDBRANCH  19  21
ENDBRANCH  14  17
ENDBRANCH   1  16
BRANCH   7  27
ATOM     27  S   UNL     1       2.066   7.834  21.275  0.00  0.00    +0.000 S 
BRANCH  27  28
ATOM     28  C   UNL     1       1.061   8.736  20.087  0.00  0.00    +0.000 A 
ATOM     29  C   UNL     1       1.501   8.881  18.763  0.00  0.00    +0.000 A 
ATOM     30  C   UNL     1       0.744   9.619  17.844  0.00  0.00    +0.000 A 
ATOM     31  C   UNL     1      -0.459  10.207  18.241  0.00  0.00    +0.000 A 
ATOM     32  F   UNL     1      -1.196  10.924  17.356  0.00  0.00    +0.000 F 
ATOM     33  C   UNL     1      -0.896  10.063  19.557  0.00  0.00    +0.000 A 
ATOM     34  C   UNL     1      -0.134   9.343  20.483  0.00  0.00    +0.000 A 
ATOM     35  F   UNL     1      -0.549   9.251  21.768  0.00  0.00    +0.000 F 
ENDBRANCH  27  28
ENDBRANCH   7  27
TORSDOF 6
ENDMDL
