MODEL 1
REMARK VINA RESULT:      -9.6      0.000      0.000
REMARK  Name = 
REMARK  6 active torsions:
REMARK  status: ('A' for Active; 'I' for Inactive)
REMARK    1  A    between atoms: C_1  and  C_2
REMARK    2  A    between atoms: C_6  and  C_7
REMARK    3  A    between atoms: C_7  and  N_8
REMARK    4  A    between atoms: C_10  and  C_11
REMARK    5  A    between atoms: C_16  and  O_17
REMARK    6  A    between atoms: C_19  and  O_20
REMARK                            x       y       z     vdW  Elec       q    Type
REMARK                         _______ _______ _______ _____ _____    ______ ____
ROOT
ATOM      1  N   UNL     1       3.290   5.758  18.306  0.00  0.00    +0.000 N 
ATOM      2  C   UNL     1       3.026   6.828  19.110  0.00  0.00    +0.000 A 
ATOM      3  C   UNL     1       2.099   6.454  20.064  0.00  0.00    +0.000 A 
ATOM      4  C   UNL     1       1.794   5.076  19.832  0.00  0.00    +0.000 A 
ATOM      5  C   UNL     1       0.920   4.131  20.412  0.00  0.00    +0.000 A 
ATOM      6  C   UNL     1       0.911   2.808  19.941  0.00  0.00    +0.000 A 
ATOM      7  C   UNL     1       1.768   2.407  18.922  0.00  0.00    +0.000 A 
ATOM      8  C   UNL     1       2.630   3.321  18.318  0.00  0.00    +0.000 A 
ATOM      9  C   UNL     1       2.608   4.651  18.767  0.00  0.00    +0.000 A 
ENDROOT
BRANCH   3  10
ATOM     10  C   UNL     1       1.678   7.362  21.098  0.00  0.00    +0.000 C 
ATOM     11  C   UNL     1       1.032   8.507  20.815  0.00  0.00    +0.000 C 
ATOM     12  O   UNL     1       0.499   8.754  19.555  0.00  0.00    +0.000 OA
ATOM     13  C   UNL     1       0.137  10.070  19.538  0.00  0.00    +0.000 A 
ATOM     14  C   UNL     1      -0.368  10.684  18.412  0.00  0.00    +0.000 A 
ATOM     15  C   UNL     1      -0.644  12.039  18.511  0.00  0.00    +0.000 A 
ATOM     16  C   UNL     1      -0.388  12.750  19.693  0.00  0.00    +0.000 A 
ATOM     17  C   UNL     1       0.129  12.095  20.822  0.00  0.00    +0.000 A 
ATOM     18  C   UNL     1       0.368  10.735  20.740  0.00  0.00    +0.000 A 
ATOM     19  C   UNL     1       0.901   9.721  21.682  0.00  0.00    +0.000 C 
ATOM     20  O   UNL     1       1.218   9.841  22.845  0.00  0.00    +0.000 OA
BRANCH  15  21
ATOM     21  O   UNL     1      -1.170  12.719  17.453  0.00  0.00    +0.000 OA
ATOM     22  H   UNL     1      -1.032  12.195  16.643  0.00  0.00    +0.000 HD
ENDBRANCH  15  21
BRANCH  17  23
ATOM     23  O   UNL     1       0.407  12.797  21.953  0.00  0.00    +0.000 OA
ATOM     24  H   UNL     1       0.803  13.653  21.713  0.00  0.00    +0.000 HD
ENDBRANCH  17  23
ENDBRANCH   3  10
BRANCH   1  25
ATOM     25  C   UNL     1       4.236   5.803  17.196  0.00  0.00    +0.000 C 
BRANCH  25  31
ATOM     26  C   UNL     1       8.309   5.290  20.163  0.00  0.00    +0.000 C 
ATOM     27  C   UNL     1       7.609   5.992  19.037  0.00  0.00    +0.000 A 
ATOM     28  C   UNL     1       8.162   7.128  18.439  0.00  0.00    +0.000 A 
ATOM     29  C   UNL     1       7.474   7.789  17.423  0.00  0.00    +0.000 A 
ATOM     30  C   UNL     1       6.225   7.328  17.007  0.00  0.00    +0.000 A 
ATOM     31  C   UNL     1       5.646   6.189  17.590  0.00  0.00    +0.000 A 
ATOM     32  C   UNL     1       6.359   5.529  18.603  0.00  0.00    +0.000 A 
ENDBRANCH  25  31
ENDBRANCH   1  25
TORSDOF 5
ENDMDL
MODEL 2
REMARK VINA RESULT:      -9.5      3.157      8.505
REMARK  Name = 
REMARK  6 active torsions:
REMARK  status: ('A' for Active; 'I' for Inactive)
REMARK    1  A    between atoms: C_1  and  C_2
REMARK    2  A    between atoms: C_6  and  C_7
REMARK    3  A    between atoms: C_7  and  N_8
REMARK    4  A    between atoms: C_10  and  C_11
REMARK    5  A    between atoms: C_16  and  O_17
REMARK    6  A    between atoms: C_19  and  O_20
REMARK                            x       y       z     vdW  Elec       q    Type
REMARK                         _______ _______ _______ _____ _____    ______ ____
ROOT
ATOM      1  N   UNL     1       0.169  10.774  18.886  0.00  0.00    +0.000 N 
ATOM      2  C   UNL     1       0.979  10.060  18.053  0.00  0.00    +0.000 A 
ATOM      3  C   UNL     1       1.621   9.079  18.785  0.00  0.00    +0.000 A 
ATOM      4  C   UNL     1       1.164   9.199  20.134  0.00  0.00    +0.000 A 
ATOM      5  C   UNL     1       1.450   8.544  21.352  0.00  0.00    +0.000 A 
ATOM      6  C   UNL     1       0.758   8.906  22.519  0.00  0.00    +0.000 A 
ATOM      7  C   UNL     1      -0.226   9.888  22.490  0.00  0.00    +0.000 A 
ATOM      8  C   UNL     1      -0.519  10.565  21.307  0.00  0.00    +0.000 A 
ATOM      9  C   UNL     1       0.203  10.225  20.151  0.00  0.00    +0.000 A 
ENDROOT
BRANCH   3  10
ATOM     10  C   UNL     1       2.492   8.122  18.155  0.00  0.00    +0.000 C 
ATOM     11  C   UNL     1       2.568   6.848  18.578  0.00  0.00    +0.000 C 
ATOM     12  O   UNL     1       1.635   6.312  19.458  0.00  0.00    +0.000 OA
ATOM     13  C   UNL     1       2.131   5.107  19.864  0.00  0.00    +0.000 A 
ATOM     14  C   UNL     1       1.494   4.322  20.800  0.00  0.00    +0.000 A 
ATOM     15  C   UNL     1       2.131   3.147  21.167  0.00  0.00    +0.000 A 
ATOM     16  C   UNL     1       3.379   2.797  20.630  0.00  0.00    +0.000 A 
ATOM     17  C   UNL     1       4.002   3.620  19.678  0.00  0.00    +0.000 A 
ATOM     18  C   UNL     1       3.350   4.773  19.280  0.00  0.00    +0.000 A 
ATOM     19  C   UNL     1       3.675   5.870  18.336  0.00  0.00    +0.000 C 
ATOM     20  O   UNL     1       4.625   5.991  17.593  0.00  0.00    +0.000 OA
BRANCH  15  21
ATOM     21  O   UNL     1       1.558   2.299  22.068  0.00  0.00    +0.000 OA
ATOM     22  H   UNL     1       1.444   2.770  22.913  0.00  0.00    +0.000 HD
ENDBRANCH  15  21
BRANCH  17  23
ATOM     23  O   UNL     1       5.228   3.292  19.188  0.00  0.00    +0.000 OA
ATOM     24  H   UNL     1       5.146   3.049  18.249  0.00  0.00    +0.000 HD
ENDBRANCH  17  23
ENDBRANCH   3  10
BRANCH   1  25
ATOM     25  C   UNL     1      -0.665  11.885  18.437  0.00  0.00    +0.000 C 
BRANCH  25  31
ATOM     26  C   UNL     1      -3.598  10.165  14.681  0.00  0.00    +0.000 C 
ATOM     27  C   UNL     1      -3.462  10.686  16.082  0.00  0.00    +0.000 A 
ATOM     28  C   UNL     1      -4.588  10.968  16.860  0.00  0.00    +0.000 A 
ATOM     29  C   UNL     1      -4.439  11.491  18.144  0.00  0.00    +0.000 A 
ATOM     30  C   UNL     1      -3.165  11.747  18.653  0.00  0.00    +0.000 A 
ATOM     31  C   UNL     1      -2.016  11.472  17.893  0.00  0.00    +0.000 A 
ATOM     32  C   UNL     1      -2.186  10.934  16.608  0.00  0.00    +0.000 A 
ENDBRANCH  25  31
ENDBRANCH   1  25
TORSDOF 5
ENDMDL
MODEL 3
REMARK VINA RESULT:      -9.4      0.841      1.073
REMARK  Name = 
REMARK  6 active torsions:
REMARK  status: ('A' for Active; 'I' for Inactive)
REMARK    1  A    between atoms: C_1  and  C_2
REMARK    2  A    between atoms: C_6  and  C_7
REMARK    3  A    between atoms: C_7  and  N_8
REMARK    4  A    between atoms: C_10  and  C_11
REMARK    5  A    between atoms: C_16  and  O_17
REMARK    6  A    between atoms: C_19  and  O_20
REMARK                            x       y       z     vdW  Elec       q    Type
REMARK                         _______ _______ _______ _____ _____    ______ ____
ROOT
ATOM      1  N   UNL     1       2.918   5.938  18.331  0.00  0.00    +0.000 N 
ATOM      2  C   UNL     1       2.597   7.014  19.107  0.00  0.00    +0.000 A 
ATOM      3  C   UNL     1       1.841   6.583  20.179  0.00  0.00    +0.000 A 
ATOM      4  C   UNL     1       1.707   5.165  20.053  0.00  0.00    +0.000 A 
ATOM      5  C   UNL     1       1.041   4.152  20.778  0.00  0.00    +0.000 A 
ATOM      6  C   UNL     1       1.164   2.812  20.377  0.00  0.00    +0.000 A 
ATOM      7  C   UNL     1       1.952   2.462  19.287  0.00  0.00    +0.000 A 
ATOM      8  C   UNL     1       2.608   3.441  18.540  0.00  0.00    +0.000 A 
ATOM      9  C   UNL     1       2.451   4.783  18.923  0.00  0.00    +0.000 A 
ENDROOT
BRANCH   3  10
ATOM     10  C   UNL     1       1.414   7.493  21.210  0.00  0.00    +0.000 C 
ATOM     11  C   UNL     1       0.832   8.669  20.918  0.00  0.00    +0.000 C 
ATOM     12  O   UNL     1       0.370   8.960  19.640  0.00  0.00    +0.000 OA
ATOM     13  C   UNL     1       0.067  10.291  19.630  0.00  0.00    +0.000 A 
ATOM     14  C   UNL     1      -0.359  10.945  18.494  0.00  0.00    +0.000 A 
ATOM     15  C   UNL     1      -0.579  12.308  18.604  0.00  0.00    +0.000 A 
ATOM     16  C   UNL     1      -0.346  12.990  19.808  0.00  0.00    +0.000 A 
ATOM     17  C   UNL     1       0.090  12.294  20.947  0.00  0.00    +0.000 A 
ATOM     18  C   UNL     1       0.271  10.926  20.852  0.00  0.00    +0.000 A 
ATOM     19  C   UNL     1       0.716   9.874  21.799  0.00  0.00    +0.000 C 
ATOM     20  O   UNL     1       0.984   9.962  22.978  0.00  0.00    +0.000 OA
BRANCH  15  21
ATOM     21  O   UNL     1      -1.026  13.028  17.534  0.00  0.00    +0.000 OA
ATOM     22  H   UNL     1      -1.690  12.499  17.057  0.00  0.00    +0.000 HD
ENDBRANCH  15  21
BRANCH  17  23
ATOM     23  O   UNL     1       0.346  12.966  22.102  0.00  0.00    +0.000 OA
ATOM     24  H   UNL     1       1.159  13.491  21.997  0.00  0.00    +0.000 HD
ENDBRANCH  17  23
ENDBRANCH   3  10
BRANCH   1  25
ATOM     25  C   UNL     1       3.722   6.035  17.117  0.00  0.00    +0.000 C 
BRANCH  25  31
ATOM     26  C   UNL     1       8.140   5.638  19.563  0.00  0.00    +0.000 C 
ATOM     27  C   UNL     1       7.279   5.295  18.383  0.00  0.00    +0.000 A 
ATOM     28  C   UNL     1       7.796   4.593  17.291  0.00  0.00    +0.000 A 
ATOM     29  C   UNL     1       6.990   4.322  16.187  0.00  0.00    +0.000 A 
ATOM     30  C   UNL     1       5.666   4.762  16.161  0.00  0.00    +0.000 A 
ATOM     31  C   UNL     1       5.120   5.469  17.244  0.00  0.00    +0.000 A 
ATOM     32  C   UNL     1       5.943   5.722  18.352  0.00  0.00    +0.000 A 
ENDBRANCH  25  31
ENDBRANCH   1  25
TORSDOF 5
ENDMDL
MODEL 4
REMARK VINA RESULT:      -9.3      0.355      1.229
REMARK  Name = 
REMARK  6 active torsions:
REMARK  status: ('A' for Active; 'I' for Inactive)
REMARK    1  A    between atoms: C_1  and  C_2
REMARK    2  A    between atoms: C_6  and  C_7
REMARK    3  A    between atoms: C_7  and  N_8
REMARK    4  A    between atoms: C_10  and  C_11
REMARK    5  A    between atoms: C_16  and  O_17
REMARK    6  A    between atoms: C_19  and  O_20
REMARK                            x       y       z     vdW  Elec       q    Type
REMARK                         _______ _______ _______ _____ _____    ______ ____
ROOT
ATOM      1  N   UNL     1       3.273   5.747  18.413  0.00  0.00    +0.000 N 
ATOM      2  C   UNL     1       2.965   6.794  19.233  0.00  0.00    +0.000 A 
ATOM      3  C   UNL     1       1.979   6.396  20.115  0.00  0.00    +0.000 A 
ATOM      4  C   UNL     1       1.682   5.028  19.821  0.00  0.00    +0.000 A 
ATOM      5  C   UNL     1       0.770   4.071  20.317  0.00  0.00    +0.000 A 
ATOM      6  C   UNL     1       0.783   2.764  19.805  0.00  0.00    +0.000 A 
ATOM      7  C   UNL     1       1.700   2.389  18.829  0.00  0.00    +0.000 A 
ATOM      8  C   UNL     1       2.602   3.315  18.308  0.00  0.00    +0.000 A 
ATOM      9  C   UNL     1       2.558   4.631  18.797  0.00  0.00    +0.000 A 
ENDROOT
BRANCH   3  10
ATOM     10  C   UNL     1       1.499   7.275  21.150  0.00  0.00    +0.000 C 
ATOM     11  C   UNL     1       0.887   8.437  20.863  0.00  0.00    +0.000 C 
ATOM     12  O   UNL     1       0.445   8.734  19.579  0.00  0.00    +0.000 OA
ATOM     13  C   UNL     1       0.100  10.055  19.583  0.00  0.00    +0.000 A 
ATOM     14  C   UNL     1      -0.320  10.714  18.448  0.00  0.00    +0.000 A 
ATOM     15  C   UNL     1      -0.586  12.068  18.574  0.00  0.00    +0.000 A 
ATOM     16  C   UNL     1      -0.403  12.736  19.795  0.00  0.00    +0.000 A 
ATOM     17  C   UNL     1       0.028  12.035  20.933  0.00  0.00    +0.000 A 
ATOM     18  C   UNL     1       0.255  10.676  20.820  0.00  0.00    +0.000 A 
ATOM     19  C   UNL     1       0.712   9.623  21.760  0.00  0.00    +0.000 C 
ATOM     20  O   UNL     1       0.950   9.699  22.946  0.00  0.00    +0.000 OA
BRANCH  15  21
ATOM     21  O   UNL     1      -1.032  12.791  17.507  0.00  0.00    +0.000 OA
ATOM     22  H   UNL     1      -1.310  13.671  17.818  0.00  0.00    +0.000 HD
ENDBRANCH  15  21
BRANCH  17  23
ATOM     23  O   UNL     1       0.237  12.695  22.104  0.00  0.00    +0.000 OA
ATOM     24  H   UNL     1      -0.054  13.619  22.010  0.00  0.00    +0.000 HD
ENDBRANCH  17  23
ENDBRANCH   3  10
BRANCH   1  25
ATOM     25  C   UNL     1       4.286   5.820  17.365  0.00  0.00    +0.000 C 
BRANCH  25  31
ATOM     26  C   UNL     1       8.168   9.073  17.497  0.00  0.00    +0.000 C 
ATOM     27  C   UNL     1       7.569   7.756  17.897  0.00  0.00    +0.000 A 
ATOM     28  C   UNL     1       8.322   6.796  18.578  0.00  0.00    +0.000 A 
ATOM     29  C   UNL     1       7.758   5.564  18.902  0.00  0.00    +0.000 A 
ATOM     30  C   UNL     1       6.442   5.277  18.537  0.00  0.00    +0.000 A 
ATOM     31  C   UNL     1       5.662   6.223  17.852  0.00  0.00    +0.000 A 
ATOM     32  C   UNL     1       6.243   7.463  17.545  0.00  0.00    +0.000 A 
ENDBRANCH  25  31
ENDBRANCH   1  25
TORSDOF 5
ENDMDL
MODEL 5
REMARK VINA RESULT:      -9.3      3.215      8.460
REMARK  Name = 
REMARK  6 active torsions:
REMARK  status: ('A' for Active; 'I' for Inactive)
REMARK    1  A    between atoms: C_1  and  C_2
REMARK    2  A    between atoms: C_6  and  C_7
REMARK    3  A    between atoms: C_7  and  N_8
REMARK    4  A    between atoms: C_10  and  C_11
REMARK    5  A    between atoms: C_16  and  O_17
REMARK    6  A    between atoms: C_19  and  O_20
REMARK                            x       y       z     vdW  Elec       q    Type
REMARK                         _______ _______ _______ _____ _____    ______ ____
ROOT
ATOM      1  N   UNL     1       0.345  10.707  18.789  0.00  0.00    +0.000 N 
ATOM      2  C   UNL     1       1.311  10.293  17.919  0.00  0.00    +0.000 A 
ATOM      3  C   UNL     1       1.970   9.209  18.465  0.00  0.00    +0.000 A 
ATOM      4  C   UNL     1       1.361   8.944  19.731  0.00  0.00    +0.000 A 
ATOM      5  C   UNL     1       1.583   8.022  20.777  0.00  0.00    +0.000 A 
ATOM      6  C   UNL     1       0.735   8.020  21.897  0.00  0.00    +0.000 A 
ATOM      7  C   UNL     1      -0.338   8.900  21.982  0.00  0.00    +0.000 A 
ATOM      8  C   UNL     1      -0.572   9.834  20.973  0.00  0.00    +0.000 A 
ATOM      9  C   UNL     1       0.301   9.856  19.874  0.00  0.00    +0.000 A 
ENDROOT
BRANCH   3  10
ATOM     10  C   UNL     1       3.000   8.513  17.738  0.00  0.00    +0.000 C 
ATOM     11  C   UNL     1       2.999   7.174  17.616  0.00  0.00    +0.000 C 
ATOM     12  O   UNL     1       1.885   6.410  17.946  0.00  0.00    +0.000 OA
ATOM     13  C   UNL     1       2.293   5.107  17.940  0.00  0.00    +0.000 A 
ATOM     14  C   UNL     1       1.458   4.069  18.292  0.00  0.00    +0.000 A 
ATOM     15  C   UNL     1       2.011   2.798  18.299  0.00  0.00    +0.000 A 
ATOM     16  C   UNL     1       3.364   2.590  17.991  0.00  0.00    +0.000 A 
ATOM     17  C   UNL     1       4.188   3.671  17.638  0.00  0.00    +0.000 A 
ATOM     18  C   UNL     1       3.630   4.935  17.591  0.00  0.00    +0.000 A 
ATOM     19  C   UNL     1       4.157   6.287  17.281  0.00  0.00    +0.000 C 
ATOM     20  O   UNL     1       5.263   6.616  16.909  0.00  0.00    +0.000 OA
BRANCH  15  21
ATOM     21  O   UNL     1       1.248   1.711  18.610  0.00  0.00    +0.000 OA
ATOM     22  H   UNL     1       0.578   1.976  19.265  0.00  0.00    +0.000 HD
ENDBRANCH  15  21
BRANCH  17  23
ATOM     23  O   UNL     1       5.507   3.467  17.375  0.00  0.00    +0.000 OA
ATOM     24  H   UNL     1       5.907   2.958  18.101  0.00  0.00    +0.000 HD
ENDBRANCH  17  23
ENDBRANCH   3  10
BRANCH   1  25
ATOM     25  C   UNL     1      -0.548  11.830  18.521  0.00  0.00    +0.000 C 
BRANCH  25  31
ATOM     26  C   UNL     1      -3.407  10.124  14.703  0.00  0.00    +0.000 C 
ATOM     27  C   UNL     1      -3.301  10.658  16.102  0.00  0.00    +0.000 A 
ATOM     28  C   UNL     1      -4.442  10.971  16.844  0.00  0.00    +0.000 A 
ATOM     29  C   UNL     1      -4.319  11.505  18.126  0.00  0.00    +0.000 A 
ATOM     30  C   UNL     1      -3.055  11.743  18.668  0.00  0.00    +0.000 A 
ATOM     31  C   UNL     1      -1.891  11.437  17.944  0.00  0.00    +0.000 A 
ATOM     32  C   UNL     1      -2.035  10.888  16.660  0.00  0.00    +0.000 A 
ENDBRANCH  25  31
ENDBRANCH   1  25
TORSDOF 5
ENDMDL
MODEL 6
REMARK VINA RESULT:      -9.1      1.462      1.985
REMARK  Name = 
REMARK  6 active torsions:
REMARK  status: ('A' for Active; 'I' for Inactive)
REMARK    1  A    between atoms: C_1  and  C_2
REMARK    2  A    between atoms: C_6  and  C_7
REMARK    3  A    between atoms: C_7  and  N_8
REMARK    4  A    between atoms: C_10  and  C_11
REMARK    5  A    between atoms: C_16  and  O_17
REMARK    6  A    between atoms: C_19  and  O_20
REMARK                            x       y       z     vdW  Elec       q    Type
REMARK                         _______ _______ _______ _____ _____    ______ ____
ROOT
ATOM      1  N   UNL     1       2.929   6.721  18.239  0.00  0.00    +0.000 N 
ATOM      2  C   UNL     1       2.598   7.590  19.237  0.00  0.00    +0.000 A 
ATOM      3  C   UNL     1       1.862   6.916  20.192  0.00  0.00    +0.000 A 
ATOM      4  C   UNL     1       1.750   5.560  19.753  0.00  0.00    +0.000 A 
ATOM      5  C   UNL     1       1.110   4.398  20.238  0.00  0.00    +0.000 A 
ATOM      6  C   UNL     1       1.252   3.184  19.547  0.00  0.00    +0.000 A 
ATOM      7  C   UNL     1       2.034   3.101  18.401  0.00  0.00    +0.000 A 
ATOM      8  C   UNL     1       2.664   4.234  17.888  0.00  0.00    +0.000 A 
ATOM      9  C   UNL     1       2.488   5.454  18.561  0.00  0.00    +0.000 A 
ENDROOT
BRANCH   3  10
ATOM     10  C   UNL     1       1.430   7.565  21.402  0.00  0.00    +0.000 C 
ATOM     11  C   UNL     1       0.614   8.634  21.380  0.00  0.00    +0.000 C 
ATOM     12  O   UNL     1      -0.069   9.009  20.229  0.00  0.00    +0.000 OA
ATOM     13  C   UNL     1      -0.601  10.242  20.478  0.00  0.00    +0.000 A 
ATOM     14  C   UNL     1      -1.292  10.956  19.523  0.00  0.00    +0.000 A 
ATOM     15  C   UNL     1      -1.732  12.219  19.885  0.00  0.00    +0.000 A 
ATOM     16  C   UNL     1      -1.455  12.751  21.154  0.00  0.00    +0.000 A 
ATOM     17  C   UNL     1      -0.747  11.997  22.103  0.00  0.00    +0.000 A 
ATOM     18  C   UNL     1      -0.341  10.721  21.759  0.00  0.00    +0.000 A 
ATOM     19  C   UNL     1       0.412   9.652  22.459  0.00  0.00    +0.000 C 
ATOM     20  O   UNL     1       0.824   9.619  23.598  0.00  0.00    +0.000 OA
BRANCH  15  21
ATOM     21  O   UNL     1      -2.446  12.983  19.010  0.00  0.00    +0.000 OA
ATOM     22  H   UNL     1      -3.386  12.951  19.261  0.00  0.00    +0.000 HD
ENDBRANCH  15  21
BRANCH  17  23
ATOM     23  O   UNL     1      -0.452  12.532  23.319  0.00  0.00    +0.000 OA
ATOM     24  H   UNL     1      -0.519  13.501  23.270  0.00  0.00    +0.000 HD
ENDBRANCH  17  23
ENDBRANCH   3  10
BRANCH   1  25
ATOM     25  C   UNL     1       3.718   7.102  17.071  0.00  0.00    +0.000 C 
BRANCH  25  31
ATOM     26  C   UNL     1       6.514   3.945  14.265  0.00  0.00    +0.000 C 
ATOM     27  C   UNL     1       6.312   4.708  15.542  0.00  0.00    +0.000 A 
ATOM     28  C   UNL     1       7.171   4.535  16.630  0.00  0.00    +0.000 A 
ATOM     29  C   UNL     1       6.940   5.222  17.821  0.00  0.00    +0.000 A 
ATOM     30  C   UNL     1       5.842   6.076  17.936  0.00  0.00    +0.000 A 
ATOM     31  C   UNL     1       4.963   6.269  16.858  0.00  0.00    +0.000 A 
ATOM     32  C   UNL     1       5.219   5.578  15.663  0.00  0.00    +0.000 A 
ENDBRANCH  25  31
ENDBRANCH   1  25
TORSDOF 5
ENDMDL
MODEL 7
REMARK VINA RESULT:      -9.1      2.243      3.619
REMARK  Name = 
REMARK  6 active torsions:
REMARK  status: ('A' for Active; 'I' for Inactive)
REMARK    1  A    between atoms: C_1  and  C_2
REMARK    2  A    between atoms: C_6  and  C_7
REMARK    3  A    between atoms: C_7  and  N_8
REMARK    4  A    between atoms: C_10  and  C_11
REMARK    5  A    between atoms: C_16  and  O_17
REMARK    6  A    between atoms: C_19  and  O_20
REMARK                            x       y       z     vdW  Elec       q    Type
REMARK                         _______ _______ _______ _____ _____    ______ ____
ROOT
ATOM      1  N   UNL     1       4.298   4.665  17.942  0.00  0.00    +0.000 N 
ATOM      2  C   UNL     1       3.984   5.916  17.498  0.00  0.00    +0.000 A 
ATOM      3  C   UNL     1       2.794   6.311  18.078  0.00  0.00    +0.000 A 
ATOM      4  C   UNL     1       2.370   5.243  18.930  0.00  0.00    +0.000 A 
ATOM      5  C   UNL     1       1.249   5.003  19.755  0.00  0.00    +0.000 A 
ATOM      6  C   UNL     1       1.178   3.821  20.509  0.00  0.00    +0.000 A 
ATOM      7  C   UNL     1       2.210   2.889  20.475  0.00  0.00    +0.000 A 
ATOM      8  C   UNL     1       3.321   3.090  19.657  0.00  0.00    +0.000 A 
ATOM      9  C   UNL     1       3.368   4.256  18.876  0.00  0.00    +0.000 A 
ENDROOT
BRANCH   3  10
ATOM     10  C   UNL     1       2.246   7.622  17.848  0.00  0.00    +0.000 C 
ATOM     11  C   UNL     1       1.772   8.378  18.855  0.00  0.00    +0.000 C 
ATOM     12  O   UNL     1       2.021   8.063  20.186  0.00  0.00    +0.000 OA
ATOM     13  C   UNL     1       1.214   8.872  20.933  0.00  0.00    +0.000 A 
ATOM     14  C   UNL     1       1.147   8.784  22.307  0.00  0.00    +0.000 A 
ATOM     15  C   UNL     1       0.246   9.624  22.943  0.00  0.00    +0.000 A 
ATOM     16  C   UNL     1      -0.577  10.495  22.214  0.00  0.00    +0.000 A 
ATOM     17  C   UNL     1      -0.485  10.558  20.814  0.00  0.00    +0.000 A 
ATOM     18  C   UNL     1       0.442   9.751  20.180  0.00  0.00    +0.000 A 
ATOM     19  C   UNL     1       0.822   9.531  18.763  0.00  0.00    +0.000 C 
ATOM     20  O   UNL     1       0.426  10.090  17.763  0.00  0.00    +0.000 OA
BRANCH  15  21
ATOM     21  O   UNL     1       0.134   9.620  24.302  0.00  0.00    +0.000 OA
ATOM     22  H   UNL     1       0.441  10.479  24.644  0.00  0.00    +0.000 HD
ENDBRANCH  15  21
BRANCH  17  23
ATOM     23  O   UNL     1      -1.310  11.380  20.111  0.00  0.00    +0.000 OA
ATOM     24  H   UNL     1      -0.887  11.620  19.269  0.00  0.00    +0.000 HD
ENDBRANCH  17  23
ENDBRANCH   3  10
BRANCH   1  25
ATOM     25  C   UNL     1       5.502   3.947  17.533  0.00  0.00    +0.000 C 
BRANCH  25  31
ATOM     26  C   UNL     1       5.383   3.303  12.510  0.00  0.00    +0.000 C 
ATOM     27  C   UNL     1       5.985   3.963  13.717  0.00  0.00    +0.000 A 
ATOM     28  C   UNL     1       7.120   4.770  13.607  0.00  0.00    +0.000 A 
ATOM     29  C   UNL     1       7.687   5.339  14.747  0.00  0.00    +0.000 A 
ATOM     30  C   UNL     1       7.131   5.094  16.003  0.00  0.00    +0.000 A 
ATOM     31  C   UNL     1       5.991   4.287  16.142  0.00  0.00    +0.000 A 
ATOM     32  C   UNL     1       5.426   3.733  14.982  0.00  0.00    +0.000 A 
ENDBRANCH  25  31
ENDBRANCH   1  25
TORSDOF 5
ENDMDL
MODEL 8
REMARK VINA RESULT:      -9.1      3.167      8.562
REMARK  Name = 
REMARK  6 active torsions:
REMARK  status: ('A' for Active; 'I' for Inactive)
REMARK    1  A    between atoms: C_1  and  C_2
REMARK    2  A    between atoms: C_6  and  C_7
REMARK    3  A    between atoms: C_7  and  N_8
REMARK    4  A    between atoms: C_10  and  C_11
REMARK    5  A    between atoms: C_16  and  O_17
REMARK    6  A    between atoms: C_19  and  O_20
REMARK                            x       y       z     vdW  Elec       q    Type
REMARK                         _______ _______ _______ _____ _____    ______ ____
ROOT
ATOM      1  N   UNL     1       0.304  10.754  18.842  0.00  0.00    +0.000 N 
ATOM      2  C   UNL     1       1.108  10.021  18.019  0.00  0.00    +0.000 A 
ATOM      3  C   UNL     1       1.701   9.013  18.755  0.00  0.00    +0.000 A 
ATOM      4  C   UNL     1       1.220   9.136  20.096  0.00  0.00    +0.000 A 
ATOM      5  C   UNL     1       1.459   8.462  21.313  0.00  0.00    +0.000 A 
ATOM      6  C   UNL     1       0.754   8.837  22.469  0.00  0.00    +0.000 A 
ATOM      7  C   UNL     1      -0.196   9.851  22.428  0.00  0.00    +0.000 A 
ATOM      8  C   UNL     1      -0.442  10.547  21.245  0.00  0.00    +0.000 A 
ATOM      9  C   UNL     1       0.293  10.193  20.102  0.00  0.00    +0.000 A 
ENDROOT
BRANCH   3  10
ATOM     10  C   UNL     1       2.553   8.033  18.134  0.00  0.00    +0.000 C 
ATOM     11  C   UNL     1       2.608   6.763  18.573  0.00  0.00    +0.000 C 
ATOM     12  O   UNL     1       1.668   6.255  19.462  0.00  0.00    +0.000 OA
ATOM     13  C   UNL     1       2.144   5.046  19.881  0.00  0.00    +0.000 A 
ATOM     14  C   UNL     1       1.496   4.284  20.829  0.00  0.00    +0.000 A 
ATOM     15  C   UNL     1       2.113   3.103  21.208  0.00  0.00    +0.000 A 
ATOM     16  C   UNL     1       3.353   2.723  20.673  0.00  0.00    +0.000 A 
ATOM     17  C   UNL     1       3.988   3.524  19.709  0.00  0.00    +0.000 A 
ATOM     18  C   UNL     1       3.355   4.683  19.299  0.00  0.00    +0.000 A 
ATOM     19  C   UNL     1       3.697   5.762  18.340  0.00  0.00    +0.000 C 
ATOM     20  O   UNL     1       4.647   5.858  17.593  0.00  0.00    +0.000 OA
BRANCH  15  21
ATOM     21  O   UNL     1       1.528   2.276  22.122  0.00  0.00    +0.000 OA
ATOM     22  H   UNL     1       1.524   1.369  21.766  0.00  0.00    +0.000 HD
ENDBRANCH  15  21
BRANCH  17  23
ATOM     23  O   UNL     1       5.206   3.168  19.220  0.00  0.00    +0.000 OA
ATOM     24  H   UNL     1       5.087   2.602  18.437  0.00  0.00    +0.000 HD
ENDBRANCH  17  23
ENDBRANCH   3  10
BRANCH   1  25
ATOM     25  C   UNL     1      -0.484  11.895  18.385  0.00  0.00    +0.000 C 
BRANCH  25  31
ATOM     26  C   UNL     1      -5.396  12.195  19.584  0.00  0.00    +0.000 C 
ATOM     27  C   UNL     1      -4.313  11.673  18.687  0.00  0.00    +0.000 A 
ATOM     28  C   UNL     1      -4.594  10.745  17.680  0.00  0.00    +0.000 A 
ATOM     29  C   UNL     1      -3.565  10.241  16.885  0.00  0.00    +0.000 A 
ATOM     30  C   UNL     1      -2.248  10.650  17.101  0.00  0.00    +0.000 A 
ATOM     31  C   UNL     1      -1.938  11.581  18.106  0.00  0.00    +0.000 A 
ATOM     32  C   UNL     1      -2.988  12.087  18.887  0.00  0.00    +0.000 A 
ENDBRANCH  25  31
ENDBRANCH   1  25
TORSDOF 5
ENDMDL
MODEL 9
REMARK VINA RESULT:      -8.9      3.225      8.522
REMARK  Name = 
REMARK  6 active torsions:
REMARK  status: ('A' for Active; 'I' for Inactive)
REMARK    1  A    between atoms: C_1  and  C_2
REMARK    2  A    between atoms: C_6  and  C_7
REMARK    3  A    between atoms: C_7  and  N_8
REMARK    4  A    between atoms: C_10  and  C_11
REMARK    5  A    between atoms: C_16  and  O_17
REMARK    6  A    between atoms: C_19  and  O_20
REMARK                            x       y       z     vdW  Elec       q    Type
REMARK                         _______ _______ _______ _____ _____    ______ ____
ROOT
ATOM      1  N   UNL     1       0.478  10.706  18.782  0.00  0.00    +0.000 N 
ATOM      2  C   UNL     1       1.436  10.286  17.907  0.00  0.00    +0.000 A 
ATOM      3  C   UNL     1       2.065   9.173  18.431  0.00  0.00    +0.000 A 
ATOM      4  C   UNL     1       1.444   8.897  19.689  0.00  0.00    +0.000 A 
ATOM      5  C   UNL     1       1.638   7.947  20.716  0.00  0.00    +0.000 A 
ATOM      6  C   UNL     1       0.787   7.942  21.832  0.00  0.00    +0.000 A 
ATOM      7  C   UNL     1      -0.263   8.848  21.933  0.00  0.00    +0.000 A 
ATOM      8  C   UNL     1      -0.470   9.809  20.944  0.00  0.00    +0.000 A 
ATOM      9  C   UNL     1       0.408   9.833  19.848  0.00  0.00    +0.000 A 
ENDROOT
BRANCH   3  10
ATOM     10  C   UNL     1       3.079   8.467  17.692  0.00  0.00    +0.000 C 
ATOM     11  C   UNL     1       3.061   7.129  17.568  0.00  0.00    +0.000 C 
ATOM     12  O   UNL     1       1.942   6.377  17.907  0.00  0.00    +0.000 OA
ATOM     13  C   UNL     1       2.334   5.069  17.894  0.00  0.00    +0.000 A 
ATOM     14  C   UNL     1       1.491   4.040  18.253  0.00  0.00    +0.000 A 
ATOM     15  C   UNL     1       2.029   2.763  18.251  0.00  0.00    +0.000 A 
ATOM     16  C   UNL     1       3.376   2.540  17.930  0.00  0.00    +0.000 A 
ATOM     17  C   UNL     1       4.210   3.612  17.570  0.00  0.00    +0.000 A 
ATOM     18  C   UNL     1       3.666   4.882  17.532  0.00  0.00    +0.000 A 
ATOM     19  C   UNL     1       4.205   6.228  17.219  0.00  0.00    +0.000 C 
ATOM     20  O   UNL     1       5.311   6.546  16.836  0.00  0.00    +0.000 OA
BRANCH  15  21
ATOM     21  O   UNL     1       1.257   1.684  18.569  0.00  0.00    +0.000 OA
ATOM     22  H   UNL     1       0.976   1.247  17.745  0.00  0.00    +0.000 HD
ENDBRANCH  15  21
BRANCH  17  23
ATOM     23  O   UNL     1       5.523   3.393  17.293  0.00  0.00    +0.000 OA
ATOM     24  H   UNL     1       6.002   4.240  17.305  0.00  0.00    +0.000 HD
ENDBRANCH  17  23
ENDBRANCH   3  10
BRANCH   1  25
ATOM     25  C   UNL     1      -0.385  11.857  18.536  0.00  0.00    +0.000 C 
BRANCH  25  31
ATOM     26  C   UNL     1      -5.374  12.152  19.365  0.00  0.00    +0.000 C 
ATOM     27  C   UNL     1      -4.224  11.593  18.580  0.00  0.00    +0.000 A 
ATOM     28  C   UNL     1      -4.421  10.602  17.615  0.00  0.00    +0.000 A 
ATOM     29  C   UNL     1      -3.333  10.067  16.927  0.00  0.00    +0.000 A 
ATOM     30  C   UNL     1      -2.040  10.509  17.210  0.00  0.00    +0.000 A 
ATOM     31  C   UNL     1      -1.812  11.503  18.175  0.00  0.00    +0.000 A 
ATOM     32  C   UNL     1      -2.921  12.039  18.847  0.00  0.00    +0.000 A 
ENDBRANCH  25  31
ENDBRANCH   1  25
TORSDOF 5
ENDMDL
