MODEL 1
REMARK VINA RESULT:      -7.1      0.000      0.000
REMARK  Name = 
REMARK  14 active torsions:
REMARK  status: ('A' for Active; 'I' for Inactive)
REMARK    1  A    between atoms: C_1  and  O_2
REMARK    2  A    between atoms: O_2  and  C_3
REMARK    3  A    between atoms: C_8  and  C_9
REMARK    4  A    between atoms: C_9  and  S_10
REMARK    5  A    between atoms: S_10  and  C_11
REMARK    6  A    between atoms: C_16  and  O_17
REMARK    7  A    between atoms: O_17  and  C_18
REMARK    8  A    between atoms: C_18  and  C_19
REMARK    9  A    between atoms: C_19  and  C_20
REMARK   10  A    between atoms: C_20  and  N_21
REMARK   11  A    between atoms: N_21  and  C_22
REMARK   12  A    between atoms: N_21  and  C_23
REMARK   13  A    between atoms: N_28  and  C_29
REMARK   14  A    between atoms: C_29  and  C_30
REMARK                            x       y       z     vdW  Elec       q    Type
REMARK                         _______ _______ _______ _____ _____    ______ ____
ROOT
ATOM      1  C   UNL     1       0.330   9.609  20.411  0.00  0.00    +0.000 A 
ATOM      2  N   UNL     1       0.924   8.537  20.830  0.00  0.00    +0.000 NA
ATOM      3  C   UNL     1       1.773   7.860  19.942  0.00  0.00    +0.000 A 
ATOM      4  C   UNL     1       2.149   6.548  20.218  0.00  0.00    +0.000 A 
ATOM      5  C   UNL     1       2.866   5.803  19.274  0.00  0.00    +0.000 A 
ATOM      6  C   UNL     1       3.266   6.371  18.059  0.00  0.00    +0.000 A 
ATOM      7  C   UNL     1       2.958   7.700  17.799  0.00  0.00    +0.000 A 
ATOM      8  C   UNL     1       2.191   8.420  18.739  0.00  0.00    +0.000 A 
ATOM      9  C   UNL     1       1.668   9.754  18.418  0.00  0.00    +0.000 A 
ATOM     10  O   UNL     1       2.202  10.404  17.523  0.00  0.00    +0.000 OA
ATOM     11  N   UNL     1       0.570  10.175  19.164  0.00  0.00    +0.000 N 
ENDROOT
BRANCH   1  12
ATOM     12  S   UNL     1      -0.872  10.361  21.453  0.00  0.00    +0.000 S 
BRANCH  12  13
ATOM     13  C   UNL     1      -0.066  11.942  21.891  0.00  0.00    +0.000 C 
BRANCH  13  19
ATOM     14  C   UNL     1      -0.592  14.202  23.006  0.00  0.00    +0.000 A 
ATOM     15  C   UNL     1      -1.484  15.041  23.697  0.00  0.00    +0.000 A 
ATOM     16  C   UNL     1      -2.731  14.570  24.107  0.00  0.00    +0.000 A 
ATOM     17  C   UNL     1      -3.103  13.267  23.817  0.00  0.00    +0.000 A 
ATOM     18  C   UNL     1      -2.242  12.441  23.088  0.00  0.00    +0.000 A 
ATOM     19  C   UNL     1      -0.984  12.897  22.645  0.00  0.00    +0.000 A 
BRANCH  14  21
ATOM     20  C   UNL     1       0.829  16.013  22.462  0.00  0.00    +0.000 C 
ATOM     21  O   UNL     1       0.673  14.607  22.656  0.00  0.00    +0.000 OA
ENDBRANCH  14  21
ENDBRANCH  13  19
ENDBRANCH  12  13
ENDBRANCH   1  12
BRANCH   6  22
ATOM     22  O   UNL     1       3.840   5.494  17.183  0.00  0.00    +0.000 OA
BRANCH  22  23
ATOM     23  C   UNL     1       4.298   4.237  17.694  0.00  0.00    +0.000 C 
BRANCH  23  24
ATOM     24  C   UNL     1       3.210   3.207  17.382  0.00  0.00    +0.000 C 
BRANCH  24  25
ATOM     25  C   UNL     1       3.198   2.012  18.341  0.00  0.00    +0.000 C 
BRANCH  25  26
ATOM     26  N   UNL     1       2.022   1.951  19.226  0.00  0.00    +0.000 NA
ATOM     27  C   UNL     1       2.307   2.479  20.563  0.00  0.00    +0.000 C 
ATOM     28  C   UNL     1       0.910   2.700  18.633  0.00  0.00    +0.000 C 
ENDBRANCH  25  26
ENDBRANCH  24  25
ENDBRANCH  23  24
ENDBRANCH  22  23
ENDBRANCH   6  22
BRANCH  11  29
ATOM     29  C   UNL     1      -0.203  11.280  18.594  0.00  0.00    +0.000 C 
BRANCH  29  30
ATOM     30  C   UNL     1      -1.508  10.792  18.000  0.00  0.00    +0.000 A 
ATOM     31  C   UNL     1      -1.763   9.798  17.069  0.00  0.00    +0.000 A 
ATOM     32  C   UNL     1      -3.152   9.688  16.747  0.00  0.00    +0.000 A 
ATOM     33  C   UNL     1      -3.913  10.607  17.433  0.00  0.00    +0.000 A 
ATOM     34  S   UNL     1      -2.963  11.592  18.453  0.00  0.00    +0.000 S 
ENDBRANCH  29  30
ENDBRANCH  11  29
TORSDOF 11
ENDMDL
MODEL 2
REMARK VINA RESULT:      -7.1      1.773      2.488
REMARK  Name = 
REMARK  14 active torsions:
REMARK  status: ('A' for Active; 'I' for Inactive)
REMARK    1  A    between atoms: C_1  and  O_2
REMARK    2  A    between atoms: O_2  and  C_3
REMARK    3  A    between atoms: C_8  and  C_9
REMARK    4  A    between atoms: C_9  and  S_10
REMARK    5  A    between atoms: S_10  and  C_11
REMARK    6  A    between atoms: C_16  and  O_17
REMARK    7  A    between atoms: O_17  and  C_18
REMARK    8  A    between atoms: C_18  and  C_19
REMARK    9  A    between atoms: C_19  and  C_20
REMARK   10  A    between atoms: C_20  and  N_21
REMARK   11  A    between atoms: N_21  and  C_22
REMARK   12  A    between atoms: N_21  and  C_23
REMARK   13  A    between atoms: N_28  and  C_29
REMARK   14  A    between atoms: C_29  and  C_30
REMARK                            x       y       z     vdW  Elec       q    Type
REMARK                         _______ _______ _______ _____ _____    ______ ____
ROOT
ATOM      1  C   UNL     1       0.454   9.520  20.604  0.00  0.00    +0.000 A 
ATOM      2  N   UNL     1       0.944   8.412  21.061  0.00  0.00    +0.000 NA
ATOM      3  C   UNL     1       1.640   7.579  20.172  0.00  0.00    +0.000 A 
ATOM      4  C   UNL     1       1.875   6.251  20.518  0.00  0.00    +0.000 A 
ATOM      5  C   UNL     1       2.429   5.363  19.588  0.00  0.00    +0.000 A 
ATOM      6  C   UNL     1       2.806   5.799  18.311  0.00  0.00    +0.000 A 
ATOM      7  C   UNL     1       2.641   7.136  17.976  0.00  0.00    +0.000 A 
ATOM      8  C   UNL     1       2.035   8.005  18.908  0.00  0.00    +0.000 A 
ATOM      9  C   UNL     1       1.653   9.370  18.525  0.00  0.00    +0.000 A 
ATOM     10  O   UNL     1       2.196   9.890  17.553  0.00  0.00    +0.000 OA
ATOM     11  N   UNL     1       0.670   9.971  19.307  0.00  0.00    +0.000 N 
ENDROOT
BRANCH   1  12
ATOM     12  S   UNL     1      -0.573  10.480  21.663  0.00  0.00    +0.000 S 
BRANCH  12  13
ATOM     13  C   UNL     1       0.286  12.094  21.670  0.00  0.00    +0.000 C 
BRANCH  13  19
ATOM     14  C   UNL     1      -0.044  14.495  22.539  0.00  0.00    +0.000 A 
ATOM     15  C   UNL     1      -0.889  15.509  23.025  0.00  0.00    +0.000 A 
ATOM     16  C   UNL     1      -2.240  15.258  23.259  0.00  0.00    +0.000 A 
ATOM     17  C   UNL     1      -2.761  14.001  22.998  0.00  0.00    +0.000 A 
ATOM     18  C   UNL     1      -1.939  13.000  22.469  0.00  0.00    +0.000 A 
ATOM     19  C   UNL     1      -0.575  13.232  22.205  0.00  0.00    +0.000 A 
BRANCH  14  21
ATOM     20  C   UNL     1       1.687  15.989  21.938  0.00  0.00    +0.000 C 
ATOM     21  O   UNL     1       1.306  14.683  22.371  0.00  0.00    +0.000 OA
ENDBRANCH  14  21
ENDBRANCH  13  19
ENDBRANCH  12  13
ENDBRANCH   1  12
BRANCH   6  22
ATOM     22  O   UNL     1       3.207   4.803  17.467  0.00  0.00    +0.000 OA
BRANCH  22  23
ATOM     23  C   UNL     1       4.544   4.306  17.600  0.00  0.00    +0.000 C 
BRANCH  23  24
ATOM     24  C   UNL     1       5.457   5.284  16.855  0.00  0.00    +0.000 C 
BRANCH  24  25
ATOM     25  C   UNL     1       6.943   4.919  16.932  0.00  0.00    +0.000 C 
BRANCH  25  26
ATOM     26  N   UNL     1       7.773   5.889  17.667  0.00  0.00    +0.000 NA
ATOM     27  C   UNL     1       7.397   7.275  17.372  0.00  0.00    +0.000 C 
ATOM     28  C   UNL     1       7.662   5.651  19.110  0.00  0.00    +0.000 C 
ENDBRANCH  25  26
ENDBRANCH  24  25
ENDBRANCH  23  24
ENDBRANCH  22  23
ENDBRANCH   6  22
BRANCH  11  29
ATOM     29  C   UNL     1      -0.004  11.125  18.708  0.00  0.00    +0.000 C 
BRANCH  29  30
ATOM     30  C   UNL     1      -1.355  10.741  18.140  0.00  0.00    +0.000 A 
ATOM     31  C   UNL     1      -1.702   9.792  17.192  0.00  0.00    +0.000 A 
ATOM     32  C   UNL     1      -3.104   9.783  16.908  0.00  0.00    +0.000 A 
ATOM     33  C   UNL     1      -3.782  10.731  17.640  0.00  0.00    +0.000 A 
ATOM     34  S   UNL     1      -2.740  11.623  18.656  0.00  0.00    +0.000 S 
ENDBRANCH  29  30
ENDBRANCH  11  29
TORSDOF 11
ENDMDL
MODEL 3
REMARK VINA RESULT:      -7.0      1.879      2.566
REMARK  Name = 
REMARK  14 active torsions:
REMARK  status: ('A' for Active; 'I' for Inactive)
REMARK    1  A    between atoms: C_1  and  O_2
REMARK    2  A    between atoms: O_2  and  C_3
REMARK    3  A    between atoms: C_8  and  C_9
REMARK    4  A    between atoms: C_9  and  S_10
REMARK    5  A    between atoms: S_10  and  C_11
REMARK    6  A    between atoms: C_16  and  O_17
REMARK    7  A    between atoms: O_17  and  C_18
REMARK    8  A    between atoms: C_18  and  C_19
REMARK    9  A    between atoms: C_19  and  C_20
REMARK   10  A    between atoms: C_20  and  N_21
REMARK   11  A    between atoms: N_21  and  C_22
REMARK   12  A    between atoms: N_21  and  C_23
REMARK   13  A    between atoms: N_28  and  C_29
REMARK   14  A    between atoms: C_29  and  C_30
REMARK                            x       y       z     vdW  Elec       q    Type
REMARK                         _______ _______ _______ _____ _____    ______ ____
ROOT
ATOM      1  C   UNL     1       0.665   9.552  20.668  0.00  0.00    +0.000 A 
ATOM      2  N   UNL     1       1.115   8.432  21.138  0.00  0.00    +0.000 NA
ATOM      3  C   UNL     1       1.682   7.517  20.239  0.00  0.00    +0.000 A 
ATOM      4  C   UNL     1       1.855   6.191  20.628  0.00  0.00    +0.000 A 
ATOM      5  C   UNL     1       2.274   5.229  19.701  0.00  0.00    +0.000 A 
ATOM      6  C   UNL     1       2.576   5.584  18.380  0.00  0.00    +0.000 A 
ATOM      7  C   UNL     1       2.474   6.914  17.996  0.00  0.00    +0.000 A 
ATOM      8  C   UNL     1       2.003   7.861  18.930  0.00  0.00    +0.000 A 
ATOM      9  C   UNL     1       1.683   9.233  18.513  0.00  0.00    +0.000 A 
ATOM     10  O   UNL     1       2.180   9.672  17.480  0.00  0.00    +0.000 OA
ATOM     11  N   UNL     1       0.807   9.933  19.339  0.00  0.00    +0.000 N 
ENDROOT
BRANCH   1  12
ATOM     12  S   UNL     1      -0.208  10.625  21.756  0.00  0.00    +0.000 S 
BRANCH  12  13
ATOM     13  C   UNL     1       0.536  12.250  21.372  0.00  0.00    +0.000 C 
BRANCH  13  19
ATOM     14  C   UNL     1      -0.261  14.696  21.274  0.00  0.00    +0.000 A 
ATOM     15  C   UNL     1      -1.047  15.743  21.789  0.00  0.00    +0.000 A 
ATOM     16  C   UNL     1      -1.796  15.564  22.951  0.00  0.00    +0.000 A 
ATOM     17  C   UNL     1      -1.779  14.340  23.599  0.00  0.00    +0.000 A 
ATOM     18  C   UNL     1      -1.038  13.279  23.068  0.00  0.00    +0.000 A 
ATOM     19  C   UNL     1      -0.287  13.426  21.885  0.00  0.00    +0.000 A 
BRANCH  14  21
ATOM     20  C   UNL     1      -0.137  15.018  18.935  0.00  0.00    +0.000 C 
ATOM     21  O   UNL     1       0.549  14.859  20.177  0.00  0.00    +0.000 OA
ENDBRANCH  14  21
ENDBRANCH  13  19
ENDBRANCH  12  13
ENDBRANCH   1  12
BRANCH   6  22
ATOM     22  O   UNL     1       2.842   4.528  17.555  0.00  0.00    +0.000 OA
BRANCH  22  23
ATOM     23  C   UNL     1       3.885   3.623  17.937  0.00  0.00    +0.000 C 
BRANCH  23  24
ATOM     24  C   UNL     1       5.200   4.224  17.432  0.00  0.00    +0.000 C 
BRANCH  24  25
ATOM     25  C   UNL     1       5.183   4.582  15.943  0.00  0.00    +0.000 C 
BRANCH  25  26
ATOM     26  N   UNL     1       6.235   5.527  15.530  0.00  0.00    +0.000 NA
ATOM     27  C   UNL     1       7.048   5.979  16.663  0.00  0.00    +0.000 C 
ATOM     28  C   UNL     1       7.102   4.905  14.525  0.00  0.00    +0.000 C 
ENDBRANCH  25  26
ENDBRANCH  24  25
ENDBRANCH  23  24
ENDBRANCH  22  23
ENDBRANCH   6  22
BRANCH  11  29
ATOM     29  C   UNL     1       0.166  11.105  18.740  0.00  0.00    +0.000 C 
BRANCH  29  30
ATOM     30  C   UNL     1      -1.226  10.776  18.238  0.00  0.00    +0.000 A 
ATOM     31  C   UNL     1      -1.658   9.831  17.322  0.00  0.00    +0.000 A 
ATOM     32  C   UNL     1      -3.069   9.883  17.100  0.00  0.00    +0.000 A 
ATOM     33  C   UNL     1      -3.670  10.873  17.844  0.00  0.00    +0.000 A 
ATOM     34  S   UNL     1      -2.544  11.730  18.799  0.00  0.00    +0.000 S 
ENDBRANCH  29  30
ENDBRANCH  11  29
TORSDOF 11
ENDMDL
MODEL 4
REMARK VINA RESULT:      -6.8      1.517      2.258
REMARK  Name = 
REMARK  14 active torsions:
REMARK  status: ('A' for Active; 'I' for Inactive)
REMARK    1  A    between atoms: C_1  and  O_2
REMARK    2  A    between atoms: O_2  and  C_3
REMARK    3  A    between atoms: C_8  and  C_9
REMARK    4  A    between atoms: C_9  and  S_10
REMARK    5  A    between atoms: S_10  and  C_11
REMARK    6  A    between atoms: C_16  and  O_17
REMARK    7  A    between atoms: O_17  and  C_18
REMARK    8  A    between atoms: C_18  and  C_19
REMARK    9  A    between atoms: C_19  and  C_20
REMARK   10  A    between atoms: C_20  and  N_21
REMARK   11  A    between atoms: N_21  and  C_22
REMARK   12  A    between atoms: N_21  and  C_23
REMARK   13  A    between atoms: N_28  and  C_29
REMARK   14  A    between atoms: C_29  and  C_30
REMARK                            x       y       z     vdW  Elec       q    Type
REMARK                         _______ _______ _______ _____ _____    ______ ____
ROOT
ATOM      1  C   UNL     1       0.373  10.008  20.583  0.00  0.00    +0.000 A 
ATOM      2  N   UNL     1       0.881   8.960  21.148  0.00  0.00    +0.000 NA
ATOM      3  C   UNL     1       1.530   8.017  20.337  0.00  0.00    +0.000 A 
ATOM      4  C   UNL     1       1.776   6.739  20.831  0.00  0.00    +0.000 A 
ATOM      5  C   UNL     1       2.281   5.739  19.992  0.00  0.00    +0.000 A 
ATOM      6  C   UNL     1       2.597   6.011  18.655  0.00  0.00    +0.000 A 
ATOM      7  C   UNL     1       2.421   7.298  18.166  0.00  0.00    +0.000 A 
ATOM      8  C   UNL     1       1.864   8.281  19.012  0.00  0.00    +0.000 A 
ATOM      9  C   UNL     1       1.469   9.593  18.482  0.00  0.00    +0.000 A 
ATOM     10  O   UNL     1       1.965   9.984  17.430  0.00  0.00    +0.000 OA
ATOM     11  N   UNL     1       0.527  10.295  19.231  0.00  0.00    +0.000 N 
ENDROOT
BRANCH   1  12
ATOM     12  S   UNL     1      -0.597  11.101  21.563  0.00  0.00    +0.000 S 
BRANCH  12  13
ATOM     13  C   UNL     1       0.387  12.641  21.509  0.00  0.00    +0.000 C 
BRANCH  13  19
ATOM     14  C   UNL     1       0.318  15.073  22.351  0.00  0.00    +0.000 A 
ATOM     15  C   UNL     1      -0.275  16.071  23.145  0.00  0.00    +0.000 A 
ATOM     16  C   UNL     1      -1.333  15.765  23.999  0.00  0.00    +0.000 A 
ATOM     17  C   UNL     1      -1.816  14.468  24.058  0.00  0.00    +0.000 A 
ATOM     18  C   UNL     1      -1.264  13.479  23.237  0.00  0.00    +0.000 A 
ATOM     19  C   UNL     1      -0.207  13.765  22.350  0.00  0.00    +0.000 A 
BRANCH  14  21
ATOM     20  C   UNL     1       2.241  16.401  21.985  0.00  0.00    +0.000 C 
ATOM     21  O   UNL     1       1.411  15.321  21.557  0.00  0.00    +0.000 OA
ENDBRANCH  14  21
ENDBRANCH  13  19
ENDBRANCH  12  13
ENDBRANCH   1  12
BRANCH   6  22
ATOM     22  O   UNL     1       2.952   4.915  17.921  0.00  0.00    +0.000 OA
BRANCH  22  23
ATOM     23  C   UNL     1       3.627   3.846  18.594  0.00  0.00    +0.000 C 
BRANCH  23  24
ATOM     24  C   UNL     1       5.120   4.003  18.292  0.00  0.00    +0.000 C 
BRANCH  24  25
ATOM     25  C   UNL     1       5.426   4.258  16.813  0.00  0.00    +0.000 C 
BRANCH  25  26
ATOM     26  N   UNL     1       6.076   5.552  16.538  0.00  0.00    +0.000 NA
ATOM     27  C   UNL     1       5.212   6.453  15.770  0.00  0.00    +0.000 C 
ATOM     28  C   UNL     1       6.457   6.198  17.798  0.00  0.00    +0.000 C 
ENDBRANCH  25  26
ENDBRANCH  24  25
ENDBRANCH  23  24
ENDBRANCH  22  23
ENDBRANCH   6  22
BRANCH  11  29
ATOM     29  C   UNL     1      -0.171  11.372  18.528  0.00  0.00    +0.000 C 
BRANCH  29  30
ATOM     30  C   UNL     1      -1.510  10.906  17.994  0.00  0.00    +0.000 A 
ATOM     31  C   UNL     1      -1.823   9.920  17.072  0.00  0.00    +0.000 A 
ATOM     32  C   UNL     1      -3.227   9.832  16.815  0.00  0.00    +0.000 A 
ATOM     33  C   UNL     1      -3.941  10.758  17.540  0.00  0.00    +0.000 A 
ATOM     34  S   UNL     1      -2.930  11.725  18.518  0.00  0.00    +0.000 S 
ENDBRANCH  29  30
ENDBRANCH  11  29
TORSDOF 11
ENDMDL
MODEL 5
REMARK VINA RESULT:      -6.8      1.877      2.429
REMARK  Name = 
REMARK  14 active torsions:
REMARK  status: ('A' for Active; 'I' for Inactive)
REMARK    1  A    between atoms: C_1  and  O_2
REMARK    2  A    between atoms: O_2  and  C_3
REMARK    3  A    between atoms: C_8  and  C_9
REMARK    4  A    between atoms: C_9  and  S_10
REMARK    5  A    between atoms: S_10  and  C_11
REMARK    6  A    between atoms: C_16  and  O_17
REMARK    7  A    between atoms: O_17  and  C_18
REMARK    8  A    between atoms: C_18  and  C_19
REMARK    9  A    between atoms: C_19  and  C_20
REMARK   10  A    between atoms: C_20  and  N_21
REMARK   11  A    between atoms: N_21  and  C_22
REMARK   12  A    between atoms: N_21  and  C_23
REMARK   13  A    between atoms: N_28  and  C_29
REMARK   14  A    between atoms: C_29  and  C_30
REMARK                            x       y       z     vdW  Elec       q    Type
REMARK                         _______ _______ _______ _____ _____    ______ ____
ROOT
ATOM      1  C   UNL     1      -0.554  10.839  20.650  0.00  0.00    +0.000 A 
ATOM      2  N   UNL     1      -0.038   9.888  21.362  0.00  0.00    +0.000 NA
ATOM      3  C   UNL     1       0.828   8.983  20.730  0.00  0.00    +0.000 A 
ATOM      4  C   UNL     1       1.123   7.771  21.348  0.00  0.00    +0.000 A 
ATOM      5  C   UNL     1       1.859   6.790  20.671  0.00  0.00    +0.000 A 
ATOM      6  C   UNL     1       2.355   7.022  19.383  0.00  0.00    +0.000 A 
ATOM      7  C   UNL     1       2.128   8.252  18.781  0.00  0.00    +0.000 A 
ATOM      8  C   UNL     1       1.342   9.210  19.458  0.00  0.00    +0.000 A 
ATOM      9  C   UNL     1       0.904  10.437  18.780  0.00  0.00    +0.000 A 
ATOM     10  O   UNL     1       1.520  10.823  17.791  0.00  0.00    +0.000 OA
ATOM     11  N   UNL     1      -0.215  11.066  19.321  0.00  0.00    +0.000 N 
ENDROOT
BRANCH   1  12
ATOM     12  S   UNL     1      -1.778  11.866  21.388  0.00  0.00    +0.000 S 
BRANCH  12  13
ATOM     13  C   UNL     1      -0.816  12.753  22.664  0.00  0.00    +0.000 C 
BRANCH  13  19
ATOM     14  C   UNL     1      -1.140  14.999  23.882  0.00  0.00    +0.000 A 
ATOM     15  C   UNL     1      -1.957  15.884  24.607  0.00  0.00    +0.000 A 
ATOM     16  C   UNL     1      -3.246  15.513  24.988  0.00  0.00    +0.000 A 
ATOM     17  C   UNL     1      -3.734  14.265  24.635  0.00  0.00    +0.000 A 
ATOM     18  C   UNL     1      -2.947  13.396  23.872  0.00  0.00    +0.000 A 
ATOM     19  C   UNL     1      -1.648  13.753  23.458  0.00  0.00    +0.000 A 
BRANCH  14  21
ATOM     20  C   UNL     1       0.322  16.373  22.630  0.00  0.00    +0.000 C 
ATOM     21  O   UNL     1       0.160  15.299  23.557  0.00  0.00    +0.000 OA
ENDBRANCH  14  21
ENDBRANCH  13  19
ENDBRANCH  12  13
ENDBRANCH   1  12
BRANCH   6  22
ATOM     22  O   UNL     1       2.937   5.936  18.794  0.00  0.00    +0.000 OA
BRANCH  22  23
ATOM     23  C   UNL     1       3.783   6.158  17.661  0.00  0.00    +0.000 C 
BRANCH  23  24
ATOM     24  C   UNL     1       4.662   4.913  17.512  0.00  0.00    +0.000 C 
BRANCH  24  25
ATOM     25  C   UNL     1       5.511   4.606  18.749  0.00  0.00    +0.000 C 
BRANCH  25  26
ATOM     26  N   UNL     1       6.964   4.580  18.502  0.00  0.00    +0.000 NA
ATOM     27  C   UNL     1       7.282   4.589  17.072  0.00  0.00    +0.000 C 
ATOM     28  C   UNL     1       7.603   5.729  19.151  0.00  0.00    +0.000 C 
ENDBRANCH  25  26
ENDBRANCH  24  25
ENDBRANCH  23  24
ENDBRANCH  22  23
ENDBRANCH   6  22
BRANCH  11  29
ATOM     29  C   UNL     1      -0.899  12.017  18.443  0.00  0.00    +0.000 C 
BRANCH  29  30
ATOM     30  C   UNL     1      -2.039  11.356  17.695  0.00  0.00    +0.000 A 
ATOM     31  C   UNL     1      -2.029  10.471  16.629  0.00  0.00    +0.000 A 
ATOM     32  C   UNL     1      -3.345  10.120  16.193  0.00  0.00    +0.000 A 
ATOM     33  C   UNL     1      -4.318  10.755  16.931  0.00  0.00    +0.000 A 
ATOM     34  S   UNL     1      -3.652  11.764  18.136  0.00  0.00    +0.000 S 
ENDBRANCH  29  30
ENDBRANCH  11  29
TORSDOF 11
ENDMDL
MODEL 6
REMARK VINA RESULT:      -6.7      6.584     10.023
REMARK  Name = 
REMARK  14 active torsions:
REMARK  status: ('A' for Active; 'I' for Inactive)
REMARK    1  A    between atoms: C_1  and  O_2
REMARK    2  A    between atoms: O_2  and  C_3
REMARK    3  A    between atoms: C_8  and  C_9
REMARK    4  A    between atoms: C_9  and  S_10
REMARK    5  A    between atoms: S_10  and  C_11
REMARK    6  A    between atoms: C_16  and  O_17
REMARK    7  A    between atoms: O_17  and  C_18
REMARK    8  A    between atoms: C_18  and  C_19
REMARK    9  A    between atoms: C_19  and  C_20
REMARK   10  A    between atoms: C_20  and  N_21
REMARK   11  A    between atoms: N_21  and  C_22
REMARK   12  A    between atoms: N_21  and  C_23
REMARK   13  A    between atoms: N_28  and  C_29
REMARK   14  A    between atoms: C_29  and  C_30
REMARK                            x       y       z     vdW  Elec       q    Type
REMARK                         _______ _______ _______ _____ _____    ______ ____
ROOT
ATOM      1  C   UNL     1       5.144   3.970  17.232  0.00  0.00    +0.000 A 
ATOM      2  N   UNL     1       5.748   4.304  18.327  0.00  0.00    +0.000 NA
ATOM      3  C   UNL     1       6.463   5.511  18.349  0.00  0.00    +0.000 A 
ATOM      4  C   UNL     1       7.394   5.739  19.358  0.00  0.00    +0.000 A 
ATOM      5  C   UNL     1       8.227   6.863  19.314  0.00  0.00    +0.000 A 
ATOM      6  C   UNL     1       8.110   7.807  18.286  0.00  0.00    +0.000 A 
ATOM      7  C   UNL     1       7.140   7.628  17.309  0.00  0.00    +0.000 A 
ATOM      8  C   UNL     1       6.343   6.464  17.342  0.00  0.00    +0.000 A 
ATOM      9  C   UNL     1       5.452   6.131  16.223  0.00  0.00    +0.000 A 
ATOM     10  O   UNL     1       5.099   7.024  15.458  0.00  0.00    +0.000 OA
ATOM     11  N   UNL     1       5.086   4.792  16.112  0.00  0.00    +0.000 N 
ENDROOT
BRANCH   1  12
ATOM     12  S   UNL     1       4.399   2.378  17.139  0.00  0.00    +0.000 S 
BRANCH  12  13
ATOM     13  C   UNL     1       2.621   2.777  17.291  0.00  0.00    +0.000 C 
BRANCH  13  19
ATOM     14  C   UNL     1       2.024   4.508  19.102  0.00  0.00    +0.000 A 
ATOM     15  C   UNL     1       1.639   4.807  20.420  0.00  0.00    +0.000 A 
ATOM     16  C   UNL     1       1.516   3.796  21.372  0.00  0.00    +0.000 A 
ATOM     17  C   UNL     1       1.761   2.480  21.013  0.00  0.00    +0.000 A 
ATOM     18  C   UNL     1       2.098   2.168  19.692  0.00  0.00    +0.000 A 
ATOM     19  C   UNL     1       2.210   3.167  18.706  0.00  0.00    +0.000 A 
BRANCH  14  21
ATOM     20  C   UNL     1       2.733   6.721  18.665  0.00  0.00    +0.000 C 
ATOM     21  O   UNL     1       2.230   5.484  18.158  0.00  0.00    +0.000 OA
ENDBRANCH  14  21
ENDBRANCH  13  19
ENDBRANCH  12  13
ENDBRANCH   1  12
BRANCH   6  22
ATOM     22  O   UNL     1       9.071   8.778  18.295  0.00  0.00    +0.000 OA
BRANCH  22  23
ATOM     23  C   UNL     1       8.645  10.145  18.308  0.00  0.00    +0.000 C 
BRANCH  23  24
ATOM     24  C   UNL     1       9.802  10.966  18.884  0.00  0.00    +0.000 C 
BRANCH  24  25
ATOM     25  C   UNL     1       9.461  12.443  19.101  0.00  0.00    +0.000 C 
BRANCH  25  26
ATOM     26  N   UNL     1      10.078  13.362  18.128  0.00  0.00    +0.000 NA
ATOM     27  C   UNL     1      10.703  14.518  18.778  0.00  0.00    +0.000 C 
ATOM     28  C   UNL     1      11.081  12.649  17.333  0.00  0.00    +0.000 C 
ENDBRANCH  25  26
ENDBRANCH  24  25
ENDBRANCH  23  24
ENDBRANCH  22  23
ENDBRANCH   6  22
BRANCH  11  29
ATOM     29  C   UNL     1       4.564   4.380  14.808  0.00  0.00    +0.000 C 
BRANCH  29  30
ATOM     30  C   UNL     1       5.677   4.224  13.792  0.00  0.00    +0.000 A 
ATOM     31  C   UNL     1       6.958   4.749  13.766  0.00  0.00    +0.000 A 
ATOM     32  C   UNL     1       7.680   4.383  12.587  0.00  0.00    +0.000 A 
ATOM     33  C   UNL     1       6.925   3.599  11.745  0.00  0.00    +0.000 A 
ATOM     34  S   UNL     1       5.363   3.309  12.368  0.00  0.00    +0.000 S 
ENDBRANCH  29  30
ENDBRANCH  11  29
TORSDOF 11
ENDMDL
MODEL 7
REMARK VINA RESULT:      -6.7      1.943      2.648
REMARK  Name = 
REMARK  14 active torsions:
REMARK  status: ('A' for Active; 'I' for Inactive)
REMARK    1  A    between atoms: C_1  and  O_2
REMARK    2  A    between atoms: O_2  and  C_3
REMARK    3  A    between atoms: C_8  and  C_9
REMARK    4  A    between atoms: C_9  and  S_10
REMARK    5  A    between atoms: S_10  and  C_11
REMARK    6  A    between atoms: C_16  and  O_17
REMARK    7  A    between atoms: O_17  and  C_18
REMARK    8  A    between atoms: C_18  and  C_19
REMARK    9  A    between atoms: C_19  and  C_20
REMARK   10  A    between atoms: C_20  and  N_21
REMARK   11  A    between atoms: N_21  and  C_22
REMARK   12  A    between atoms: N_21  and  C_23
REMARK   13  A    between atoms: N_28  and  C_29
REMARK   14  A    between atoms: C_29  and  C_30
REMARK                            x       y       z     vdW  Elec       q    Type
REMARK                         _______ _______ _______ _____ _____    ______ ____
ROOT
ATOM      1  C   UNL     1       0.360   9.420  20.393  0.00  0.00    +0.000 A 
ATOM      2  N   UNL     1       0.987   8.330  20.701  0.00  0.00    +0.000 NA
ATOM      3  C   UNL     1       1.903   7.808  19.775  0.00  0.00    +0.000 A 
ATOM      4  C   UNL     1       2.330   6.489  19.901  0.00  0.00    +0.000 A 
ATOM      5  C   UNL     1       3.121   5.902  18.906  0.00  0.00    +0.000 A 
ATOM      6  C   UNL     1       3.541   6.638  17.791  0.00  0.00    +0.000 A 
ATOM      7  C   UNL     1       3.180   7.974  17.686  0.00  0.00    +0.000 A 
ATOM      8  C   UNL     1       2.342   8.535  18.673  0.00  0.00    +0.000 A 
ATOM      9  C   UNL     1       1.768   9.876  18.498  0.00  0.00    +0.000 A 
ATOM     10  O   UNL     1       2.306  10.656  17.717  0.00  0.00    +0.000 OA
ATOM     11  N   UNL     1       0.622  10.151  19.240  0.00  0.00    +0.000 N 
ENDROOT
BRANCH   1  12
ATOM     12  S   UNL     1      -0.919   9.981  21.465  0.00  0.00    +0.000 S 
BRANCH  12  13
ATOM     13  C   UNL     1      -0.145  11.434  22.259  0.00  0.00    +0.000 C 
BRANCH  13  19
ATOM     14  C   UNL     1      -0.846  13.800  22.994  0.00  0.00    +0.000 A 
ATOM     15  C   UNL     1      -1.824  14.683  23.483  0.00  0.00    +0.000 A 
ATOM     16  C   UNL     1      -3.085  14.216  23.850  0.00  0.00    +0.000 A 
ATOM     17  C   UNL     1      -3.384  12.870  23.719  0.00  0.00    +0.000 A 
ATOM     18  C   UNL     1      -2.433  11.991  23.188  0.00  0.00    +0.000 A 
ATOM     19  C   UNL     1      -1.158  12.440  22.791  0.00  0.00    +0.000 A 
BRANCH  14  21
ATOM     20  C   UNL     1       0.554  14.998  21.511  0.00  0.00    +0.000 C 
ATOM     21  O   UNL     1       0.431  14.211  22.696  0.00  0.00    +0.000 OA
ENDBRANCH  14  21
ENDBRANCH  13  19
ENDBRANCH  12  13
ENDBRANCH   1  12
BRANCH   6  22
ATOM     22  O   UNL     1       4.192   5.904  16.839  0.00  0.00    +0.000 OA
BRANCH  22  23
ATOM     23  C   UNL     1       5.499   6.330  16.441  0.00  0.00    +0.000 C 
BRANCH  23  24
ATOM     24  C   UNL     1       6.328   5.064  16.208  0.00  0.00    +0.000 C 
BRANCH  24  25
ATOM     25  C   UNL     1       5.664   4.059  15.262  0.00  0.00    +0.000 C 
BRANCH  25  26
ATOM     26  N   UNL     1       6.420   3.794  14.025  0.00  0.00    +0.000 NA
ATOM     27  C   UNL     1       5.541   3.613  12.867  0.00  0.00    +0.000 C 
ATOM     28  C   UNL     1       7.352   4.895  13.762  0.00  0.00    +0.000 C 
ENDBRANCH  25  26
ENDBRANCH  24  25
ENDBRANCH  23  24
ENDBRANCH  22  23
ENDBRANCH   6  22
BRANCH  11  29
ATOM     29  C   UNL     1      -0.180  11.285  18.778  0.00  0.00    +0.000 C 
BRANCH  29  30
ATOM     30  C   UNL     1      -1.460  10.822  18.114  0.00  0.00    +0.000 A 
ATOM     31  C   UNL     1      -1.676   9.875  17.126  0.00  0.00    +0.000 A 
ATOM     32  C   UNL     1      -3.052   9.775  16.750  0.00  0.00    +0.000 A 
ATOM     33  C   UNL     1      -3.842  10.656  17.453  0.00  0.00    +0.000 A 
ATOM     34  S   UNL     1      -2.935  11.594  18.553  0.00  0.00    +0.000 S 
ENDBRANCH  29  30
ENDBRANCH  11  29
TORSDOF 11
ENDMDL
MODEL 8
REMARK VINA RESULT:      -6.6      3.081      9.188
REMARK  Name = 
REMARK  14 active torsions:
REMARK  status: ('A' for Active; 'I' for Inactive)
REMARK    1  A    between atoms: C_1  and  O_2
REMARK    2  A    between atoms: O_2  and  C_3
REMARK    3  A    between atoms: C_8  and  C_9
REMARK    4  A    between atoms: C_9  and  S_10
REMARK    5  A    between atoms: S_10  and  C_11
REMARK    6  A    between atoms: C_16  and  O_17
REMARK    7  A    between atoms: O_17  and  C_18
REMARK    8  A    between atoms: C_18  and  C_19
REMARK    9  A    between atoms: C_19  and  C_20
REMARK   10  A    between atoms: C_20  and  N_21
REMARK   11  A    between atoms: N_21  and  C_22
REMARK   12  A    between atoms: N_21  and  C_23
REMARK   13  A    between atoms: N_28  and  C_29
REMARK   14  A    between atoms: C_29  and  C_30
REMARK                            x       y       z     vdW  Elec       q    Type
REMARK                         _______ _______ _______ _____ _____    ______ ____
ROOT
ATOM      1  C   UNL     1       0.346  10.313  18.140  0.00  0.00    +0.000 A 
ATOM      2  N   UNL     1      -0.433   9.905  17.190  0.00  0.00    +0.000 NA
ATOM      3  C   UNL     1      -1.760  10.360  17.179  0.00  0.00    +0.000 A 
ATOM      4  C   UNL     1      -2.708   9.695  16.405  0.00  0.00    +0.000 A 
ATOM      5  C   UNL     1      -4.063  10.034  16.498  0.00  0.00    +0.000 A 
ATOM      6  C   UNL     1      -4.491  11.077  17.328  0.00  0.00    +0.000 A 
ATOM      7  C   UNL     1      -3.549  11.794  18.053  0.00  0.00    +0.000 A 
ATOM      8  C   UNL     1      -2.194  11.407  17.986  0.00  0.00    +0.000 A 
ATOM      9  C   UNL     1      -1.198  11.998  18.889  0.00  0.00    +0.000 A 
ATOM     10  O   UNL     1      -1.440  13.080  19.416  0.00  0.00    +0.000 OA
ATOM     11  N   UNL     1      -0.038  11.254  19.089  0.00  0.00    +0.000 N 
ENDROOT
BRANCH   1  12
ATOM     12  S   UNL     1       1.954   9.608  18.264  0.00  0.00    +0.000 S 
BRANCH  12  13
ATOM     13  C   UNL     1       1.580   7.874  18.703  0.00  0.00    +0.000 C 
BRANCH  13  19
ATOM     14  C   UNL     1       2.688   5.550  18.667  0.00  0.00    +0.000 A 
ATOM     15  C   UNL     1       3.693   4.687  18.196  0.00  0.00    +0.000 A 
ATOM     16  C   UNL     1       4.706   5.162  17.364  0.00  0.00    +0.000 A 
ATOM     17  C   UNL     1       4.716   6.494  16.985  0.00  0.00    +0.000 A 
ATOM     18  C   UNL     1       3.693   7.349  17.409  0.00  0.00    +0.000 A 
ATOM     19  C   UNL     1       2.647   6.891  18.235  0.00  0.00    +0.000 A 
BRANCH  14  21
ATOM     20  C   UNL     1       2.180   4.875  20.876  0.00  0.00    +0.000 C 
ATOM     21  O   UNL     1       1.720   5.136  19.549  0.00  0.00    +0.000 OA
ENDBRANCH  14  21
ENDBRANCH  13  19
ENDBRANCH  12  13
ENDBRANCH   1  12
BRANCH   6  22
ATOM     22  O   UNL     1      -5.847  11.209  17.421  0.00  0.00    +0.000 OA
BRANCH  22  23
ATOM     23  C   UNL     1      -6.506  10.604  18.538  0.00  0.00    +0.000 C 
BRANCH  23  24
ATOM     24  C   UNL     1      -7.081  11.743  19.385  0.00  0.00    +0.000 C 
BRANCH  24  25
ATOM     25  C   UNL     1      -7.380  11.344  20.834  0.00  0.00    +0.000 C 
BRANCH  25  26
ATOM     26  N   UNL     1      -7.193  12.426  21.816  0.00  0.00    +0.000 NA
ATOM     27  C   UNL     1      -5.778  12.755  22.014  0.00  0.00    +0.000 C 
ATOM     28  C   UNL     1      -7.916  13.625  21.383  0.00  0.00    +0.000 C 
ENDBRANCH  25  26
ENDBRANCH  24  25
ENDBRANCH  23  24
ENDBRANCH  22  23
ENDBRANCH   6  22
BRANCH  11  29
ATOM     29  C   UNL     1       0.752  11.608  20.270  0.00  0.00    +0.000 C 
BRANCH  29  30
ATOM     30  C   UNL     1       0.243  10.896  21.507  0.00  0.00    +0.000 A 
ATOM     31  C   UNL     1      -0.799  11.206  22.366  0.00  0.00    +0.000 A 
ATOM     32  C   UNL     1      -0.913  10.280  23.450  0.00  0.00    +0.000 A 
ATOM     33  C   UNL     1       0.051   9.299  23.391  0.00  0.00    +0.000 A 
ATOM     34  S   UNL     1       1.083   9.493  22.046  0.00  0.00    +0.000 S 
ENDBRANCH  29  30
ENDBRANCH  11  29
TORSDOF 11
ENDMDL
MODEL 9
REMARK VINA RESULT:      -6.6      2.931      4.536
REMARK  Name = 
REMARK  14 active torsions:
REMARK  status: ('A' for Active; 'I' for Inactive)
REMARK    1  A    between atoms: C_1  and  O_2
REMARK    2  A    between atoms: O_2  and  C_3
REMARK    3  A    between atoms: C_8  and  C_9
REMARK    4  A    between atoms: C_9  and  S_10
REMARK    5  A    between atoms: S_10  and  C_11
REMARK    6  A    between atoms: C_16  and  O_17
REMARK    7  A    between atoms: O_17  and  C_18
REMARK    8  A    between atoms: C_18  and  C_19
REMARK    9  A    between atoms: C_19  and  C_20
REMARK   10  A    between atoms: C_20  and  N_21
REMARK   11  A    between atoms: N_21  and  C_22
REMARK   12  A    between atoms: N_21  and  C_23
REMARK   13  A    between atoms: N_28  and  C_29
REMARK   14  A    between atoms: C_29  and  C_30
REMARK                            x       y       z     vdW  Elec       q    Type
REMARK                         _______ _______ _______ _____ _____    ______ ____
ROOT
ATOM      1  C   UNL     1       0.960  11.544  19.091  0.00  0.00    +0.000 A 
ATOM      2  N   UNL     1       1.324  10.657  18.221  0.00  0.00    +0.000 NA
ATOM      3  C   UNL     1       1.602   9.359  18.674  0.00  0.00    +0.000 A 
ATOM      4  C   UNL     1       2.316   8.485  17.859  0.00  0.00    +0.000 A 
ATOM      5  C   UNL     1       2.737   7.243  18.348  0.00  0.00    +0.000 A 
ATOM      6  C   UNL     1       2.409   6.830  19.645  0.00  0.00    +0.000 A 
ATOM      7  C   UNL     1       1.638   7.661  20.446  0.00  0.00    +0.000 A 
ATOM      8  C   UNL     1       1.265   8.931  19.954  0.00  0.00    +0.000 A 
ATOM      9  C   UNL     1       0.632   9.921  20.835  0.00  0.00    +0.000 A 
ATOM     10  O   UNL     1       0.075   9.537  21.859  0.00  0.00    +0.000 OA
ATOM     11  N   UNL     1       0.734  11.250  20.431  0.00  0.00    +0.000 N 
ENDROOT
BRANCH   1  12
ATOM     12  S   UNL     1       0.786  13.214  18.561  0.00  0.00    +0.000 S 
BRANCH  12  13
ATOM     13  C   UNL     1       2.486  13.628  18.032  0.00  0.00    +0.000 C 
BRANCH  13  19
ATOM     14  C   UNL     1       4.355  15.336  18.499  0.00  0.00    +0.000 A 
ATOM     15  C   UNL     1       4.804  16.507  19.135  0.00  0.00    +0.000 A 
ATOM     16  C   UNL     1       3.981  17.191  20.029  0.00  0.00    +0.000 A 
ATOM     17  C   UNL     1       2.703  16.721  20.284  0.00  0.00    +0.000 A 
ATOM     18  C   UNL     1       2.231  15.584  19.619  0.00  0.00    +0.000 A 
ATOM     19  C   UNL     1       3.034  14.885  18.697  0.00  0.00    +0.000 A 
BRANCH  14  21
ATOM     20  C   UNL     1       6.565  14.736  17.908  0.00  0.00    +0.000 C 
ATOM     21  O   UNL     1       5.164  14.594  17.673  0.00  0.00    +0.000 OA
ENDBRANCH  14  21
ENDBRANCH  13  19
ENDBRANCH  12  13
ENDBRANCH   1  12
BRANCH   6  22
ATOM     22  O   UNL     1       2.995   5.658  20.033  0.00  0.00    +0.000 OA
BRANCH  22  23
ATOM     23  C   UNL     1       4.098   5.171  19.261  0.00  0.00    +0.000 C 
BRANCH  23  24
ATOM     24  C   UNL     1       3.782   3.717  18.902  0.00  0.00    +0.000 C 
BRANCH  24  25
ATOM     25  C   UNL     1       3.440   2.843  20.113  0.00  0.00    +0.000 C 
BRANCH  25  26
ATOM     26  N   UNL     1       2.063   2.320  20.120  0.00  0.00    +0.000 NA
ATOM     27  C   UNL     1       1.288   2.815  21.261  0.00  0.00    +0.000 C 
ATOM     28  C   UNL     1       1.383   2.686  18.873  0.00  0.00    +0.000 C 
ENDBRANCH  25  26
ENDBRANCH  24  25
ENDBRANCH  23  24
ENDBRANCH  22  23
ENDBRANCH   6  22
BRANCH  11  29
ATOM     29  C   UNL     1       0.490  12.252  21.469  0.00  0.00    +0.000 C 
BRANCH  29  30
ATOM     30  C   UNL     1      -0.993  12.489  21.670  0.00  0.00    +0.000 A 
ATOM     31  C   UNL     1      -2.060  12.338  20.798  0.00  0.00    +0.000 A 
ATOM     32  C   UNL     1      -3.308  12.716  21.385  0.00  0.00    +0.000 A 
ATOM     33  C   UNL     1      -3.155  13.152  22.681  0.00  0.00    +0.000 A 
ATOM     34  S   UNL     1      -1.525  13.109  23.185  0.00  0.00    +0.000 S 
ENDBRANCH  29  30
ENDBRANCH  11  29
TORSDOF 11
ENDMDL
