MODEL 1
REMARK VINA RESULT:      -6.7      0.000      0.000
REMARK  Name = 
REMARK  7 active torsions:
REMARK  status: ('A' for Active; 'I' for Inactive)
REMARK    1  A    between atoms: N_1  and  CA_2
REMARK    2  A    between atoms: CA_2  and  C_3
REMARK    3  A    between atoms: CA_2  and  C_6
REMARK    4  A    between atoms: C_3  and  OXT_5
REMARK    5  A    between atoms: C_7  and  C_8
REMARK    6  A    between atoms: C_8  and  O_10
REMARK    7  A    between atoms: C_11  and  C_12
REMARK                            x       y       z     vdW  Elec       q    Type
REMARK                         _______ _______ _______ _____ _____    ______ ____
ROOT
ATOM      1  C   UNL     1       6.937   5.195  16.850  0.00  0.00    +0.000 C 
ATOM      2  C   UNL     1       6.077   5.079  15.606  0.00  0.00    +0.000 C 
ATOM      3  C   UNL     1       5.911   4.075  16.735  0.00  0.00    +0.000 C 
ENDROOT
BRANCH   3   4
ATOM      4  C   UNL     1       4.662   4.057  17.593  0.00  0.00    +0.000 A 
ATOM      5  C   UNL     1       4.648   3.555  18.906  0.00  0.00    +0.000 A 
ATOM      6  C   UNL     1       3.481   3.549  19.675  0.00  0.00    +0.000 A 
ATOM      7  C   UNL     1       2.299   4.068  19.153  0.00  0.00    +0.000 A 
ATOM      8  C   UNL     1       2.287   4.588  17.864  0.00  0.00    +0.000 A 
ATOM      9  C   UNL     1       3.458   4.580  17.094  0.00  0.00    +0.000 A 
ENDBRANCH   3   4
BRANCH   2  10
ATOM     10  C   UNL     1       6.689   4.620  14.332  0.00  0.00    +0.000 C 
ATOM     11  O   UNL     1       7.475   5.298  13.695  0.00  0.00    +0.000 OA
BRANCH  10  12
ATOM     12  O   UNL     1       6.297   3.385  13.955  0.00  0.00    +0.000 OA
ATOM     13  H   UNL     1       5.915   2.847  14.669  0.00  0.00    +0.000 HD
ENDBRANCH  10  12
ENDBRANCH   2  10
BRANCH   1  14
ATOM     14  CA  UNL     1       6.774   6.325  17.823  0.00  0.00    +0.000 C 
BRANCH  14  15
ATOM     15  N   UNL     1       7.154   7.609  17.167  0.00  0.00    +0.000 NA
ATOM     16  H1  UNL     1       7.608   8.203  17.860  0.00  0.00    +0.000 HD
ATOM     17  H2  UNL     1       6.293   8.106  16.917  0.00  0.00    +0.000 HD
ENDBRANCH  14  15
BRANCH  14  18
ATOM     18  C   UNL     1       7.645   6.159  19.087  0.00  0.00    +0.000 C 
ATOM     19  O   UNL     1       7.492   5.316  19.955  0.00  0.00    +0.000 OA
BRANCH  18  20
ATOM     20  OXT UNL     1       8.619   7.111  19.134  0.00  0.00    +0.000 OA
ATOM     21  HXT UNL     1       8.912   7.161  20.077  0.00  0.00    +0.000 HD
ENDBRANCH  18  20
ENDBRANCH  14  18
ENDBRANCH   1  14
TORSDOF 7
ENDMDL
MODEL 2
REMARK VINA RESULT:      -6.7      0.229      1.182
REMARK  Name = 
REMARK  7 active torsions:
REMARK  status: ('A' for Active; 'I' for Inactive)
REMARK    1  A    between atoms: N_1  and  CA_2
REMARK    2  A    between atoms: CA_2  and  C_3
REMARK    3  A    between atoms: CA_2  and  C_6
REMARK    4  A    between atoms: C_3  and  OXT_5
REMARK    5  A    between atoms: C_7  and  C_8
REMARK    6  A    between atoms: C_8  and  O_10
REMARK    7  A    between atoms: C_11  and  C_12
REMARK                            x       y       z     vdW  Elec       q    Type
REMARK                         _______ _______ _______ _____ _____    ______ ____
ROOT
ATOM      1  C   UNL     1       7.029   5.241  16.828  0.00  0.00    +0.000 C 
ATOM      2  C   UNL     1       6.150   5.160  15.594  0.00  0.00    +0.000 C 
ATOM      3  C   UNL     1       5.942   4.176  16.735  0.00  0.00    +0.000 C 
ENDROOT
BRANCH   3   4
ATOM      4  C   UNL     1       4.704   4.233  17.607  0.00  0.00    +0.000 A 
ATOM      5  C   UNL     1       3.526   4.892  17.212  0.00  0.00    +0.000 A 
ATOM      6  C   UNL     1       2.398   4.930  18.037  0.00  0.00    +0.000 A 
ATOM      7  C   UNL     1       2.415   4.289  19.272  0.00  0.00    +0.000 A 
ATOM      8  C   UNL     1       3.560   3.613  19.680  0.00  0.00    +0.000 A 
ATOM      9  C   UNL     1       4.691   3.590  18.854  0.00  0.00    +0.000 A 
ENDBRANCH   3   4
BRANCH   2  10
ATOM     10  C   UNL     1       6.721   4.656  14.319  0.00  0.00    +0.000 C 
ATOM     11  O   UNL     1       7.477   5.317  13.628  0.00  0.00    +0.000 OA
BRANCH  10  12
ATOM     12  O   UNL     1       6.330   3.404  14.005  0.00  0.00    +0.000 OA
ATOM     13  H   UNL     1       6.380   3.191  13.057  0.00  0.00    +0.000 HD
ENDBRANCH  10  12
ENDBRANCH   2  10
BRANCH   1  14
ATOM     14  CA  UNL     1       6.938   6.386  17.791  0.00  0.00    +0.000 C 
BRANCH  14  15
ATOM     15  N   UNL     1       7.279   7.658  17.091  0.00  0.00    +0.000 NA
ATOM     16  H1  UNL     1       7.747   7.428  16.215  0.00  0.00    +0.000 HD
ATOM     17  H2  UNL     1       7.986   8.148  17.647  0.00  0.00    +0.000 HD
ENDBRANCH  14  15
BRANCH  14  18
ATOM     18  C   UNL     1       7.893   6.236  18.995  0.00  0.00    +0.000 C 
ATOM     19  O   UNL     1       7.953   5.275  19.745  0.00  0.00    +0.000 OA
BRANCH  18  20
ATOM     20  OXT UNL     1       8.668   7.347  19.143  0.00  0.00    +0.000 OA
ATOM     21  HXT UNL     1       9.216   7.197  19.952  0.00  0.00    +0.000 HD
ENDBRANCH  18  20
ENDBRANCH  14  18
ENDBRANCH   1  14
TORSDOF 7
ENDMDL
MODEL 3
REMARK VINA RESULT:      -6.5      3.617      5.024
REMARK  Name = 
REMARK  7 active torsions:
REMARK  status: ('A' for Active; 'I' for Inactive)
REMARK    1  A    between atoms: N_1  and  CA_2
REMARK    2  A    between atoms: CA_2  and  C_3
REMARK    3  A    between atoms: CA_2  and  C_6
REMARK    4  A    between atoms: C_3  and  OXT_5
REMARK    5  A    between atoms: C_7  and  C_8
REMARK    6  A    between atoms: C_8  and  O_10
REMARK    7  A    between atoms: C_11  and  C_12
REMARK                            x       y       z     vdW  Elec       q    Type
REMARK                         _______ _______ _______ _____ _____    ______ ____
ROOT
ATOM      1  C   UNL     1       3.066   4.913  18.568  0.00  0.00    +0.000 C 
ATOM      2  C   UNL     1       3.859   3.621  18.526  0.00  0.00    +0.000 C 
ATOM      3  C   UNL     1       4.259   4.782  17.629  0.00  0.00    +0.000 C 
ENDROOT
BRANCH   3   4
ATOM      4  C   UNL     1       5.541   5.554  17.868  0.00  0.00    +0.000 A 
ATOM      5  C   UNL     1       6.535   5.121  18.763  0.00  0.00    +0.000 A 
ATOM      6  C   UNL     1       7.707   5.854  18.966  0.00  0.00    +0.000 A 
ATOM      7  C   UNL     1       7.924   7.031  18.256  0.00  0.00    +0.000 A 
ATOM      8  C   UNL     1       6.968   7.474  17.349  0.00  0.00    +0.000 A 
ATOM      9  C   UNL     1       5.789   6.742  17.161  0.00  0.00    +0.000 A 
ENDBRANCH   3   4
BRANCH   2  10
ATOM     10  C   UNL     1       3.261   2.414  17.900  0.00  0.00    +0.000 C 
ATOM     11  O   UNL     1       2.191   2.433  17.319  0.00  0.00    +0.000 OA
BRANCH  10  12
ATOM     12  O   UNL     1       4.016   1.304  18.031  0.00  0.00    +0.000 OA
ATOM     13  H   UNL     1       4.971   1.471  18.106  0.00  0.00    +0.000 HD
ENDBRANCH  10  12
ENDBRANCH   2  10
BRANCH   1  14
ATOM     14  CA  UNL     1       3.091   5.820  19.761  0.00  0.00    +0.000 C 
BRANCH  14  15
ATOM     15  N   UNL     1       2.411   5.155  20.910  0.00  0.00    +0.000 NA
ATOM     16  H1  UNL     1       2.461   5.774  21.718  0.00  0.00    +0.000 HD
ATOM     17  H2  UNL     1       2.964   4.332  21.173  0.00  0.00    +0.000 HD
ENDBRANCH  14  15
BRANCH  14  18
ATOM     18  C   UNL     1       2.384   7.169  19.506  0.00  0.00    +0.000 C 
ATOM     19  O   UNL     1       2.258   7.717  18.423  0.00  0.00    +0.000 OA
BRANCH  18  20
ATOM     20  OXT UNL     1       1.924   7.705  20.672  0.00  0.00    +0.000 OA
ATOM     21  HXT UNL     1       1.418   8.517  20.422  0.00  0.00    +0.000 HD
ENDBRANCH  18  20
ENDBRANCH  14  18
ENDBRANCH   1  14
TORSDOF 7
ENDMDL
MODEL 4
REMARK VINA RESULT:      -6.5      3.655      5.144
REMARK  Name = 
REMARK  7 active torsions:
REMARK  status: ('A' for Active; 'I' for Inactive)
REMARK    1  A    between atoms: N_1  and  CA_2
REMARK    2  A    between atoms: CA_2  and  C_3
REMARK    3  A    between atoms: CA_2  and  C_6
REMARK    4  A    between atoms: C_3  and  OXT_5
REMARK    5  A    between atoms: C_7  and  C_8
REMARK    6  A    between atoms: C_8  and  O_10
REMARK    7  A    between atoms: C_11  and  C_12
REMARK                            x       y       z     vdW  Elec       q    Type
REMARK                         _______ _______ _______ _____ _____    ______ ____
ROOT
ATOM      1  C   UNL     1       3.039   4.790  18.627  0.00  0.00    +0.000 C 
ATOM      2  C   UNL     1       3.862   3.518  18.559  0.00  0.00    +0.000 C 
ATOM      3  C   UNL     1       4.191   4.680  17.636  0.00  0.00    +0.000 C 
ENDROOT
BRANCH   3   4
ATOM      4  C   UNL     1       5.463   5.486  17.810  0.00  0.00    +0.000 A 
ATOM      5  C   UNL     1       5.683   6.710  17.153  0.00  0.00    +0.000 A 
ATOM      6  C   UNL     1       6.867   7.433  17.331  0.00  0.00    +0.000 A 
ATOM      7  C   UNL     1       7.852   6.956  18.190  0.00  0.00    +0.000 A 
ATOM      8  C   UNL     1       7.654   5.758  18.868  0.00  0.00    +0.000 A 
ATOM      9  C   UNL     1       6.471   5.033  18.676  0.00  0.00    +0.000 A 
ENDBRANCH   3   4
BRANCH   2  10
ATOM     10  C   UNL     1       3.267   2.291  17.970  0.00  0.00    +0.000 C 
ATOM     11  O   UNL     1       2.234   2.303  17.323  0.00  0.00    +0.000 OA
BRANCH  10  12
ATOM     12  O   UNL     1       3.977   1.171  18.215  0.00  0.00    +0.000 OA
ATOM     13  H   UNL     1       3.734   0.708  19.035  0.00  0.00    +0.000 HD
ENDBRANCH  10  12
ENDBRANCH   2  10
BRANCH   1  14
ATOM     14  CA  UNL     1       3.096   5.709  19.812  0.00  0.00    +0.000 C 
BRANCH  14  15
ATOM     15  N   UNL     1       2.401   5.075  20.969  0.00  0.00    +0.000 NA
ATOM     16  H1  UNL     1       1.396   5.188  20.844  0.00  0.00    +0.000 HD
ATOM     17  H2  UNL     1       2.626   5.617  21.810  0.00  0.00    +0.000 HD
ENDBRANCH  14  15
BRANCH  14  18
ATOM     18  C   UNL     1       2.427   7.075  19.546  0.00  0.00    +0.000 C 
ATOM     19  O   UNL     1       2.339   7.628  18.462  0.00  0.00    +0.000 OA
BRANCH  18  20
ATOM     20  OXT UNL     1       1.956   7.619  20.703  0.00  0.00    +0.000 OA
ATOM     21  HXT UNL     1       1.666   6.861  21.267  0.00  0.00    +0.000 HD
ENDBRANCH  18  20
ENDBRANCH  14  18
ENDBRANCH   1  14
TORSDOF 7
ENDMDL
MODEL 5
REMARK VINA RESULT:      -6.5      1.463      3.956
REMARK  Name = 
REMARK  7 active torsions:
REMARK  status: ('A' for Active; 'I' for Inactive)
REMARK    1  A    between atoms: N_1  and  CA_2
REMARK    2  A    between atoms: CA_2  and  C_3
REMARK    3  A    between atoms: CA_2  and  C_6
REMARK    4  A    between atoms: C_3  and  OXT_5
REMARK    5  A    between atoms: C_7  and  C_8
REMARK    6  A    between atoms: C_8  and  O_10
REMARK    7  A    between atoms: C_11  and  C_12
REMARK                            x       y       z     vdW  Elec       q    Type
REMARK                         _______ _______ _______ _____ _____    ______ ____
ROOT
ATOM      1  C   UNL     1       6.030   5.628  17.004  0.00  0.00    +0.000 C 
ATOM      2  C   UNL     1       6.524   5.119  18.344  0.00  0.00    +0.000 C 
ATOM      3  C   UNL     1       5.130   5.714  18.230  0.00  0.00    +0.000 C 
ENDROOT
BRANCH   3   4
ATOM      4  C   UNL     1       3.893   4.848  18.364  0.00  0.00    +0.000 A 
ATOM      5  C   UNL     1       2.678   5.154  17.724  0.00  0.00    +0.000 A 
ATOM      6  C   UNL     1       1.552   4.338  17.866  0.00  0.00    +0.000 A 
ATOM      7  C   UNL     1       1.621   3.182  18.637  0.00  0.00    +0.000 A 
ATOM      8  C   UNL     1       2.814   2.844  19.265  0.00  0.00    +0.000 A 
ATOM      9  C   UNL     1       3.936   3.672  19.129  0.00  0.00    +0.000 A 
ENDBRANCH   3   4
BRANCH   2  10
ATOM     10  C   UNL     1       7.564   5.883  19.081  0.00  0.00    +0.000 C 
ATOM     11  O   UNL     1       8.123   6.858  18.611  0.00  0.00    +0.000 OA
BRANCH  10  12
ATOM     12  O   UNL     1       7.822   5.400  20.313  0.00  0.00    +0.000 OA
ATOM     13  H   UNL     1       8.416   5.954  20.848  0.00  0.00    +0.000 HD
ENDBRANCH  10  12
ENDBRANCH   2  10
BRANCH   1  14
ATOM     14  CA  UNL     1       5.733   4.700  15.864  0.00  0.00    +0.000 C 
BRANCH  14  15
ATOM     15  N   UNL     1       5.840   3.287  16.328  0.00  0.00    +0.000 NA
ATOM     16  H1  UNL     1       6.816   3.092  16.550  0.00  0.00    +0.000 HD
ATOM     17  H2  UNL     1       5.622   2.674  15.536  0.00  0.00    +0.000 HD
ENDBRANCH  14  15
BRANCH  14  18
ATOM     18  C   UNL     1       6.698   4.883  14.672  0.00  0.00    +0.000 C 
ATOM     19  O   UNL     1       7.677   5.611  14.650  0.00  0.00    +0.000 OA
BRANCH  18  20
ATOM     20  OXT UNL     1       6.303   4.131  13.606  0.00  0.00    +0.000 OA
ATOM     21  HXT UNL     1       6.747   4.520  12.814  0.00  0.00    +0.000 HD
ENDBRANCH  18  20
ENDBRANCH  14  18
ENDBRANCH   1  14
TORSDOF 7
ENDMDL
MODEL 6
REMARK VINA RESULT:      -6.4      1.470      3.787
REMARK  Name = 
REMARK  7 active torsions:
REMARK  status: ('A' for Active; 'I' for Inactive)
REMARK    1  A    between atoms: N_1  and  CA_2
REMARK    2  A    between atoms: CA_2  and  C_3
REMARK    3  A    between atoms: CA_2  and  C_6
REMARK    4  A    between atoms: C_3  and  OXT_5
REMARK    5  A    between atoms: C_7  and  C_8
REMARK    6  A    between atoms: C_8  and  O_10
REMARK    7  A    between atoms: C_11  and  C_12
REMARK                            x       y       z     vdW  Elec       q    Type
REMARK                         _______ _______ _______ _____ _____    ______ ____
ROOT
ATOM      1  C   UNL     1       6.041   5.610  17.036  0.00  0.00    +0.000 C 
ATOM      2  C   UNL     1       6.535   5.090  18.372  0.00  0.00    +0.000 C 
ATOM      3  C   UNL     1       5.138   5.679  18.261  0.00  0.00    +0.000 C 
ENDROOT
BRANCH   3   4
ATOM      4  C   UNL     1       3.905   4.807  18.384  0.00  0.00    +0.000 A 
ATOM      5  C   UNL     1       3.889   3.614  19.129  0.00  0.00    +0.000 A 
ATOM      6  C   UNL     1       2.737   2.827  19.225  0.00  0.00    +0.000 A 
ATOM      7  C   UNL     1       1.564   3.228  18.593  0.00  0.00    +0.000 A 
ATOM      8  C   UNL     1       1.545   4.413  17.865  0.00  0.00    +0.000 A 
ATOM      9  C   UNL     1       2.706   5.190  17.763  0.00  0.00    +0.000 A 
ENDBRANCH   3   4
BRANCH   2  10
ATOM     10  C   UNL     1       7.570   5.852  19.118  0.00  0.00    +0.000 C 
ATOM     11  O   UNL     1       8.132   6.828  18.655  0.00  0.00    +0.000 OA
BRANCH  10  12
ATOM     12  O   UNL     1       7.820   5.365  20.350  0.00  0.00    +0.000 OA
ATOM     13  H   UNL     1       7.610   5.976  21.077  0.00  0.00    +0.000 HD
ENDBRANCH  10  12
ENDBRANCH   2  10
BRANCH   1  14
ATOM     14  CA  UNL     1       5.750   4.692  15.886  0.00  0.00    +0.000 C 
BRANCH  14  15
ATOM     15  N   UNL     1       5.856   3.275  16.339  0.00  0.00    +0.000 NA
ATOM     16  H1  UNL     1       5.526   3.218  17.301  0.00  0.00    +0.000 HD
ATOM     17  H2  UNL     1       6.850   3.029  16.386  0.00  0.00    +0.000 HD
ENDBRANCH  14  15
BRANCH  14  18
ATOM     18  C   UNL     1       6.721   4.887  14.701  0.00  0.00    +0.000 C 
ATOM     19  O   UNL     1       7.684   5.636  14.681  0.00  0.00    +0.000 OA
BRANCH  18  20
ATOM     20  OXT UNL     1       6.350   4.119  13.638  0.00  0.00    +0.000 OA
ATOM     21  HXT UNL     1       6.655   3.201  13.840  0.00  0.00    +0.000 HD
ENDBRANCH  18  20
ENDBRANCH  14  18
ENDBRANCH   1  14
TORSDOF 7
ENDMDL
MODEL 7
REMARK VINA RESULT:      -6.4      3.732      5.204
REMARK  Name = 
REMARK  7 active torsions:
REMARK  status: ('A' for Active; 'I' for Inactive)
REMARK    1  A    between atoms: N_1  and  CA_2
REMARK    2  A    between atoms: CA_2  and  C_3
REMARK    3  A    between atoms: CA_2  and  C_6
REMARK    4  A    between atoms: C_3  and  OXT_5
REMARK    5  A    between atoms: C_7  and  C_8
REMARK    6  A    between atoms: C_8  and  O_10
REMARK    7  A    between atoms: C_11  and  C_12
REMARK                            x       y       z     vdW  Elec       q    Type
REMARK                         _______ _______ _______ _____ _____    ______ ____
ROOT
ATOM      1  C   UNL     1       2.689   5.992  18.032  0.00  0.00    +0.000 C 
ATOM      2  C   UNL     1       3.077   4.553  18.309  0.00  0.00    +0.000 C 
ATOM      3  C   UNL     1       3.934   5.401  17.384  0.00  0.00    +0.000 C 
ENDROOT
BRANCH   3   4
ATOM      4  C   UNL     1       5.324   5.848  17.790  0.00  0.00    +0.000 A 
ATOM      5  C   UNL     1       6.042   5.242  18.836  0.00  0.00    +0.000 A 
ATOM      6  C   UNL     1       7.323   5.675  19.191  0.00  0.00    +0.000 A 
ATOM      7  C   UNL     1       7.927   6.714  18.489  0.00  0.00    +0.000 A 
ATOM      8  C   UNL     1       7.248   7.319  17.437  0.00  0.00    +0.000 A 
ATOM      9  C   UNL     1       5.960   6.889  17.095  0.00  0.00    +0.000 A 
ENDBRANCH   3   4
BRANCH   2  10
ATOM     10  C   UNL     1       2.273   3.450  17.720  0.00  0.00    +0.000 C 
ATOM     11  O   UNL     1       2.685   2.307  17.632  0.00  0.00    +0.000 OA
BRANCH  10  12
ATOM     12  O   UNL     1       1.051   3.834  17.299  0.00  0.00    +0.000 OA
ATOM     13  H   UNL     1       0.944   4.795  17.187  0.00  0.00    +0.000 HD
ENDBRANCH  10  12
ENDBRANCH   2  10
BRANCH   1  14
ATOM     14  CA  UNL     1       2.771   7.052  19.090  0.00  0.00    +0.000 C 
BRANCH  14  15
ATOM     15  N   UNL     1       2.139   6.556  20.346  0.00  0.00    +0.000 NA
ATOM     16  H1  UNL     1       1.304   7.112  20.528  0.00  0.00    +0.000 HD
ATOM     17  H2  UNL     1       2.771   6.767  21.125  0.00  0.00    +0.000 HD
ENDBRANCH  14  15
BRANCH  14  18
ATOM     18  C   UNL     1       2.061   8.362  18.685  0.00  0.00    +0.000 C 
ATOM     19  O   UNL     1       1.347   9.041  19.405  0.00  0.00    +0.000 OA
BRANCH  18  20
ATOM     20  OXT UNL     1       2.312   8.668  17.381  0.00  0.00    +0.000 OA
ATOM     21  HXT UNL     1       1.682   8.129  16.844  0.00  0.00    +0.000 HD
ENDBRANCH  18  20
ENDBRANCH  14  18
ENDBRANCH   1  14
TORSDOF 7
ENDMDL
MODEL 8
REMARK VINA RESULT:      -6.4      1.465      3.944
REMARK  Name = 
REMARK  7 active torsions:
REMARK  status: ('A' for Active; 'I' for Inactive)
REMARK    1  A    between atoms: N_1  and  CA_2
REMARK    2  A    between atoms: CA_2  and  C_3
REMARK    3  A    between atoms: CA_2  and  C_6
REMARK    4  A    between atoms: C_3  and  OXT_5
REMARK    5  A    between atoms: C_7  and  C_8
REMARK    6  A    between atoms: C_8  and  O_10
REMARK    7  A    between atoms: C_11  and  C_12
REMARK                            x       y       z     vdW  Elec       q    Type
REMARK                         _______ _______ _______ _____ _____    ______ ____
ROOT
ATOM      1  C   UNL     1       6.620   6.203  16.426  0.00  0.00    +0.000 C 
ATOM      2  C   UNL     1       7.090   6.595  17.813  0.00  0.00    +0.000 C 
ATOM      3  C   UNL     1       5.615   6.699  17.459  0.00  0.00    +0.000 C 
ENDROOT
BRANCH   3   4
ATOM      4  C   UNL     1       4.591   5.769  18.075  0.00  0.00    +0.000 A 
ATOM      5  C   UNL     1       3.259   5.699  17.628  0.00  0.00    +0.000 A 
ATOM      6  C   UNL     1       2.334   4.832  18.216  0.00  0.00    +0.000 A 
ATOM      7  C   UNL     1       2.727   3.995  19.256  0.00  0.00    +0.000 A 
ATOM      8  C   UNL     1       4.042   4.027  19.706  0.00  0.00    +0.000 A 
ATOM      9  C   UNL     1       4.961   4.908  19.121  0.00  0.00    +0.000 A 
ENDBRANCH   3   4
BRANCH   2  10
ATOM     10  C   UNL     1       7.866   7.849  17.998  0.00  0.00    +0.000 C 
ATOM     11  O   UNL     1       7.732   8.820  17.275  0.00  0.00    +0.000 OA
BRANCH  10  12
ATOM     12  O   UNL     1       8.723   7.810  19.038  0.00  0.00    +0.000 OA
ATOM     13  H   UNL     1       8.848   8.661  19.492  0.00  0.00    +0.000 HD
ENDBRANCH  10  12
ENDBRANCH   2  10
BRANCH   1  14
ATOM     14  CA  UNL     1       6.637   4.779  15.956  0.00  0.00    +0.000 C 
BRANCH  14  15
ATOM     15  N   UNL     1       7.723   4.035  16.657  0.00  0.00    +0.000 NA
ATOM     16  H1  UNL     1       7.852   4.446  17.581  0.00  0.00    +0.000 HD
ATOM     17  H2  UNL     1       8.603   4.214  16.163  0.00  0.00    +0.000 HD
ENDBRANCH  14  15
BRANCH  14  18
ATOM     18  C   UNL     1       6.877   4.650  14.436  0.00  0.00    +0.000 C 
ATOM     19  O   UNL     1       6.318   3.865  13.688  0.00  0.00    +0.000 OA
BRANCH  18  20
ATOM     20  OXT UNL     1       7.833   5.527  14.019  0.00  0.00    +0.000 OA
ATOM     21  HXT UNL     1       7.744   6.327  14.591  0.00  0.00    +0.000 HD
ENDBRANCH  18  20
ENDBRANCH  14  18
ENDBRANCH   1  14
TORSDOF 7
ENDMDL
MODEL 9
REMARK VINA RESULT:      -6.4      0.901      1.418
REMARK  Name = 
REMARK  7 active torsions:
REMARK  status: ('A' for Active; 'I' for Inactive)
REMARK    1  A    between atoms: N_1  and  CA_2
REMARK    2  A    between atoms: CA_2  and  C_3
REMARK    3  A    between atoms: CA_2  and  C_6
REMARK    4  A    between atoms: C_3  and  OXT_5
REMARK    5  A    between atoms: C_7  and  C_8
REMARK    6  A    between atoms: C_8  and  O_10
REMARK    7  A    between atoms: C_11  and  C_12
REMARK                            x       y       z     vdW  Elec       q    Type
REMARK                         _______ _______ _______ _____ _____    ______ ____
ROOT
ATOM      1  C   UNL     1       6.829   4.932  16.630  0.00  0.00    +0.000 C 
ATOM      2  C   UNL     1       6.072   5.039  15.321  0.00  0.00    +0.000 C 
ATOM      3  C   UNL     1       5.693   3.964  16.328  0.00  0.00    +0.000 C 
ENDROOT
BRANCH   3   4
ATOM      4  C   UNL     1       4.381   4.024  17.084  0.00  0.00    +0.000 A 
ATOM      5  C   UNL     1       3.658   5.216  17.260  0.00  0.00    +0.000 A 
ATOM      6  C   UNL     1       2.450   5.243  17.964  0.00  0.00    +0.000 A 
ATOM      7  C   UNL     1       1.925   4.068  18.492  0.00  0.00    +0.000 A 
ATOM      8  C   UNL     1       2.609   2.870  18.317  0.00  0.00    +0.000 A 
ATOM      9  C   UNL     1       3.824   2.852  17.622  0.00  0.00    +0.000 A 
ENDBRANCH   3   4
BRANCH   2  10
ATOM     10  C   UNL     1       6.732   4.624  14.056  0.00  0.00    +0.000 C 
ATOM     11  O   UNL     1       7.572   5.306  13.496  0.00  0.00    +0.000 OA
BRANCH  10  12
ATOM     12  O   UNL     1       6.319   3.427  13.594  0.00  0.00    +0.000 OA
ATOM     13  H   UNL     1       5.518   3.460  13.043  0.00  0.00    +0.000 HD
ENDBRANCH  10  12
ENDBRANCH   2  10
BRANCH   1  14
ATOM     14  CA  UNL     1       6.717   5.980  17.698  0.00  0.00    +0.000 C 
BRANCH  14  15
ATOM     15  N   UNL     1       7.528   7.171  17.317  0.00  0.00    +0.000 NA
ATOM     16  H1  UNL     1       6.933   7.998  17.370  0.00  0.00    +0.000 HD
ATOM     17  H2  UNL     1       7.773   7.086  16.325  0.00  0.00    +0.000 HD
ENDBRANCH  14  15
BRANCH  14  18
ATOM     18  C   UNL     1       7.210   5.489  19.076  0.00  0.00    +0.000 C 
ATOM     19  O   UNL     1       8.376   5.372  19.418  0.00  0.00    +0.000 OA
BRANCH  18  20
ATOM     20  OXT UNL     1       6.160   5.167  19.883  0.00  0.00    +0.000 OA
ATOM     21  HXT UNL     1       6.179   5.811  20.632  0.00  0.00    +0.000 HD
ENDBRANCH  18  20
ENDBRANCH  14  18
ENDBRANCH   1  14
TORSDOF 7
ENDMDL
