MODEL 1
REMARK VINA RESULT:      -8.7      0.000      0.000
REMARK  Name = 
REMARK  12 active torsions:
REMARK  status: ('A' for Active; 'I' for Inactive)
REMARK    1  A    between atoms: C_1  and  S_2
REMARK    2  A    between atoms: S_2  and  N_5
REMARK    3  A    between atoms: N_5  and  C_6
REMARK    4  A    between atoms: C_8  and  C_9
REMARK    5  A    between atoms: C_9  and  O_10
REMARK    6  A    between atoms: C_9  and  C_11
REMARK    7  A    between atoms: C_11  and  N_12
REMARK    8  A    between atoms: N_12  and  C_13
REMARK    9  A    between atoms: C_13  and  C_14
REMARK   10  A    between atoms: C_13  and  C_21
REMARK   11  A    between atoms: C_14  and  C_15
REMARK   12  A    between atoms: C_31  and  O_32
REMARK                            x       y       z     vdW  Elec       q    Type
REMARK                         _______ _______ _______ _____ _____    ______ ____
ROOT
ATOM      1  C   UNL     1       1.847   8.470  18.147  0.00  0.00    +0.000 C 
ENDROOT
BRANCH   1   2
ATOM      2  N   UNL     1       3.156   7.805  18.048  0.00  0.00    +0.000 NA
ATOM      3  H   UNL     1       3.564   7.805  18.986  0.00  0.00    +0.000 HD
BRANCH   2   4
ATOM      4  C   UNL     1       3.092   6.412  17.538  0.00  0.00    +0.000 C 
BRANCH   4   5
ATOM      5  C   UNL     1       2.574   5.421  18.601  0.00  0.00    +0.000 A 
ATOM      6  C   UNL     1       2.919   5.582  19.957  0.00  0.00    +0.000 A 
ATOM      7  C   UNL     1       2.491   4.671  20.930  0.00  0.00    +0.000 A 
ATOM      8  C   UNL     1       1.725   3.561  20.568  0.00  0.00    +0.000 A 
ATOM      9 CL   UNL     1       1.267   2.452  21.809  0.00  0.00    +0.000 Cl
ATOM     10  C   UNL     1       1.369   3.380  19.231  0.00  0.00    +0.000 A 
ATOM     11 CL   UNL     1       0.435   2.028  18.694  0.00  0.00    +0.000 Cl
ATOM     12  C   UNL     1       1.785   4.308  18.266  0.00  0.00    +0.000 A 
ENDBRANCH   4   5
BRANCH   4  13
ATOM     13  C   UNL     1       4.413   5.911  16.858  0.00  0.00    +0.000 C 
BRANCH  13  14
ATOM     14  C   UNL     1       5.699   6.231  17.590  0.00  0.00    +0.000 A 
ATOM     15  C   UNL     1       6.488   7.318  17.185  0.00  0.00    +0.000 A 
ATOM     16  C   UNL     1       7.722   7.565  17.786  0.00  0.00    +0.000 A 
ATOM     17  C   UNL     1       8.176   6.742  18.815  0.00  0.00    +0.000 A 
ATOM     18  C   UNL     1       7.376   5.700  19.273  0.00  0.00    +0.000 A 
ATOM     19  C   UNL     1       6.140   5.455  18.673  0.00  0.00    +0.000 A 
ENDBRANCH  13  14
ENDBRANCH   4  13
ENDBRANCH   2   4
ENDBRANCH   1   2
BRANCH   1  20
ATOM     20  C   UNL     1       1.614   9.169  19.514  0.00  0.00    +0.000 C 
BRANCH  20  23
ATOM     21  C   UNL     1      -1.261  11.348  18.199  0.00  0.00    +0.000 A 
ATOM     22  C   UNL     1      -0.182  10.463  18.232  0.00  0.00    +0.000 A 
ATOM     23  C   UNL     1       0.453  10.155  19.449  0.00  0.00    +0.000 A 
ATOM     24  C   UNL     1      -0.011  10.780  20.622  0.00  0.00    +0.000 A 
ATOM     25  C   UNL     1      -1.125  11.630  20.596  0.00  0.00    +0.000 A 
ATOM     26  C   UNL     1      -1.756  11.895  19.386  0.00  0.00    +0.000 A 
BRANCH  21  27
ATOM     27  N   UNL     1      -1.885  11.679  16.948  0.00  0.00    +0.000 N 
ATOM     28  H   UNL     1      -2.400  12.562  17.038  0.00  0.00    +0.000 HD
BRANCH  27  30
ATOM     29  C   UNL     1      -4.505  11.503  16.494  0.00  0.00    +0.000 C 
ATOM     30  S   UNL     1      -3.009  10.550  16.353  0.00  0.00    +0.000 S 
ATOM     31  O   UNL     1      -3.080   9.492  17.328  0.00  0.00    +0.000 OA
ATOM     32  O   UNL     1      -2.784  10.297  14.947  0.00  0.00    +0.000 OA
ENDBRANCH  27  30
ENDBRANCH  21  27
BRANCH  26  33
ATOM     33  O   UNL     1      -2.847  12.717  19.319  0.00  0.00    +0.000 OA
ATOM     34  H   UNL     1      -3.559  12.257  18.840  0.00  0.00    +0.000 HD
ENDBRANCH  26  33
ENDBRANCH  20  23
BRANCH  20  35
ATOM     35  O   UNL     1       1.377   8.180  20.520  0.00  0.00    +0.000 OA
ATOM     36  H   UNL     1       1.102   7.358  20.084  0.00  0.00    +0.000 HD
ENDBRANCH  20  35
ENDBRANCH   1  20
TORSDOF 11
ENDMDL
MODEL 2
REMARK VINA RESULT:      -8.4      2.761      3.656
REMARK  Name = 
REMARK  12 active torsions:
REMARK  status: ('A' for Active; 'I' for Inactive)
REMARK    1  A    between atoms: C_1  and  S_2
REMARK    2  A    between atoms: S_2  and  N_5
REMARK    3  A    between atoms: N_5  and  C_6
REMARK    4  A    between atoms: C_8  and  C_9
REMARK    5  A    between atoms: C_9  and  O_10
REMARK    6  A    between atoms: C_9  and  C_11
REMARK    7  A    between atoms: C_11  and  N_12
REMARK    8  A    between atoms: N_12  and  C_13
REMARK    9  A    between atoms: C_13  and  C_14
REMARK   10  A    between atoms: C_13  and  C_21
REMARK   11  A    between atoms: C_14  and  C_15
REMARK   12  A    between atoms: C_31  and  O_32
REMARK                            x       y       z     vdW  Elec       q    Type
REMARK                         _______ _______ _______ _____ _____    ______ ____
ROOT
ATOM      1  C   UNL     1       2.187   9.194  17.991  0.00  0.00    +0.000 C 
ENDROOT
BRANCH   1   2
ATOM      2  N   UNL     1       1.636   7.895  17.574  0.00  0.00    +0.000 NA
ATOM      3  H   UNL     1       1.278   8.013  16.623  0.00  0.00    +0.000 HD
BRANCH   2   4
ATOM      4  C   UNL     1       2.620   6.783  17.597  0.00  0.00    +0.000 C 
BRANCH   4   5
ATOM      5  C   UNL     1       2.259   5.703  18.638  0.00  0.00    +0.000 A 
ATOM      6  C   UNL     1       2.587   5.880  19.997  0.00  0.00    +0.000 A 
ATOM      7  C   UNL     1       2.303   4.894  20.948  0.00  0.00    +0.000 A 
ATOM      8  C   UNL     1       1.705   3.693  20.562  0.00  0.00    +0.000 A 
ATOM      9 CL   UNL     1       1.423   2.500  21.778  0.00  0.00    +0.000 Cl
ATOM     10  C   UNL     1       1.371   3.493  19.223  0.00  0.00    +0.000 A 
ATOM     11 CL   UNL     1       0.642   2.031  18.656  0.00  0.00    +0.000 Cl
ATOM     12  C   UNL     1       1.640   4.493  18.279  0.00  0.00    +0.000 A 
ENDBRANCH   4   5
BRANCH   4  13
ATOM     13  C   UNL     1       4.114   7.244  17.717  0.00  0.00    +0.000 C 
BRANCH  13  14
ATOM     14  C   UNL     1       5.156   6.239  17.277  0.00  0.00    +0.000 A 
ATOM     15  C   UNL     1       6.025   5.666  18.218  0.00  0.00    +0.000 A 
ATOM     16  C   UNL     1       7.052   4.815  17.813  0.00  0.00    +0.000 A 
ATOM     17  C   UNL     1       7.215   4.507  16.464  0.00  0.00    +0.000 A 
ATOM     18  C   UNL     1       6.322   5.015  15.526  0.00  0.00    +0.000 A 
ATOM     19  C   UNL     1       5.292   5.864  15.931  0.00  0.00    +0.000 A 
ENDBRANCH  13  14
ENDBRANCH   4  13
ENDBRANCH   2   4
ENDBRANCH   1   2
BRANCH   1  20
ATOM     20  C   UNL     1       1.097  10.228  18.383  0.00  0.00    +0.000 C 
BRANCH  20  23
ATOM     21  C   UNL     1      -0.550  10.859  21.794  0.00  0.00    +0.000 A 
ATOM     22  C   UNL     1      -0.212  10.988  20.446  0.00  0.00    +0.000 A 
ATOM     23  C   UNL     1       0.732  10.125  19.860  0.00  0.00    +0.000 A 
ATOM     24  C   UNL     1       1.341   9.149  20.672  0.00  0.00    +0.000 A 
ATOM     25  C   UNL     1       0.965   8.987  22.012  0.00  0.00    +0.000 A 
ATOM     26  C   UNL     1       0.007   9.831  22.561  0.00  0.00    +0.000 A 
BRANCH  21  27
ATOM     27  N   UNL     1      -1.493  11.762  22.391  0.00  0.00    +0.000 N 
ATOM     28  H   UNL     1      -2.340  11.816  21.815  0.00  0.00    +0.000 HD
BRANCH  27  30
ATOM     29  C   UNL     1      -1.953  14.166  21.335  0.00  0.00    +0.000 C 
ATOM     30  S   UNL     1      -0.967  13.368  22.584  0.00  0.00    +0.000 S 
ATOM     31  O   UNL     1       0.402  13.407  22.141  0.00  0.00    +0.000 OA
ATOM     32  O   UNL     1      -1.383  13.892  23.867  0.00  0.00    +0.000 OA
ENDBRANCH  27  30
ENDBRANCH  21  27
BRANCH  26  33
ATOM     33  O   UNL     1      -0.389   9.704  23.865  0.00  0.00    +0.000 OA
ATOM     34  H   UNL     1       0.289  10.102  24.440  0.00  0.00    +0.000 HD
ENDBRANCH  26  33
ENDBRANCH  20  23
BRANCH  20  35
ATOM     35  O   UNL     1       1.558  11.546  18.071  0.00  0.00    +0.000 OA
ATOM     36  H   UNL     1       1.174  11.813  17.221  0.00  0.00    +0.000 HD
ENDBRANCH  20  35
ENDBRANCH   1  20
TORSDOF 11
ENDMDL
MODEL 3
REMARK VINA RESULT:      -8.4      0.998      1.040
REMARK  Name = 
REMARK  12 active torsions:
REMARK  status: ('A' for Active; 'I' for Inactive)
REMARK    1  A    between atoms: C_1  and  S_2
REMARK    2  A    between atoms: S_2  and  N_5
REMARK    3  A    between atoms: N_5  and  C_6
REMARK    4  A    between atoms: C_8  and  C_9
REMARK    5  A    between atoms: C_9  and  O_10
REMARK    6  A    between atoms: C_9  and  C_11
REMARK    7  A    between atoms: C_11  and  N_12
REMARK    8  A    between atoms: N_12  and  C_13
REMARK    9  A    between atoms: C_13  and  C_14
REMARK   10  A    between atoms: C_13  and  C_21
REMARK   11  A    between atoms: C_14  and  C_15
REMARK   12  A    between atoms: C_31  and  O_32
REMARK                            x       y       z     vdW  Elec       q    Type
REMARK                         _______ _______ _______ _____ _____    ______ ____
ROOT
ATOM      1  C   UNL     1       1.858   8.368  18.672  0.00  0.00    +0.000 C 
ENDROOT
BRANCH   1   2
ATOM      2  N   UNL     1       3.124   7.835  18.144  0.00  0.00    +0.000 NA
ATOM      3  H   UNL     1       3.802   7.858  18.909  0.00  0.00    +0.000 HD
BRANCH   2   4
ATOM      4  C   UNL     1       3.024   6.450  17.614  0.00  0.00    +0.000 C 
BRANCH   4   5
ATOM      5  C   UNL     1       2.519   5.452  18.676  0.00  0.00    +0.000 A 
ATOM      6  C   UNL     1       2.802   5.654  20.041  0.00  0.00    +0.000 A 
ATOM      7  C   UNL     1       2.386   4.738  21.014  0.00  0.00    +0.000 A 
ATOM      8  C   UNL     1       1.695   3.582  20.645  0.00  0.00    +0.000 A 
ATOM      9 CL   UNL     1       1.249   2.472  21.889  0.00  0.00    +0.000 Cl
ATOM     10  C   UNL     1       1.402   3.359  19.300  0.00  0.00    +0.000 A 
ATOM     11 CL   UNL     1       0.563   1.950  18.754  0.00  0.00    +0.000 Cl
ATOM     12  C   UNL     1       1.804   4.291  18.333  0.00  0.00    +0.000 A 
ENDBRANCH   4   5
BRANCH   4  13
ATOM     13  C   UNL     1       4.320   5.940  16.892  0.00  0.00    +0.000 C 
BRANCH  13  14
ATOM     14  C   UNL     1       5.630   6.243  17.587  0.00  0.00    +0.000 A 
ATOM     15  C   UNL     1       6.399   7.347  17.189  0.00  0.00    +0.000 A 
ATOM     16  C   UNL     1       7.652   7.582  17.752  0.00  0.00    +0.000 A 
ATOM     17  C   UNL     1       8.148   6.729  18.736  0.00  0.00    +0.000 A 
ATOM     18  C   UNL     1       7.370   5.667  19.188  0.00  0.00    +0.000 A 
ATOM     19  C   UNL     1       6.114   5.435  18.627  0.00  0.00    +0.000 A 
ENDBRANCH  13  14
ENDBRANCH   4  13
ENDBRANCH   2   4
ENDBRANCH   1   2
BRANCH   1  20
ATOM     20  C   UNL     1       1.269   9.519  17.812  0.00  0.00    +0.000 C 
BRANCH  20  23
ATOM     21  C   UNL     1      -1.833  11.607  18.682  0.00  0.00    +0.000 A 
ATOM     22  C   UNL     1      -0.883  10.896  17.948  0.00  0.00    +0.000 A 
ATOM     23  C   UNL     1       0.232  10.324  18.587  0.00  0.00    +0.000 A 
ATOM     24  C   UNL     1       0.374  10.508  19.976  0.00  0.00    +0.000 A 
ATOM     25  C   UNL     1      -0.606  11.179  20.720  0.00  0.00    +0.000 A 
ATOM     26  C   UNL     1      -1.714  11.709  20.071  0.00  0.00    +0.000 A 
BRANCH  21  27
ATOM     27  N   UNL     1      -2.953  12.213  18.017  0.00  0.00    +0.000 N 
ATOM     28  H   UNL     1      -3.585  12.632  18.708  0.00  0.00    +0.000 HD
BRANCH  27  30
ATOM     29  C   UNL     1      -5.455  12.072  17.107  0.00  0.00    +0.000 C 
ATOM     30  S   UNL     1      -3.920  11.170  17.084  0.00  0.00    +0.000 S 
ATOM     31  O   UNL     1      -4.111   9.978  17.868  0.00  0.00    +0.000 OA
ATOM     32  O   UNL     1      -3.457  11.134  15.714  0.00  0.00    +0.000 OA
ENDBRANCH  27  30
ENDBRANCH  21  27
BRANCH  26  33
ATOM     33  O   UNL     1      -2.694  12.369  20.762  0.00  0.00    +0.000 OA
ATOM     34  H   UNL     1      -3.485  12.438  20.199  0.00  0.00    +0.000 HD
ENDBRANCH  26  33
ENDBRANCH  20  23
BRANCH  20  35
ATOM     35  O   UNL     1       2.330  10.368  17.363  0.00  0.00    +0.000 OA
ATOM     36  H   UNL     1       3.100  10.226  17.935  0.00  0.00    +0.000 HD
ENDBRANCH  20  35
ENDBRANCH   1  20
TORSDOF 11
ENDMDL
MODEL 4
REMARK VINA RESULT:      -8.3      1.137      1.570
REMARK  Name = 
REMARK  12 active torsions:
REMARK  status: ('A' for Active; 'I' for Inactive)
REMARK    1  A    between atoms: C_1  and  S_2
REMARK    2  A    between atoms: S_2  and  N_5
REMARK    3  A    between atoms: N_5  and  C_6
REMARK    4  A    between atoms: C_8  and  C_9
REMARK    5  A    between atoms: C_9  and  O_10
REMARK    6  A    between atoms: C_9  and  C_11
REMARK    7  A    between atoms: C_11  and  N_12
REMARK    8  A    between atoms: N_12  and  C_13
REMARK    9  A    between atoms: C_13  and  C_14
REMARK   10  A    between atoms: C_13  and  C_21
REMARK   11  A    between atoms: C_14  and  C_15
REMARK   12  A    between atoms: C_31  and  O_32
REMARK                            x       y       z     vdW  Elec       q    Type
REMARK                         _______ _______ _______ _____ _____    ______ ____
ROOT
ATOM      1  C   UNL     1       2.016   9.316  18.184  0.00  0.00    +0.000 C 
ENDROOT
BRANCH   1   2
ATOM      2  N   UNL     1       1.446   8.010  17.815  0.00  0.00    +0.000 NA
ATOM      3  H   UNL     1       0.967   8.134  16.920  0.00  0.00    +0.000 HD
BRANCH   2   4
ATOM      4  C   UNL     1       2.451   6.923  17.691  0.00  0.00    +0.000 C 
BRANCH   4   5
ATOM      5  C   UNL     1       2.196   5.773  18.688  0.00  0.00    +0.000 A 
ATOM      6  C   UNL     1       2.514   5.924  20.052  0.00  0.00    +0.000 A 
ATOM      7  C   UNL     1       2.327   4.878  20.963  0.00  0.00    +0.000 A 
ATOM      8  C   UNL     1       1.839   3.644  20.529  0.00  0.00    +0.000 A 
ATOM      9 CL   UNL     1       1.674   2.382  21.695  0.00  0.00    +0.000 Cl
ATOM     10  C   UNL     1       1.517   3.469  19.183  0.00  0.00    +0.000 A 
ATOM     11 CL   UNL     1       0.920   1.972  18.559  0.00  0.00    +0.000 Cl
ATOM     12  C   UNL     1       1.687   4.528  18.280  0.00  0.00    +0.000 A 
ENDBRANCH   4   5
BRANCH   4  13
ATOM     13  C   UNL     1       3.940   7.413  17.723  0.00  0.00    +0.000 C 
BRANCH  13  14
ATOM     14  C   UNL     1       4.981   6.402  17.293  0.00  0.00    +0.000 A 
ATOM     15  C   UNL     1       5.788   5.771  18.251  0.00  0.00    +0.000 A 
ATOM     16  C   UNL     1       6.815   4.912  17.862  0.00  0.00    +0.000 A 
ATOM     17  C   UNL     1       7.039   4.655  16.511  0.00  0.00    +0.000 A 
ATOM     18  C   UNL     1       6.206   5.221  15.552  0.00  0.00    +0.000 A 
ATOM     19  C   UNL     1       5.176   6.078  15.941  0.00  0.00    +0.000 A 
ENDBRANCH  13  14
ENDBRANCH   4  13
ENDBRANCH   2   4
ENDBRANCH   1   2
BRANCH   1  20
ATOM     20  C   UNL     1       1.551   9.817  19.579  0.00  0.00    +0.000 C 
BRANCH  20  23
ATOM     21  C   UNL     1      -1.545  11.608  18.183  0.00  0.00    +0.000 A 
ATOM     22  C   UNL     1      -0.371  10.857  18.248  0.00  0.00    +0.000 A 
ATOM     23  C   UNL     1       0.282  10.656  19.478  0.00  0.00    +0.000 A 
ATOM     24  C   UNL     1      -0.265  11.252  20.631  0.00  0.00    +0.000 A 
ATOM     25  C   UNL     1      -1.471  11.963  20.574  0.00  0.00    +0.000 A 
ATOM     26  C   UNL     1      -2.115  12.122  19.352  0.00  0.00    +0.000 A 
BRANCH  21  27
ATOM     27  N   UNL     1      -2.190  11.832  16.920  0.00  0.00    +0.000 N 
ATOM     28  H   UNL     1      -2.545  12.793  16.874  0.00  0.00    +0.000 HD
BRANCH  27  30
ATOM     29  C   UNL     1      -3.221  10.501  14.853  0.00  0.00    +0.000 C 
ATOM     30  S   UNL     1      -3.524  10.834  16.576  0.00  0.00    +0.000 S 
ATOM     31  O   UNL     1      -4.692  11.672  16.652  0.00  0.00    +0.000 OA
ATOM     32  O   UNL     1      -3.419   9.579  17.286  0.00  0.00    +0.000 OA
ENDBRANCH  27  30
ENDBRANCH  21  27
BRANCH  26  33
ATOM     33  O   UNL     1      -3.295  12.807  19.255  0.00  0.00    +0.000 OA
ATOM     34  H   UNL     1      -3.868  12.358  18.609  0.00  0.00    +0.000 HD
ENDBRANCH  26  33
ENDBRANCH  20  23
BRANCH  20  35
ATOM     35  O   UNL     1       1.343   8.695  20.442  0.00  0.00    +0.000 OA
ATOM     36  H   UNL     1       0.880   9.000  21.238  0.00  0.00    +0.000 HD
ENDBRANCH  20  35
ENDBRANCH   1  20
TORSDOF 11
ENDMDL
MODEL 5
REMARK VINA RESULT:      -8.3      2.032      3.027
REMARK  Name = 
REMARK  12 active torsions:
REMARK  status: ('A' for Active; 'I' for Inactive)
REMARK    1  A    between atoms: C_1  and  S_2
REMARK    2  A    between atoms: S_2  and  N_5
REMARK    3  A    between atoms: N_5  and  C_6
REMARK    4  A    between atoms: C_8  and  C_9
REMARK    5  A    between atoms: C_9  and  O_10
REMARK    6  A    between atoms: C_9  and  C_11
REMARK    7  A    between atoms: C_11  and  N_12
REMARK    8  A    between atoms: N_12  and  C_13
REMARK    9  A    between atoms: C_13  and  C_14
REMARK   10  A    between atoms: C_13  and  C_21
REMARK   11  A    between atoms: C_14  and  C_15
REMARK   12  A    between atoms: C_31  and  O_32
REMARK                            x       y       z     vdW  Elec       q    Type
REMARK                         _______ _______ _______ _____ _____    ______ ____
ROOT
ATOM      1  C   UNL     1       1.869   8.602  18.827  0.00  0.00    +0.000 C 
ENDROOT
BRANCH   1   2
ATOM      2  N   UNL     1       3.107   7.927  18.404  0.00  0.00    +0.000 NA
ATOM      3  H   UNL     1       3.689   7.819  19.237  0.00  0.00    +0.000 HD
BRANCH   2   4
ATOM      4  C   UNL     1       2.889   6.599  17.777  0.00  0.00    +0.000 C 
BRANCH   4   5
ATOM      5  C   UNL     1       2.416   5.540  18.796  0.00  0.00    +0.000 A 
ATOM      6  C   UNL     1       2.707   5.687  20.166  0.00  0.00    +0.000 A 
ATOM      7  C   UNL     1       2.320   4.717  21.099  0.00  0.00    +0.000 A 
ATOM      8  C   UNL     1       1.654   3.563  20.682  0.00  0.00    +0.000 A 
ATOM      9 CL   UNL     1       1.245   2.386  21.877  0.00  0.00    +0.000 Cl
ATOM     10  C   UNL     1       1.355   3.395  19.330  0.00  0.00    +0.000 A 
ATOM     11 CL   UNL     1       0.545   1.992  18.726  0.00  0.00    +0.000 Cl
ATOM     12  C   UNL     1       1.727   4.380  18.405  0.00  0.00    +0.000 A 
ENDBRANCH   4   5
BRANCH   4  13
ATOM     13  C   UNL     1       4.092   6.088  16.910  0.00  0.00    +0.000 C 
BRANCH  13  14
ATOM     14  C   UNL     1       5.462   6.200  17.545  0.00  0.00    +0.000 A 
ATOM     15  C   UNL     1       5.829   5.332  18.584  0.00  0.00    +0.000 A 
ATOM     16  C   UNL     1       7.048   5.487  19.243  0.00  0.00    +0.000 A 
ATOM     17  C   UNL     1       7.926   6.499  18.861  0.00  0.00    +0.000 A 
ATOM     18  C   UNL     1       7.605   7.327  17.790  0.00  0.00    +0.000 A 
ATOM     19  C   UNL     1       6.387   7.169  17.128  0.00  0.00    +0.000 A 
ENDBRANCH  13  14
ENDBRANCH   4  13
ENDBRANCH   2   4
ENDBRANCH   1   2
BRANCH   1  20
ATOM     20  C   UNL     1       1.328   9.610  17.777  0.00  0.00    +0.000 C 
BRANCH  20  23
ATOM     21  C   UNL     1      -0.987  11.972  19.728  0.00  0.00    +0.000 A 
ATOM     22  C   UNL     1       0.161  11.304  19.298  0.00  0.00    +0.000 A 
ATOM     23  C   UNL     1       0.085  10.333  18.283  0.00  0.00    +0.000 A 
ATOM     24  C   UNL     1      -1.178  10.037  17.734  0.00  0.00    +0.000 A 
ATOM     25  C   UNL     1      -2.322  10.743  18.130  0.00  0.00    +0.000 A 
ATOM     26  C   UNL     1      -2.216  11.721  19.113  0.00  0.00    +0.000 A 
BRANCH  21  27
ATOM     27  N   UNL     1      -0.904  12.942  20.784  0.00  0.00    +0.000 N 
ATOM     28  H   UNL     1       0.048  13.317  20.841  0.00  0.00    +0.000 HD
BRANCH  27  30
ATOM     29  C   UNL     1      -1.042  13.875  23.277  0.00  0.00    +0.000 C 
ATOM     30  S   UNL     1      -1.267  12.374  22.346  0.00  0.00    +0.000 S 
ATOM     31  O   UNL     1      -0.202  11.478  22.714  0.00  0.00    +0.000 OA
ATOM     32  O   UNL     1      -2.662  12.006  22.445  0.00  0.00    +0.000 OA
ENDBRANCH  27  30
ENDBRANCH  21  27
BRANCH  26  33
ATOM     33  O   UNL     1      -3.309  12.434  19.526  0.00  0.00    +0.000 OA
ATOM     34  H   UNL     1      -3.046  13.017  20.259  0.00  0.00    +0.000 HD
ENDBRANCH  26  33
ENDBRANCH  20  23
BRANCH  20  35
ATOM     35  O   UNL     1       2.355  10.550  17.447  0.00  0.00    +0.000 OA
ATOM     36  H   UNL     1       3.159  10.311  17.934  0.00  0.00    +0.000 HD
ENDBRANCH  20  35
ENDBRANCH   1  20
TORSDOF 11
ENDMDL
MODEL 6
REMARK VINA RESULT:      -8.3      3.354      5.243
REMARK  Name = 
REMARK  12 active torsions:
REMARK  status: ('A' for Active; 'I' for Inactive)
REMARK    1  A    between atoms: C_1  and  S_2
REMARK    2  A    between atoms: S_2  and  N_5
REMARK    3  A    between atoms: N_5  and  C_6
REMARK    4  A    between atoms: C_8  and  C_9
REMARK    5  A    between atoms: C_9  and  O_10
REMARK    6  A    between atoms: C_9  and  C_11
REMARK    7  A    between atoms: C_11  and  N_12
REMARK    8  A    between atoms: N_12  and  C_13
REMARK    9  A    between atoms: C_13  and  C_14
REMARK   10  A    between atoms: C_13  and  C_21
REMARK   11  A    between atoms: C_14  and  C_15
REMARK   12  A    between atoms: C_31  and  O_32
REMARK                            x       y       z     vdW  Elec       q    Type
REMARK                         _______ _______ _______ _____ _____    ______ ____
ROOT
ATOM      1  C   UNL     1       2.495   9.065  18.123  0.00  0.00    +0.000 C 
ENDROOT
BRANCH   1   2
ATOM      2  N   UNL     1       2.384   7.804  17.373  0.00  0.00    +0.000 NA
ATOM      3  H   UNL     1       3.107   7.821  16.650  0.00  0.00    +0.000 HD
BRANCH   2   4
ATOM      4  C   UNL     1       2.549   6.586  18.207  0.00  0.00    +0.000 C 
BRANCH   4   5
ATOM      5  C   UNL     1       3.960   5.975  18.080  0.00  0.00    +0.000 A 
ATOM      6  C   UNL     1       4.698   5.633  19.230  0.00  0.00    +0.000 A 
ATOM      7  C   UNL     1       5.994   5.114  19.135  0.00  0.00    +0.000 A 
ATOM      8  C   UNL     1       6.597   4.947  17.887  0.00  0.00    +0.000 A 
ATOM      9 CL   UNL     1       8.215   4.345  17.841  0.00  0.00    +0.000 Cl
ATOM     10  C   UNL     1       5.887   5.278  16.733  0.00  0.00    +0.000 A 
ATOM     11 CL   UNL     1       6.561   5.115  15.149  0.00  0.00    +0.000 Cl
ATOM     12  C   UNL     1       4.581   5.777  16.835  0.00  0.00    +0.000 A 
ENDBRANCH   4   5
BRANCH   4  13
ATOM     13  C   UNL     1       1.421   5.513  18.015  0.00  0.00    +0.000 C 
BRANCH  13  14
ATOM     14  C   UNL     1       1.465   4.328  18.956  0.00  0.00    +0.000 A 
ATOM     15  C   UNL     1       1.301   4.518  20.336  0.00  0.00    +0.000 A 
ATOM     16  C   UNL     1       1.437   3.451  21.222  0.00  0.00    +0.000 A 
ATOM     17  C   UNL     1       1.720   2.174  20.742  0.00  0.00    +0.000 A 
ATOM     18  C   UNL     1       1.822   1.956  19.371  0.00  0.00    +0.000 A 
ATOM     19  C   UNL     1       1.682   3.024  18.484  0.00  0.00    +0.000 A 
ENDBRANCH  13  14
ENDBRANCH   4  13
ENDBRANCH   2   4
ENDBRANCH   1   2
BRANCH   1  20
ATOM     20  C   UNL     1       1.123   9.735  18.405  0.00  0.00    +0.000 C 
BRANCH  20  23
ATOM     21  C   UNL     1      -0.371  10.663  21.818  0.00  0.00    +0.000 A 
ATOM     22  C   UNL     1      -0.066  10.696  20.457  0.00  0.00    +0.000 A 
ATOM     23  C   UNL     1       0.796   9.737  19.895  0.00  0.00    +0.000 A 
ATOM     24  C   UNL     1       1.360   8.764  20.743  0.00  0.00    +0.000 A 
ATOM     25  C   UNL     1       1.014   8.701  22.100  0.00  0.00    +0.000 A 
ATOM     26  C   UNL     1       0.135   9.641  22.626  0.00  0.00    +0.000 A 
BRANCH  21  27
ATOM     27  N   UNL     1      -1.230  11.663  22.390  0.00  0.00    +0.000 N 
ATOM     28  H   UNL     1      -2.165  11.599  21.975  0.00  0.00    +0.000 HD
BRANCH  27  30
ATOM     29  C   UNL     1      -1.373  13.994  23.675  0.00  0.00    +0.000 C 
ATOM     30  S   UNL     1      -0.740  13.278  22.173  0.00  0.00    +0.000 S 
ATOM     31  O   UNL     1      -1.525  13.800  21.085  0.00  0.00    +0.000 OA
ATOM     32  O   UNL     1       0.701  13.384  22.214  0.00  0.00    +0.000 OA
ENDBRANCH  27  30
ENDBRANCH  21  27
BRANCH  26  33
ATOM     33  O   UNL     1      -0.229   9.612  23.945  0.00  0.00    +0.000 OA
ATOM     34  H   UNL     1       0.455  10.062  24.471  0.00  0.00    +0.000 HD
ENDBRANCH  26  33
ENDBRANCH  20  23
BRANCH  20  35
ATOM     35  O   UNL     1       1.131  11.071  17.892  0.00  0.00    +0.000 OA
ATOM     36  H   UNL     1       0.217  11.391  17.851  0.00  0.00    +0.000 HD
ENDBRANCH  20  35
ENDBRANCH   1  20
TORSDOF 11
ENDMDL
MODEL 7
REMARK VINA RESULT:      -8.3      2.683      3.425
REMARK  Name = 
REMARK  12 active torsions:
REMARK  status: ('A' for Active; 'I' for Inactive)
REMARK    1  A    between atoms: C_1  and  S_2
REMARK    2  A    between atoms: S_2  and  N_5
REMARK    3  A    between atoms: N_5  and  C_6
REMARK    4  A    between atoms: C_8  and  C_9
REMARK    5  A    between atoms: C_9  and  O_10
REMARK    6  A    between atoms: C_9  and  C_11
REMARK    7  A    between atoms: C_11  and  N_12
REMARK    8  A    between atoms: N_12  and  C_13
REMARK    9  A    between atoms: C_13  and  C_14
REMARK   10  A    between atoms: C_13  and  C_21
REMARK   11  A    between atoms: C_14  and  C_15
REMARK   12  A    between atoms: C_31  and  O_32
REMARK                            x       y       z     vdW  Elec       q    Type
REMARK                         _______ _______ _______ _____ _____    ______ ____
ROOT
ATOM      1  C   UNL     1       2.346   9.309  18.090  0.00  0.00    +0.000 C 
ENDROOT
BRANCH   1   2
ATOM      2  N   UNL     1       1.772   8.052  17.586  0.00  0.00    +0.000 NA
ATOM      3  H   UNL     1       1.454   8.230  16.630  0.00  0.00    +0.000 HD
BRANCH   2   4
ATOM      4  C   UNL     1       2.720   6.909  17.585  0.00  0.00    +0.000 C 
BRANCH   4   5
ATOM      5  C   UNL     1       2.322   5.816  18.599  0.00  0.00    +0.000 A 
ATOM      6  C   UNL     1       2.489   6.027  19.982  0.00  0.00    +0.000 A 
ATOM      7  C   UNL     1       2.170   5.032  20.913  0.00  0.00    +0.000 A 
ATOM      8  C   UNL     1       1.697   3.790  20.485  0.00  0.00    +0.000 A 
ATOM      9 CL   UNL     1       1.365   2.592  21.682  0.00  0.00    +0.000 Cl
ATOM     10  C   UNL     1       1.523   3.557  19.121  0.00  0.00    +0.000 A 
ATOM     11 CL   UNL     1       0.955   2.045  18.503  0.00  0.00    +0.000 Cl
ATOM     12  C   UNL     1       1.825   4.565  18.195  0.00  0.00    +0.000 A 
ENDBRANCH   4   5
BRANCH   4  13
ATOM     13  C   UNL     1       4.228   7.320  17.722  0.00  0.00    +0.000 C 
BRANCH  13  14
ATOM     14  C   UNL     1       5.232   6.372  17.104  0.00  0.00    +0.000 A 
ATOM     15  C   UNL     1       5.164   6.066  15.736  0.00  0.00    +0.000 A 
ATOM     16  C   UNL     1       6.020   5.120  15.175  0.00  0.00    +0.000 A 
ATOM     17  C   UNL     1       6.971   4.480  15.966  0.00  0.00    +0.000 A 
ATOM     18  C   UNL     1       7.096   4.819  17.310  0.00  0.00    +0.000 A 
ATOM     19  C   UNL     1       6.241   5.768  17.871  0.00  0.00    +0.000 A 
ENDBRANCH  13  14
ENDBRANCH   4  13
ENDBRANCH   2   4
ENDBRANCH   1   2
BRANCH   1  20
ATOM     20  C   UNL     1       1.279  10.398  18.385  0.00  0.00    +0.000 C 
BRANCH  20  23
ATOM     21  C   UNL     1      -0.179  11.352  21.807  0.00  0.00    +0.000 A 
ATOM     22  C   UNL     1       0.297  11.454  20.499  0.00  0.00    +0.000 A 
ATOM     23  C   UNL     1       0.779  10.318  19.824  0.00  0.00    +0.000 A 
ATOM     24  C   UNL     1       0.790   9.087  20.508  0.00  0.00    +0.000 A 
ATOM     25  C   UNL     1       0.265   8.975  21.803  0.00  0.00    +0.000 A 
ATOM     26  C   UNL     1      -0.234  10.106  22.439  0.00  0.00    +0.000 A 
BRANCH  21  27
ATOM     27  N   UNL     1      -0.642  12.522  22.500  0.00  0.00    +0.000 N 
ATOM     28  H   UNL     1      -0.329  12.497  23.476  0.00  0.00    +0.000 HD
BRANCH  27  30
ATOM     29  C   UNL     1      -2.742  12.408  20.862  0.00  0.00    +0.000 C 
ATOM     30  S   UNL     1      -2.329  12.732  22.563  0.00  0.00    +0.000 S 
ATOM     31  O   UNL     1      -2.558  14.134  22.802  0.00  0.00    +0.000 OA
ATOM     32  O   UNL     1      -2.943  11.697  23.365  0.00  0.00    +0.000 OA
ENDBRANCH  27  30
ENDBRANCH  21  27
BRANCH  26  33
ATOM     33  O   UNL     1      -0.757  10.038  23.701  0.00  0.00    +0.000 OA
ATOM     34  H   UNL     1      -1.483  10.682  23.776  0.00  0.00    +0.000 HD
ENDBRANCH  26  33
ENDBRANCH  20  23
BRANCH  20  35
ATOM     35  O   UNL     1       1.832  11.691  18.118  0.00  0.00    +0.000 OA
ATOM     36  H   UNL     1       1.233  12.164  17.520  0.00  0.00    +0.000 HD
ENDBRANCH  20  35
ENDBRANCH   1  20
TORSDOF 11
ENDMDL
MODEL 8
REMARK VINA RESULT:      -8.2      2.758      3.607
REMARK  Name = 
REMARK  12 active torsions:
REMARK  status: ('A' for Active; 'I' for Inactive)
REMARK    1  A    between atoms: C_1  and  S_2
REMARK    2  A    between atoms: S_2  and  N_5
REMARK    3  A    between atoms: N_5  and  C_6
REMARK    4  A    between atoms: C_8  and  C_9
REMARK    5  A    between atoms: C_9  and  O_10
REMARK    6  A    between atoms: C_9  and  C_11
REMARK    7  A    between atoms: C_11  and  N_12
REMARK    8  A    between atoms: N_12  and  C_13
REMARK    9  A    between atoms: C_13  and  C_14
REMARK   10  A    between atoms: C_13  and  C_21
REMARK   11  A    between atoms: C_14  and  C_15
REMARK   12  A    between atoms: C_31  and  O_32
REMARK                            x       y       z     vdW  Elec       q    Type
REMARK                         _______ _______ _______ _____ _____    ______ ____
ROOT
ATOM      1  C   UNL     1       2.376   9.158  18.347  0.00  0.00    +0.000 C 
ENDROOT
BRANCH   1   2
ATOM      2  N   UNL     1       1.908   7.996  17.574  0.00  0.00    +0.000 NA
ATOM      3  H   UNL     1       1.802   8.303  16.605  0.00  0.00    +0.000 HD
BRANCH   2   4
ATOM      4  C   UNL     1       2.824   6.827  17.623  0.00  0.00    +0.000 C 
BRANCH   4   5
ATOM      5  C   UNL     1       2.367   5.767  18.648  0.00  0.00    +0.000 A 
ATOM      6  C   UNL     1       2.541   5.985  20.029  0.00  0.00    +0.000 A 
ATOM      7  C   UNL     1       2.169   5.019  20.970  0.00  0.00    +0.000 A 
ATOM      8  C   UNL     1       1.635   3.797  20.554  0.00  0.00    +0.000 A 
ATOM      9 CL   UNL     1       1.239   2.631  21.763  0.00  0.00    +0.000 Cl
ATOM     10  C   UNL     1       1.454   3.557  19.192  0.00  0.00    +0.000 A 
ATOM     11 CL   UNL     1       0.813   2.069  18.589  0.00  0.00    +0.000 Cl
ATOM     12  C   UNL     1       1.809   4.539  18.256  0.00  0.00    +0.000 A 
ENDBRANCH   4   5
BRANCH   4  13
ATOM     13  C   UNL     1       4.338   7.199  17.793  0.00  0.00    +0.000 C 
BRANCH  13  14
ATOM     14  C   UNL     1       5.327   6.294  17.090  0.00  0.00    +0.000 A 
ATOM     15  C   UNL     1       5.232   6.090  15.705  0.00  0.00    +0.000 A 
ATOM     16  C   UNL     1       6.074   5.184  15.060  0.00  0.00    +0.000 A 
ATOM     17  C   UNL     1       7.034   4.483  15.786  0.00  0.00    +0.000 A 
ATOM     18  C   UNL     1       7.184   4.722  17.148  0.00  0.00    +0.000 A 
ATOM     19  C   UNL     1       6.344   5.631  17.793  0.00  0.00    +0.000 A 
ENDBRANCH  13  14
ENDBRANCH   4  13
ENDBRANCH   2   4
ENDBRANCH   1   2
BRANCH   1  20
ATOM     20  C   UNL     1       1.356  10.329  18.373  0.00  0.00    +0.000 C 
BRANCH  20  23
ATOM     21  C   UNL     1      -0.672  11.719  21.322  0.00  0.00    +0.000 A 
ATOM     22  C   UNL     1      -0.090  11.598  20.059  0.00  0.00    +0.000 A 
ATOM     23  C   UNL     1       0.732  10.498  19.753  0.00  0.00    +0.000 A 
ATOM     24  C   UNL     1       0.971   9.542  20.759  0.00  0.00    +0.000 A 
ATOM     25  C   UNL     1       0.347   9.637  22.010  0.00  0.00    +0.000 A 
ATOM     26  C   UNL     1      -0.487  10.717  22.278  0.00  0.00    +0.000 A 
BRANCH  21  27
ATOM     27  N   UNL     1      -1.487  12.860  21.635  0.00  0.00    +0.000 N 
ATOM     28  H   UNL     1      -1.989  13.171  20.797  0.00  0.00    +0.000 HD
BRANCH  27  30
ATOM     29  C   UNL     1      -1.406  14.385  23.819  0.00  0.00    +0.000 C 
ATOM     30  S   UNL     1      -0.660  14.231  22.210  0.00  0.00    +0.000 S 
ATOM     31  O   UNL     1      -1.114  15.345  21.418  0.00  0.00    +0.000 OA
ATOM     32  O   UNL     1       0.742  13.937  22.406  0.00  0.00    +0.000 OA
ENDBRANCH  27  30
ENDBRANCH  21  27
BRANCH  26  33
ATOM     33  O   UNL     1      -1.116  10.845  23.487  0.00  0.00    +0.000 OA
ATOM     34  H   UNL     1      -0.444  10.955  24.182  0.00  0.00    +0.000 HD
ENDBRANCH  26  33
ENDBRANCH  20  23
BRANCH  20  35
ATOM     35  O   UNL     1       2.008  11.536  17.966  0.00  0.00    +0.000 OA
ATOM     36  H   UNL     1       1.523  11.909  17.214  0.00  0.00    +0.000 HD
ENDBRANCH  20  35
ENDBRANCH   1  20
TORSDOF 11
ENDMDL
MODEL 9
REMARK VINA RESULT:      -8.2      2.684      3.615
REMARK  Name = 
REMARK  12 active torsions:
REMARK  status: ('A' for Active; 'I' for Inactive)
REMARK    1  A    between atoms: C_1  and  S_2
REMARK    2  A    between atoms: S_2  and  N_5
REMARK    3  A    between atoms: N_5  and  C_6
REMARK    4  A    between atoms: C_8  and  C_9
REMARK    5  A    between atoms: C_9  and  O_10
REMARK    6  A    between atoms: C_9  and  C_11
REMARK    7  A    between atoms: C_11  and  N_12
REMARK    8  A    between atoms: N_12  and  C_13
REMARK    9  A    between atoms: C_13  and  C_14
REMARK   10  A    between atoms: C_13  and  C_21
REMARK   11  A    between atoms: C_14  and  C_15
REMARK   12  A    between atoms: C_31  and  O_32
REMARK                            x       y       z     vdW  Elec       q    Type
REMARK                         _______ _______ _______ _____ _____    ______ ____
ROOT
ATOM      1  C   UNL     1       1.561   8.172  17.722  0.00  0.00    +0.000 C 
ENDROOT
BRANCH   1   2
ATOM      2  N   UNL     1       2.999   7.986  17.978  0.00  0.00    +0.000 NA
ATOM      3  H   UNL     1       3.169   8.273  18.945  0.00  0.00    +0.000 HD
BRANCH   2   4
ATOM      4  C   UNL     1       3.474   6.593  17.785  0.00  0.00    +0.000 C 
BRANCH   4   5
ATOM      5  C   UNL     1       2.814   5.606  18.771  0.00  0.00    +0.000 A 
ATOM      6  C   UNL     1       2.992   5.756  20.160  0.00  0.00    +0.000 A 
ATOM      7  C   UNL     1       2.433   4.848  21.067  0.00  0.00    +0.000 A 
ATOM      8  C   UNL     1       1.701   3.752  20.607  0.00  0.00    +0.000 A 
ATOM      9 CL   UNL     1       1.077   2.645  21.776  0.00  0.00    +0.000 Cl
ATOM     10  C   UNL     1       1.511   3.581  19.236  0.00  0.00    +0.000 A 
ATOM     11 CL   UNL     1       0.630   2.246  18.580  0.00  0.00    +0.000 Cl
ATOM     12  C   UNL     1       2.056   4.506  18.335  0.00  0.00    +0.000 A 
ENDBRANCH   4   5
BRANCH   4  13
ATOM     13  C   UNL     1       5.035   6.440  17.753  0.00  0.00    +0.000 C 
BRANCH  13  14
ATOM     14  C   UNL     1       5.595   5.585  16.637  0.00  0.00    +0.000 A 
ATOM     15  C   UNL     1       6.950   5.683  16.287  0.00  0.00    +0.000 A 
ATOM     16  C   UNL     1       7.457   4.974  15.199  0.00  0.00    +0.000 A 
ATOM     17  C   UNL     1       6.623   4.142  14.456  0.00  0.00    +0.000 A 
ATOM     18  C   UNL     1       5.292   3.984  14.829  0.00  0.00    +0.000 A 
ATOM     19  C   UNL     1       4.785   4.690  15.920  0.00  0.00    +0.000 A 
ENDBRANCH  13  14
ENDBRANCH   4  13
ENDBRANCH   2   4
ENDBRANCH   1   2
BRANCH   1  20
ATOM     20  C   UNL     1       1.071   9.621  17.989  0.00  0.00    +0.000 C 
BRANCH  20  23
ATOM     21  C   UNL     1      -0.610  10.947  21.176  0.00  0.00    +0.000 A 
ATOM     22  C   UNL     1      -0.251  10.799  19.836  0.00  0.00    +0.000 A 
ATOM     23  C   UNL     1       0.684   9.821  19.450  0.00  0.00    +0.000 A 
ATOM     24  C   UNL     1       1.263   9.017  20.451  0.00  0.00    +0.000 A 
ATOM     25  C   UNL     1       0.865   9.133  21.790  0.00  0.00    +0.000 A 
ATOM     26  C   UNL     1      -0.083  10.085  22.142  0.00  0.00    +0.000 A 
BRANCH  21  27
ATOM     27  N   UNL     1      -1.543  11.968  21.565  0.00  0.00    +0.000 N 
ATOM     28  H   UNL     1      -2.128  12.230  20.764  0.00  0.00    +0.000 HD
BRANCH  27  30
ATOM     29  C   UNL     1      -2.269  14.501  21.963  0.00  0.00    +0.000 C 
ATOM     30  S   UNL     1      -0.865  13.420  22.134  0.00  0.00    +0.000 S 
ATOM     31  O   UNL     1       0.111  13.826  21.157  0.00  0.00    +0.000 OA
ATOM     32  O   UNL     1      -0.560  13.323  23.544  0.00  0.00    +0.000 OA
ENDBRANCH  27  30
ENDBRANCH  21  27
BRANCH  26  33
ATOM     33  O   UNL     1      -0.499  10.228  23.438  0.00  0.00    +0.000 OA
ATOM     34  H   UNL     1      -1.128  10.969  23.487  0.00  0.00    +0.000 HD
ENDBRANCH  26  33
ENDBRANCH  20  23
BRANCH  20  35
ATOM     35  O   UNL     1       2.095  10.547  17.610  0.00  0.00    +0.000 OA
ATOM     36  H   UNL     1       1.749  11.447  17.713  0.00  0.00    +0.000 HD
ENDBRANCH  20  35
ENDBRANCH   1  20
TORSDOF 11
ENDMDL
