MODEL 1
REMARK VINA RESULT:      -7.5      0.000      0.000
REMARK  Name = 
REMARK  5 active torsions:
REMARK  status: ('A' for Active; 'I' for Inactive)
REMARK    1  A    between atoms: C_1  and  C_2
REMARK    2  A    between atoms: C_2  and  C_3
REMARK    3  A    between atoms: C_2  and  O_4
REMARK    4  A    between atoms: O_4  and  C_5
REMARK    5  A    between atoms: C_15  and  C_17
REMARK                            x       y       z     vdW  Elec       q    Type
REMARK                         _______ _______ _______ _____ _____    ______ ____
ROOT
ATOM      1  C   UNL     1       2.036   6.463  18.970  0.00  0.00    +0.000 C 
ATOM      2  O   UNL     1       1.857   6.712  17.784  0.00  0.00    +0.000 OA
ATOM      3  N   UNL     1       1.925   5.195  19.516  0.00  0.00    +0.000 N 
ATOM      4  C   UNL     1       2.265   4.930  20.916  0.00  0.00    +0.000 C 
ATOM      5  C   UNL     1       2.515   3.440  21.172  0.00  0.00    +0.000 C 
ATOM      6  C   UNL     1       1.282   2.611  20.757  0.00  0.00    +0.000 C 
ATOM      7  C   UNL     1       0.604   3.139  19.488  0.00  0.00    +0.000 C 
ATOM      8  C   UNL     1       1.553   4.032  18.682  0.00  0.00    +0.000 C 
ATOM      9  C   UNL     1       2.771   3.179  18.232  0.00  0.00    +0.000 C 
ATOM     10  N   UNL     1       3.951   3.392  19.073  0.00  0.00    +0.000 N 
ATOM     11  C   UNL     1       5.164   3.951  18.637  0.00  0.00    +0.000 C 
ATOM     12  O   UNL     1       6.147   4.012  19.382  0.00  0.00    +0.000 OA
ATOM     13  C   UNL     1       3.821   2.981  20.475  0.00  0.00    +0.000 C 
ENDROOT
BRANCH  11  14
ATOM     14  C   UNL     1       5.337   4.470  17.234  0.00  0.00    +0.000 A 
ATOM     15  C   UNL     1       5.106   5.819  16.981  0.00  0.00    +0.000 A 
ATOM     16  C   UNL     1       5.301   6.301  15.686  0.00  0.00    +0.000 A 
ATOM     17  C   UNL     1       5.715   5.428  14.688  0.00  0.00    +0.000 A 
ATOM     18  C   UNL     1       5.893   4.097  15.017  0.00  0.00    +0.000 A 
ATOM     19  N   UNL     1       5.701   3.604  16.258  0.00  0.00    +0.000 NA
ENDBRANCH  11  14
BRANCH   1  20
ATOM     20  O   UNL     1       2.321   7.405  19.914  0.00  0.00    +0.000 OA
BRANCH  20  22
ATOM     21  C   UNL     1       1.378   8.670  21.778  0.00  0.00    +0.000 C 
ATOM     22  C   UNL     1       1.243   8.274  20.310  0.00  0.00    +0.000 C 
ATOM     23  C   UNL     1       1.313   9.526  19.436  0.00  0.00    +0.000 C 
ENDBRANCH  20  22
ENDBRANCH   1  20
TORSDOF 3
ENDMDL
MODEL 2
REMARK VINA RESULT:      -6.9      0.822      1.249
REMARK  Name = 
REMARK  5 active torsions:
REMARK  status: ('A' for Active; 'I' for Inactive)
REMARK    1  A    between atoms: C_1  and  C_2
REMARK    2  A    between atoms: C_2  and  C_3
REMARK    3  A    between atoms: C_2  and  O_4
REMARK    4  A    between atoms: O_4  and  C_5
REMARK    5  A    between atoms: C_15  and  C_17
REMARK                            x       y       z     vdW  Elec       q    Type
REMARK                         _______ _______ _______ _____ _____    ______ ____
ROOT
ATOM      1  C   UNL     1       1.971   6.507  19.407  0.00  0.00    +0.000 C 
ATOM      2  O   UNL     1       1.782   6.905  18.264  0.00  0.00    +0.000 OA
ATOM      3  N   UNL     1       1.873   5.179  19.786  0.00  0.00    +0.000 N 
ATOM      4  C   UNL     1       2.224   4.739  21.139  0.00  0.00    +0.000 C 
ATOM      5  C   UNL     1       2.488   3.230  21.199  0.00  0.00    +0.000 C 
ATOM      6  C   UNL     1       1.258   2.451  20.688  0.00  0.00    +0.000 C 
ATOM      7  C   UNL     1       0.568   3.132  19.501  0.00  0.00    +0.000 C 
ATOM      8  C   UNL     1       1.505   4.129  18.812  0.00  0.00    +0.000 C 
ATOM      9  C   UNL     1       2.726   3.352  18.249  0.00  0.00    +0.000 C 
ATOM     10  N   UNL     1       3.910   3.465  19.104  0.00  0.00    +0.000 N 
ATOM     11  C   UNL     1       5.116   4.086  18.736  0.00  0.00    +0.000 C 
ATOM     12  O   UNL     1       6.103   4.058  19.477  0.00  0.00    +0.000 OA
ATOM     13  C   UNL     1       3.793   2.876  20.441  0.00  0.00    +0.000 C 
ENDROOT
BRANCH  11  14
ATOM     14  C   UNL     1       5.276   4.783  17.411  0.00  0.00    +0.000 A 
ATOM     15  C   UNL     1       5.755   4.059  16.323  0.00  0.00    +0.000 A 
ATOM     16  C   UNL     1       5.870   4.701  15.089  0.00  0.00    +0.000 A 
ATOM     17  C   UNL     1       5.507   6.038  14.979  0.00  0.00    +0.000 A 
ATOM     18  C   UNL     1       5.069   6.692  16.116  0.00  0.00    +0.000 A 
ATOM     19  N   UNL     1       4.959   6.097  17.322  0.00  0.00    +0.000 NA
ENDBRANCH  11  14
BRANCH   1  20
ATOM     20  O   UNL     1       2.254   7.322  20.464  0.00  0.00    +0.000 OA
BRANCH  20  22
ATOM     21  C   UNL     1      -0.062   7.744  21.110  0.00  0.00    +0.000 C 
ATOM     22  C   UNL     1       1.294   8.352  20.766  0.00  0.00    +0.000 C 
ATOM     23  C   UNL     1       1.820   9.137  21.967  0.00  0.00    +0.000 C 
ENDBRANCH  20  22
ENDBRANCH   1  20
TORSDOF 3
ENDMDL
MODEL 3
REMARK VINA RESULT:      -6.5      1.840      4.881
REMARK  Name = 
REMARK  5 active torsions:
REMARK  status: ('A' for Active; 'I' for Inactive)
REMARK    1  A    between atoms: C_1  and  C_2
REMARK    2  A    between atoms: C_2  and  C_3
REMARK    3  A    between atoms: C_2  and  O_4
REMARK    4  A    between atoms: O_4  and  C_5
REMARK    5  A    between atoms: C_15  and  C_17
REMARK                            x       y       z     vdW  Elec       q    Type
REMARK                         _______ _______ _______ _____ _____    ______ ____
ROOT
ATOM      1  C   UNL     1       3.334   7.276  18.463  0.00  0.00    +0.000 C 
ATOM      2  O   UNL     1       3.173   7.230  19.676  0.00  0.00    +0.000 OA
ATOM      3  N   UNL     1       4.404   6.693  17.805  0.00  0.00    +0.000 N 
ATOM      4  C   UNL     1       4.488   6.675  16.342  0.00  0.00    +0.000 C 
ATOM      5  C   UNL     1       5.468   5.609  15.838  0.00  0.00    +0.000 C 
ATOM      6  C   UNL     1       6.866   5.836  16.450  0.00  0.00    +0.000 C 
ATOM      7  C   UNL     1       6.815   6.301  17.910  0.00  0.00    +0.000 C 
ATOM      8  C   UNL     1       5.460   5.973  18.548  0.00  0.00    +0.000 C 
ATOM      9  C   UNL     1       5.275   4.431  18.550  0.00  0.00    +0.000 C 
ATOM     10  N   UNL     1       4.408   3.966  17.465  0.00  0.00    +0.000 N 
ATOM     11  C   UNL     1       3.162   3.340  17.638  0.00  0.00    +0.000 C 
ATOM     12  O   UNL     1       2.531   2.890  16.676  0.00  0.00    +0.000 OA
ATOM     13  C   UNL     1       4.909   4.188  16.105  0.00  0.00    +0.000 C 
ENDROOT
BRANCH  11  14
ATOM     14  C   UNL     1       2.551   3.156  19.002  0.00  0.00    +0.000 A 
ATOM     15  C   UNL     1       1.283   3.674  19.248  0.00  0.00    +0.000 A 
ATOM     16  C   UNL     1       0.708   3.471  20.503  0.00  0.00    +0.000 A 
ATOM     17  C   UNL     1       1.412   2.764  21.470  0.00  0.00    +0.000 A 
ATOM     18  C   UNL     1       2.679   2.309  21.154  0.00  0.00    +0.000 A 
ATOM     19  N   UNL     1       3.261   2.501  19.952  0.00  0.00    +0.000 NA
ENDBRANCH  11  14
BRANCH   1  20
ATOM     20  O   UNL     1       2.510   7.947  17.608  0.00  0.00    +0.000 OA
BRANCH  20  22
ATOM     21  C   UNL     1       2.371  10.364  17.927  0.00  0.00    +0.000 C 
ATOM     22  C   UNL     1       1.714   9.008  18.169  0.00  0.00    +0.000 C 
ATOM     23  C   UNL     1       0.348   8.973  17.486  0.00  0.00    +0.000 C 
ENDBRANCH  20  22
ENDBRANCH   1  20
TORSDOF 3
ENDMDL
MODEL 4
REMARK VINA RESULT:      -6.4      1.699      2.138
REMARK  Name = 
REMARK  5 active torsions:
REMARK  status: ('A' for Active; 'I' for Inactive)
REMARK    1  A    between atoms: C_1  and  C_2
REMARK    2  A    between atoms: C_2  and  C_3
REMARK    3  A    between atoms: C_2  and  O_4
REMARK    4  A    between atoms: O_4  and  C_5
REMARK    5  A    between atoms: C_15  and  C_17
REMARK                            x       y       z     vdW  Elec       q    Type
REMARK                         _______ _______ _______ _____ _____    ______ ____
ROOT
ATOM      1  C   UNL     1       2.182   6.944  19.514  0.00  0.00    +0.000 C 
ATOM      2  O   UNL     1       2.557   7.765  18.686  0.00  0.00    +0.000 OA
ATOM      3  N   UNL     1       1.957   5.608  19.227  0.00  0.00    +0.000 N 
ATOM      4  C   UNL     1       1.624   4.643  20.278  0.00  0.00    +0.000 C 
ATOM      5  C   UNL     1       1.874   3.199  19.829  0.00  0.00    +0.000 C 
ATOM      6  C   UNL     1       1.072   2.890  18.547  0.00  0.00    +0.000 C 
ATOM      7  C   UNL     1       1.020   4.072  17.572  0.00  0.00    +0.000 C 
ATOM      8  C   UNL     1       2.140   5.077  17.859  0.00  0.00    +0.000 C 
ATOM      9  C   UNL     1       3.506   4.367  17.649  0.00  0.00    +0.000 C 
ATOM     10  N   UNL     1       4.124   3.949  18.909  0.00  0.00    +0.000 N 
ATOM     11  C   UNL     1       5.336   4.445  19.419  0.00  0.00    +0.000 C 
ATOM     12  O   UNL     1       5.842   3.974  20.442  0.00  0.00    +0.000 OA
ATOM     13  C   UNL     1       3.394   2.934  19.675  0.00  0.00    +0.000 C 
ENDROOT
BRANCH  11  14
ATOM     14  C   UNL     1       6.094   5.546  18.727  0.00  0.00    +0.000 A 
ATOM     15  C   UNL     1       7.387   5.844  19.150  0.00  0.00    +0.000 A 
ATOM     16  C   UNL     1       8.097   6.842  18.482  0.00  0.00    +0.000 A 
ATOM     17  C   UNL     1       7.500   7.512  17.421  0.00  0.00    +0.000 A 
ATOM     18  C   UNL     1       6.202   7.176  17.084  0.00  0.00    +0.000 A 
ATOM     19  N   UNL     1       5.490   6.222  17.720  0.00  0.00    +0.000 NA
ENDBRANCH  11  14
BRANCH   1  20
ATOM     20  O   UNL     1       1.892   7.245  20.813  0.00  0.00    +0.000 OA
BRANCH  20  22
ATOM     21  C   UNL     1      -0.363   8.061  21.272  0.00  0.00    +0.000 C 
ATOM     22  C   UNL     1       1.101   8.426  21.045  0.00  0.00    +0.000 C 
ATOM     23  C   UNL     1       1.654   9.116  22.291  0.00  0.00    +0.000 C 
ENDBRANCH  20  22
ENDBRANCH   1  20
TORSDOF 3
ENDMDL
MODEL 5
REMARK VINA RESULT:      -6.2      2.684      6.076
REMARK  Name = 
REMARK  5 active torsions:
REMARK  status: ('A' for Active; 'I' for Inactive)
REMARK    1  A    between atoms: C_1  and  C_2
REMARK    2  A    between atoms: C_2  and  C_3
REMARK    3  A    between atoms: C_2  and  O_4
REMARK    4  A    between atoms: O_4  and  C_5
REMARK    5  A    between atoms: C_15  and  C_17
REMARK                            x       y       z     vdW  Elec       q    Type
REMARK                         _______ _______ _______ _____ _____    ______ ____
ROOT
ATOM      1  C   UNL     1       5.387   4.438  15.629  0.00  0.00    +0.000 C 
ATOM      2  O   UNL     1       4.230   4.671  15.302  0.00  0.00    +0.000 OA
ATOM      3  N   UNL     1       6.088   5.182  16.563  0.00  0.00    +0.000 N 
ATOM      4  C   UNL     1       7.428   4.791  17.007  0.00  0.00    +0.000 C 
ATOM      5  C   UNL     1       7.808   5.457  18.335  0.00  0.00    +0.000 C 
ATOM      6  C   UNL     1       7.715   6.992  18.209  0.00  0.00    +0.000 C 
ATOM      7  C   UNL     1       6.532   7.454  17.351  0.00  0.00    +0.000 C 
ATOM      8  C   UNL     1       5.474   6.352  17.228  0.00  0.00    +0.000 C 
ATOM      9  C   UNL     1       4.920   6.039  18.644  0.00  0.00    +0.000 C 
ATOM     10  N   UNL     1       5.510   4.831  19.226  0.00  0.00    +0.000 N 
ATOM     11  C   UNL     1       4.805   3.655  19.535  0.00  0.00    +0.000 C 
ATOM     12  O   UNL     1       5.354   2.711  20.112  0.00  0.00    +0.000 OA
ATOM     13  C   UNL     1       6.951   4.887  19.493  0.00  0.00    +0.000 C 
ENDROOT
BRANCH  11  14
ATOM     14  C   UNL     1       3.343   3.500  19.211  0.00  0.00    +0.000 A 
ATOM     15  C   UNL     1       2.400   3.797  20.191  0.00  0.00    +0.000 A 
ATOM     16  C   UNL     1       1.046   3.683  19.875  0.00  0.00    +0.000 A 
ATOM     17  C   UNL     1       0.675   3.278  18.599  0.00  0.00    +0.000 A 
ATOM     18  C   UNL     1       1.674   2.973  17.693  0.00  0.00    +0.000 A 
ATOM     19  N   UNL     1       2.990   3.064  17.978  0.00  0.00    +0.000 NA
ENDBRANCH  11  14
BRANCH   1  20
ATOM     20  O   UNL     1       6.150   3.447  15.086  0.00  0.00    +0.000 OA
BRANCH  20  22
ATOM     21  C   UNL     1       5.273   3.518  12.808  0.00  0.00    +0.000 C 
ATOM     22  C   UNL     1       6.510   3.590  13.699  0.00  0.00    +0.000 C 
ATOM     23  C   UNL     1       7.179   4.954  13.533  0.00  0.00    +0.000 C 
ENDBRANCH  20  22
ENDBRANCH   1  20
TORSDOF 3
ENDMDL
MODEL 6
REMARK VINA RESULT:      -5.6      9.378     10.938
REMARK  Name = 
REMARK  5 active torsions:
REMARK  status: ('A' for Active; 'I' for Inactive)
REMARK    1  A    between atoms: C_1  and  C_2
REMARK    2  A    between atoms: C_2  and  C_3
REMARK    3  A    between atoms: C_2  and  O_4
REMARK    4  A    between atoms: O_4  and  C_5
REMARK    5  A    between atoms: C_15  and  C_17
REMARK                            x       y       z     vdW  Elec       q    Type
REMARK                         _______ _______ _______ _____ _____    ______ ____
ROOT
ATOM      1  C   UNL     1       7.806  14.123  21.670  0.00  0.00    +0.000 C 
ATOM      2  O   UNL     1       8.980  14.073  22.014  0.00  0.00    +0.000 OA
ATOM      3  N   UNL     1       7.315  15.016  20.732  0.00  0.00    +0.000 N 
ATOM      4  C   UNL     1       5.926  14.957  20.270  0.00  0.00    +0.000 C 
ATOM      5  C   UNL     1       5.734  15.698  18.941  0.00  0.00    +0.000 C 
ATOM      6  C   UNL     1       6.189  17.166  19.076  0.00  0.00    +0.000 C 
ATOM      7  C   UNL     1       7.437  17.329  19.951  0.00  0.00    +0.000 C 
ATOM      8  C   UNL     1       8.200  16.007  20.081  0.00  0.00    +0.000 C 
ATOM      9  C   UNL     1       8.681  15.573  18.670  0.00  0.00    +0.000 C 
ATOM     10  N   UNL     1       7.828  14.543  18.074  0.00  0.00    +0.000 N 
ATOM     11  C   UNL     1       8.235  13.233  17.769  0.00  0.00    +0.000 C 
ATOM     12  O   UNL     1       7.484  12.449  17.179  0.00  0.00    +0.000 OA
ATOM     13  C   UNL     1       6.445  14.942  17.790  0.00  0.00    +0.000 C 
ENDROOT
BRANCH  11  14
ATOM     14  C   UNL     1       9.613  12.732  18.110  0.00  0.00    +0.000 A 
ATOM     15  C   UNL     1       9.791  11.985  19.270  0.00  0.00    +0.000 A 
ATOM     16  C   UNL     1      11.064  11.495  19.564  0.00  0.00    +0.000 A 
ATOM     17  C   UNL     1      12.116  11.766  18.698  0.00  0.00    +0.000 A 
ATOM     18  C   UNL     1      11.861  12.542  17.582  0.00  0.00    +0.000 A 
ATOM     19  N   UNL     1      10.641  13.036  17.281  0.00  0.00    +0.000 NA
ENDBRANCH  11  14
BRANCH   1  20
ATOM     20  O   UNL     1       6.820  13.343  22.199  0.00  0.00    +0.000 OA
BRANCH  20  22
ATOM     21  C   UNL     1       5.594  13.985  24.211  0.00  0.00    +0.000 C 
ATOM     22  C   UNL     1       6.785  13.224  23.634  0.00  0.00    +0.000 C 
ATOM     23  C   UNL     1       6.654  11.740  23.972  0.00  0.00    +0.000 C 
ENDBRANCH  20  22
ENDBRANCH   1  20
TORSDOF 3
ENDMDL
MODEL 7
REMARK VINA RESULT:      -5.6      1.684      4.870
REMARK  Name = 
REMARK  5 active torsions:
REMARK  status: ('A' for Active; 'I' for Inactive)
REMARK    1  A    between atoms: C_1  and  C_2
REMARK    2  A    between atoms: C_2  and  C_3
REMARK    3  A    between atoms: C_2  and  O_4
REMARK    4  A    between atoms: O_4  and  C_5
REMARK    5  A    between atoms: C_15  and  C_17
REMARK                            x       y       z     vdW  Elec       q    Type
REMARK                         _______ _______ _______ _____ _____    ______ ____
ROOT
ATOM      1  C   UNL     1       3.286   7.261  18.361  0.00  0.00    +0.000 C 
ATOM      2  O   UNL     1       3.089   7.247  19.569  0.00  0.00    +0.000 OA
ATOM      3  N   UNL     1       4.383   6.674  17.752  0.00  0.00    +0.000 N 
ATOM      4  C   UNL     1       4.512   6.615  16.295  0.00  0.00    +0.000 C 
ATOM      5  C   UNL     1       5.521   5.548  15.852  0.00  0.00    +0.000 C 
ATOM      6  C   UNL     1       6.897   5.813  16.499  0.00  0.00    +0.000 C 
ATOM      7  C   UNL     1       6.795   6.319  17.942  0.00  0.00    +0.000 C 
ATOM      8  C   UNL     1       5.426   5.991  18.548  0.00  0.00    +0.000 C 
ATOM      9  C   UNL     1       5.261   4.447  18.590  0.00  0.00    +0.000 C 
ATOM     10  N   UNL     1       4.434   3.939  17.493  0.00  0.00    +0.000 N 
ATOM     11  C   UNL     1       3.191   3.300  17.647  0.00  0.00    +0.000 C 
ATOM     12  O   UNL     1       2.597   2.813  16.681  0.00  0.00    +0.000 OA
ATOM     13  C   UNL     1       4.973   4.128  16.143  0.00  0.00    +0.000 C 
ENDROOT
BRANCH  11  14
ATOM     14  C   UNL     1       2.542   3.147  18.997  0.00  0.00    +0.000 A 
ATOM     15  C   UNL     1       3.251   2.522  20.019  0.00  0.00    +0.000 A 
ATOM     16  C   UNL     1       2.657   2.413  21.276  0.00  0.00    +0.000 A 
ATOM     17  C   UNL     1       1.380   2.924  21.476  0.00  0.00    +0.000 A 
ATOM     18  C   UNL     1       0.733   3.503  20.399  0.00  0.00    +0.000 A 
ATOM     19  N   UNL     1       1.281   3.611  19.171  0.00  0.00    +0.000 NA
ENDBRANCH  11  14
BRANCH   1  20
ATOM     20  O   UNL     1       2.480   7.894  17.461  0.00  0.00    +0.000 OA
BRANCH  20  22
ATOM     21  C   UNL     1       1.281   8.718  19.422  0.00  0.00    +0.000 C 
ATOM     22  C   UNL     1       1.660   8.966  17.965  0.00  0.00    +0.000 C 
ATOM     23  C   UNL     1       2.472  10.257  17.862  0.00  0.00    +0.000 C 
ENDBRANCH  20  22
ENDBRANCH   1  20
TORSDOF 3
ENDMDL
MODEL 8
REMARK VINA RESULT:      -5.6      5.969      9.370
REMARK  Name = 
REMARK  5 active torsions:
REMARK  status: ('A' for Active; 'I' for Inactive)
REMARK    1  A    between atoms: C_1  and  C_2
REMARK    2  A    between atoms: C_2  and  C_3
REMARK    3  A    between atoms: C_2  and  O_4
REMARK    4  A    between atoms: O_4  and  C_5
REMARK    5  A    between atoms: C_15  and  C_17
REMARK                            x       y       z     vdW  Elec       q    Type
REMARK                         _______ _______ _______ _____ _____    ______ ____
ROOT
ATOM      1  C   UNL     1       1.094  10.931  19.908  0.00  0.00    +0.000 C 
ATOM      2  O   UNL     1       1.229  10.395  18.815  0.00  0.00    +0.000 OA
ATOM      3  N   UNL     1       0.913  12.293  20.081  0.00  0.00    +0.000 N 
ATOM      4  C   UNL     1       0.638  12.869  21.400  0.00  0.00    +0.000 C 
ATOM      5  C   UNL     1       0.027  14.272  21.295  0.00  0.00    +0.000 C 
ATOM      6  C   UNL     1       0.957  15.203  20.490  0.00  0.00    +0.000 C 
ATOM      7  C   UNL     1       1.638  14.497  19.311  0.00  0.00    +0.000 C 
ATOM      8  C   UNL     1       0.892  13.216  18.926  0.00  0.00    +0.000 C 
ATOM      9  C   UNL     1      -0.542  13.599  18.467  0.00  0.00    +0.000 C 
ATOM     10  N   UNL     1      -1.546  13.376  19.509  0.00  0.00    +0.000 N 
ATOM     11  C   UNL     1      -2.602  12.452  19.429  0.00  0.00    +0.000 C 
ATOM     12  O   UNL     1      -3.466  12.388  20.310  0.00  0.00    +0.000 OA
ATOM     13  C   UNL     1      -1.409  14.196  20.717  0.00  0.00    +0.000 C 
ENDROOT
BRANCH  11  14
ATOM     14  C   UNL     1      -2.754  11.521  18.255  0.00  0.00    +0.000 A 
ATOM     15  C   UNL     1      -3.853  11.671  17.414  0.00  0.00    +0.000 A 
ATOM     16  C   UNL     1      -3.970  10.827  16.309  0.00  0.00    +0.000 A 
ATOM     17  C   UNL     1      -2.995   9.864  16.078  0.00  0.00    +0.000 A 
ATOM     18  C   UNL     1      -1.951   9.763  16.979  0.00  0.00    +0.000 A 
ATOM     19  N   UNL     1      -1.820  10.559  18.061  0.00  0.00    +0.000 NA
ENDBRANCH  11  14
BRANCH   1  20
ATOM     20  O   UNL     1       1.151  10.266  21.098  0.00  0.00    +0.000 OA
BRANCH  20  22
ATOM     21  C   UNL     1       1.194   7.826  21.181  0.00  0.00    +0.000 C 
ATOM     22  C   UNL     1       0.334   9.086  21.223  0.00  0.00    +0.000 C 
ATOM     23  C   UNL     1      -0.390   9.165  22.566  0.00  0.00    +0.000 C 
ENDBRANCH  20  22
ENDBRANCH   1  20
TORSDOF 3
ENDMDL
MODEL 9
REMARK VINA RESULT:      -5.5      1.226      1.583
REMARK  Name = 
REMARK  5 active torsions:
REMARK  status: ('A' for Active; 'I' for Inactive)
REMARK    1  A    between atoms: C_1  and  C_2
REMARK    2  A    between atoms: C_2  and  C_3
REMARK    3  A    between atoms: C_2  and  O_4
REMARK    4  A    between atoms: O_4  and  C_5
REMARK    5  A    between atoms: C_15  and  C_17
REMARK                            x       y       z     vdW  Elec       q    Type
REMARK                         _______ _______ _______ _____ _____    ______ ____
ROOT
ATOM      1  C   UNL     1       2.283   6.635  19.148  0.00  0.00    +0.000 C 
ATOM      2  O   UNL     1       2.673   7.279  18.181  0.00  0.00    +0.000 OA
ATOM      3  N   UNL     1       1.874   5.314  19.079  0.00  0.00    +0.000 N 
ATOM      4  C   UNL     1       1.530   4.553  20.282  0.00  0.00    +0.000 C 
ATOM      5  C   UNL     1       1.562   3.041  20.032  0.00  0.00    +0.000 C 
ATOM      6  C   UNL     1       0.610   2.669  18.876  0.00  0.00    +0.000 C 
ATOM      7  C   UNL     1       0.606   3.705  17.745  0.00  0.00    +0.000 C 
ATOM      8  C   UNL     1       1.861   4.583  17.793  0.00  0.00    +0.000 C 
ATOM      9  C   UNL     1       3.105   3.677  17.584  0.00  0.00    +0.000 C 
ATOM     10  N   UNL     1       3.787   3.356  18.840  0.00  0.00    +0.000 N 
ATOM     11  C   UNL     1       5.093   3.753  19.175  0.00  0.00    +0.000 C 
ATOM     12  O   UNL     1       5.634   3.362  20.215  0.00  0.00    +0.000 OA
ATOM     13  C   UNL     1       3.017   2.559  19.801  0.00  0.00    +0.000 C 
ENDROOT
BRANCH  11  14
ATOM     14  C   UNL     1       5.907   4.640  18.272  0.00  0.00    +0.000 A 
ATOM     15  C   UNL     1       6.434   5.822  18.785  0.00  0.00    +0.000 A 
ATOM     16  C   UNL     1       7.216   6.623  17.953  0.00  0.00    +0.000 A 
ATOM     17  C   UNL     1       7.446   6.226  16.641  0.00  0.00    +0.000 A 
ATOM     18  C   UNL     1       6.861   5.052  16.202  0.00  0.00    +0.000 A 
ATOM     19  N   UNL     1       6.092   4.265  16.984  0.00  0.00    +0.000 NA
ENDBRANCH  11  14
BRANCH   1  20
ATOM     20  O   UNL     1       2.157   7.146  20.406  0.00  0.00    +0.000 OA
BRANCH  20  22
ATOM     21  C   UNL     1       0.700   8.891  19.517  0.00  0.00    +0.000 C 
ATOM     22  C   UNL     1       1.802   8.538  20.511  0.00  0.00    +0.000 C 
ATOM     23  C   UNL     1       1.304   8.782  21.934  0.00  0.00    +0.000 C 
ENDBRANCH  20  22
ENDBRANCH   1  20
TORSDOF 3
ENDMDL
