MODEL 1
REMARK VINA RESULT:      -7.3      0.000      0.000
REMARK  Name = 
REMARK  9 active torsions:
REMARK  status: ('A' for Active; 'I' for Inactive)
REMARK    1  A    between atoms: C_1  and  N_2
REMARK    2  A    between atoms: N_2  and  C_3
REMARK    3  A    between atoms: C_3  and  C_4
REMARK    4  A    between atoms: C_7  and  C_8
REMARK    5  A    between atoms: C_15  and  C_17
REMARK    6  A    between atoms: C_17  and  C_18
REMARK    7  A    between atoms: C_18  and  N_19
REMARK    8  A    between atoms: N_19  and  S_20
REMARK    9  A    between atoms: S_20  and  C_21
REMARK                            x       y       z     vdW  Elec       q    Type
REMARK                         _______ _______ _______ _____ _____    ______ ____
ROOT
ATOM      1  C   UNL     1       0.990   4.046  20.355  0.00  0.00    +0.000 C 
ATOM      2  N   UNL     1       2.012   4.526  19.438  0.00  0.00    +0.000 N 
ATOM      3  C   UNL     1       2.127   3.867  18.227  0.00  0.00    +0.000 C 
ATOM      4  O   UNL     1       1.369   2.937  17.925  0.00  0.00    +0.000 OA
ENDROOT
BRANCH   2   5
ATOM      5  C   UNL     1       2.902   5.587  19.913  0.00  0.00    +0.000 C 
BRANCH   5   6
ATOM      6  C   UNL     1       2.328   6.962  19.707  0.00  0.00    +0.000 A 
ATOM      7  C   UNL     1       2.390   7.681  18.528  0.00  0.00    +0.000 A 
ATOM      8  S   UNL     1       1.548   9.162  18.687  0.00  0.00    +0.000 S 
ATOM      9  C   UNL     1       1.147   8.761  20.315  0.00  0.00    +0.000 A 
ATOM     10  N   UNL     1       1.643   7.612  20.728  0.00  0.00    +0.000 NA
BRANCH   9  11
ATOM     11  C   UNL     1       0.363   9.674  21.163  0.00  0.00    +0.000 A 
ATOM     12  C   UNL     1      -0.092   9.320  22.443  0.00  0.00    +0.000 A 
ATOM     13  C   UNL     1      -0.853  10.212  23.205  0.00  0.00    +0.000 A 
ATOM     14  C   UNL     1      -1.165  11.472  22.701  0.00  0.00    +0.000 A 
ATOM     15  C   UNL     1      -0.700  11.850  21.443  0.00  0.00    +0.000 A 
ATOM     16  C   UNL     1       0.064  10.961  20.685  0.00  0.00    +0.000 A 
ENDBRANCH   9  11
ENDBRANCH   5   6
ENDBRANCH   2   5
BRANCH   3  17
ATOM     17  C   UNL     1       3.186   4.345  17.246  0.00  0.00    +0.000 C 
BRANCH  17  18
ATOM     18  C   UNL     1       4.378   3.389  17.181  0.00  0.00    +0.000 C 
BRANCH  18  19
ATOM     19  N   UNL     1       5.608   3.949  17.810  0.00  0.00    +0.000 NA
ATOM     20  H   UNL     1       6.045   3.206  18.378  0.00  0.00    +0.000 HD
BRANCH  19  21
ATOM     21  S   UNL     1       6.723   4.695  16.789  0.00  0.00    +0.000 S 
ATOM     22  C   UNL     1       6.276   3.991  15.220  0.00  0.00    +0.000 C 
ATOM     23  O   UNL     1       6.401   6.108  16.747  0.00  0.00    +0.000 OA
ATOM     24  O   UNL     1       8.042   4.237  17.162  0.00  0.00    +0.000 OA
ENDBRANCH  19  21
ENDBRANCH  18  19
ENDBRANCH  17  18
ENDBRANCH   3  17
TORSDOF 7
ENDMDL
MODEL 2
REMARK VINA RESULT:      -7.1      0.879      1.554
REMARK  Name = 
REMARK  9 active torsions:
REMARK  status: ('A' for Active; 'I' for Inactive)
REMARK    1  A    between atoms: C_1  and  N_2
REMARK    2  A    between atoms: N_2  and  C_3
REMARK    3  A    between atoms: C_3  and  C_4
REMARK    4  A    between atoms: C_7  and  C_8
REMARK    5  A    between atoms: C_15  and  C_17
REMARK    6  A    between atoms: C_17  and  C_18
REMARK    7  A    between atoms: C_18  and  N_19
REMARK    8  A    between atoms: N_19  and  S_20
REMARK    9  A    between atoms: S_20  and  C_21
REMARK                            x       y       z     vdW  Elec       q    Type
REMARK                         _______ _______ _______ _____ _____    ______ ____
ROOT
ATOM      1  C   UNL     1       1.234   4.139  20.220  0.00  0.00    +0.000 C 
ATOM      2  N   UNL     1       2.220   4.701  19.309  0.00  0.00    +0.000 N 
ATOM      3  C   UNL     1       2.397   4.054  18.100  0.00  0.00    +0.000 C 
ATOM      4  O   UNL     1       1.719   3.066  17.793  0.00  0.00    +0.000 OA
ENDROOT
BRANCH   2   5
ATOM      5  C   UNL     1       3.018   5.830  19.790  0.00  0.00    +0.000 C 
BRANCH   5   6
ATOM      6  C   UNL     1       2.335   7.154  19.582  0.00  0.00    +0.000 A 
ATOM      7  C   UNL     1       2.286   7.844  18.385  0.00  0.00    +0.000 A 
ATOM      8  S   UNL     1       1.346   9.264  18.552  0.00  0.00    +0.000 S 
ATOM      9  C   UNL     1       1.056   8.879  20.208  0.00  0.00    +0.000 A 
ATOM     10  N   UNL     1       1.656   7.780  20.621  0.00  0.00    +0.000 NA
BRANCH   9  11
ATOM     11  C   UNL     1       0.250   9.756  21.073  0.00  0.00    +0.000 A 
ATOM     12  C   UNL     1      -0.292  10.971  20.628  0.00  0.00    +0.000 A 
ATOM     13  C   UNL     1      -1.034  11.784  21.491  0.00  0.00    +0.000 A 
ATOM     14  C   UNL     1      -1.249  11.390  22.809  0.00  0.00    +0.000 A 
ATOM     15  C   UNL     1      -0.740  10.175  23.261  0.00  0.00    +0.000 A 
ATOM     16  C   UNL     1      -0.004   9.361  22.397  0.00  0.00    +0.000 A 
ENDBRANCH   9  11
ENDBRANCH   5   6
ENDBRANCH   2   5
BRANCH   3  17
ATOM     17  C   UNL     1       3.420   4.616  17.125  0.00  0.00    +0.000 C 
BRANCH  17  18
ATOM     18  C   UNL     1       4.778   3.927  17.263  0.00  0.00    +0.000 C 
BRANCH  18  19
ATOM     19  N   UNL     1       5.831   4.537  16.402  0.00  0.00    +0.000 NA
ATOM     20  H   UNL     1       5.379   5.227  15.782  0.00  0.00    +0.000 HD
BRANCH  19  21
ATOM     21  S   UNL     1       7.183   5.180  17.177  0.00  0.00    +0.000 S 
ATOM     22  C   UNL     1       6.532   5.489  18.801  0.00  0.00    +0.000 C 
ATOM     23  O   UNL     1       8.168   4.123  17.289  0.00  0.00    +0.000 OA
ATOM     24  O   UNL     1       7.502   6.438  16.542  0.00  0.00    +0.000 OA
ENDBRANCH  19  21
ENDBRANCH  18  19
ENDBRANCH  17  18
ENDBRANCH   3  17
TORSDOF 7
ENDMDL
MODEL 3
REMARK VINA RESULT:      -7.0      1.006      1.243
REMARK  Name = 
REMARK  9 active torsions:
REMARK  status: ('A' for Active; 'I' for Inactive)
REMARK    1  A    between atoms: C_1  and  N_2
REMARK    2  A    between atoms: N_2  and  C_3
REMARK    3  A    between atoms: C_3  and  C_4
REMARK    4  A    between atoms: C_7  and  C_8
REMARK    5  A    between atoms: C_15  and  C_17
REMARK    6  A    between atoms: C_17  and  C_18
REMARK    7  A    between atoms: C_18  and  N_19
REMARK    8  A    between atoms: N_19  and  S_20
REMARK    9  A    between atoms: S_20  and  C_21
REMARK                            x       y       z     vdW  Elec       q    Type
REMARK                         _______ _______ _______ _____ _____    ______ ____
ROOT
ATOM      1  C   UNL     1       1.041   4.077  19.925  0.00  0.00    +0.000 C 
ATOM      2  N   UNL     1       2.157   4.600  19.152  0.00  0.00    +0.000 N 
ATOM      3  C   UNL     1       2.419   3.990  17.938  0.00  0.00    +0.000 C 
ATOM      4  O   UNL     1       1.712   3.068  17.515  0.00  0.00    +0.000 OA
ENDROOT
BRANCH   2   5
ATOM      5  C   UNL     1       2.974   5.648  19.766  0.00  0.00    +0.000 C 
BRANCH   5   6
ATOM      6  C   UNL     1       2.383   7.020  19.597  0.00  0.00    +0.000 A 
ATOM      7  C   UNL     1       2.450   7.777  18.442  0.00  0.00    +0.000 A 
ATOM      8  S   UNL     1       1.584   9.240  18.636  0.00  0.00    +0.000 S 
ATOM      9  C   UNL     1       1.168   8.783  20.245  0.00  0.00    +0.000 A 
ATOM     10  N   UNL     1       1.676   7.628  20.628  0.00  0.00    +0.000 NA
BRANCH   9  11
ATOM     11  C   UNL     1       0.360   9.657  21.111  0.00  0.00    +0.000 A 
ATOM     12  C   UNL     1      -0.025   9.294  22.410  0.00  0.00    +0.000 A 
ATOM     13  C   UNL     1      -0.812  10.147  23.190  0.00  0.00    +0.000 A 
ATOM     14  C   UNL     1      -1.220  11.379  22.683  0.00  0.00    +0.000 A 
ATOM     15  C   UNL     1      -0.826  11.767  21.405  0.00  0.00    +0.000 A 
ATOM     16  C   UNL     1      -0.036  10.917  20.629  0.00  0.00    +0.000 A 
ENDBRANCH   9  11
ENDBRANCH   5   6
ENDBRANCH   2   5
BRANCH   3  17
ATOM     17  C   UNL     1       3.579   4.514  17.105  0.00  0.00    +0.000 C 
BRANCH  17  18
ATOM     18  C   UNL     1       4.902   3.850  17.488  0.00  0.00    +0.000 C 
BRANCH  18  19
ATOM     19  N   UNL     1       5.836   4.774  18.192  0.00  0.00    +0.000 NA
ATOM     20  H   UNL     1       6.108   4.336  19.085  0.00  0.00    +0.000 HD
BRANCH  19  21
ATOM     21  S   UNL     1       7.175   5.322  17.327  0.00  0.00    +0.000 S 
ATOM     22  C   UNL     1       7.863   6.497  18.468  0.00  0.00    +0.000 C 
ATOM     23  O   UNL     1       8.106   4.217  17.214  0.00  0.00    +0.000 OA
ATOM     24  O   UNL     1       6.692   6.018  16.156  0.00  0.00    +0.000 OA
ENDBRANCH  19  21
ENDBRANCH  18  19
ENDBRANCH  17  18
ENDBRANCH   3  17
TORSDOF 7
ENDMDL
MODEL 4
REMARK VINA RESULT:      -7.0      4.172      5.720
REMARK  Name = 
REMARK  9 active torsions:
REMARK  status: ('A' for Active; 'I' for Inactive)
REMARK    1  A    between atoms: C_1  and  N_2
REMARK    2  A    between atoms: N_2  and  C_3
REMARK    3  A    between atoms: C_3  and  C_4
REMARK    4  A    between atoms: C_7  and  C_8
REMARK    5  A    between atoms: C_15  and  C_17
REMARK    6  A    between atoms: C_17  and  C_18
REMARK    7  A    between atoms: C_18  and  N_19
REMARK    8  A    between atoms: N_19  and  S_20
REMARK    9  A    between atoms: S_20  and  C_21
REMARK                            x       y       z     vdW  Elec       q    Type
REMARK                         _______ _______ _______ _____ _____    ______ ____
ROOT
ATOM      1  C   UNL     1       7.625   6.881  17.765  0.00  0.00    +0.000 C 
ATOM      2  N   UNL     1       6.718   6.069  16.968  0.00  0.00    +0.000 N 
ATOM      3  C   UNL     1       7.108   4.769  16.704  0.00  0.00    +0.000 C 
ATOM      4  O   UNL     1       8.162   4.308  17.158  0.00  0.00    +0.000 OA
ENDROOT
BRANCH   2   5
ATOM      5  C   UNL     1       5.527   6.723  16.421  0.00  0.00    +0.000 C 
BRANCH   5   6
ATOM      6  C   UNL     1       4.360   6.693  17.370  0.00  0.00    +0.000 A 
ATOM      7  C   UNL     1       3.528   7.763  17.641  0.00  0.00    +0.000 A 
ATOM      8  S   UNL     1       2.279   7.292  18.710  0.00  0.00    +0.000 S 
ATOM      9  C   UNL     1       2.915   5.690  18.751  0.00  0.00    +0.000 A 
ATOM     10  N   UNL     1       4.014   5.526  18.042  0.00  0.00    +0.000 NA
BRANCH   9  11
ATOM     11  C   UNL     1       2.292   4.634  19.565  0.00  0.00    +0.000 A 
ATOM     12  C   UNL     1       1.341   3.740  19.049  0.00  0.00    +0.000 A 
ATOM     13  C   UNL     1       0.757   2.765  19.864  0.00  0.00    +0.000 A 
ATOM     14  C   UNL     1       1.121   2.666  21.205  0.00  0.00    +0.000 A 
ATOM     15  C   UNL     1       2.082   3.529  21.728  0.00  0.00    +0.000 A 
ATOM     16  C   UNL     1       2.668   4.499  20.912  0.00  0.00    +0.000 A 
ENDBRANCH   9  11
ENDBRANCH   5   6
ENDBRANCH   2   5
BRANCH   3  17
ATOM     17  C   UNL     1       6.181   3.894  15.874  0.00  0.00    +0.000 C 
BRANCH  17  18
ATOM     18  C   UNL     1       6.482   4.001  14.379  0.00  0.00    +0.000 C 
BRANCH  18  19
ATOM     19  N   UNL     1       5.675   3.058  13.553  0.00  0.00    +0.000 NA
ATOM     20  H   UNL     1       4.679   3.206  13.778  0.00  0.00    +0.000 HD
BRANCH  19  21
ATOM     21  S   UNL     1       5.950   3.064  11.889  0.00  0.00    +0.000 S 
ATOM     22  C   UNL     1       4.357   3.564  11.280  0.00  0.00    +0.000 C 
ATOM     23  O   UNL     1       6.888   4.131  11.604  0.00  0.00    +0.000 OA
ATOM     24  O   UNL     1       6.214   1.703  11.479  0.00  0.00    +0.000 OA
ENDBRANCH  19  21
ENDBRANCH  18  19
ENDBRANCH  17  18
ENDBRANCH   3  17
TORSDOF 7
ENDMDL
MODEL 5
REMARK VINA RESULT:      -7.0      0.733      1.241
REMARK  Name = 
REMARK  9 active torsions:
REMARK  status: ('A' for Active; 'I' for Inactive)
REMARK    1  A    between atoms: C_1  and  N_2
REMARK    2  A    between atoms: N_2  and  C_3
REMARK    3  A    between atoms: C_3  and  C_4
REMARK    4  A    between atoms: C_7  and  C_8
REMARK    5  A    between atoms: C_15  and  C_17
REMARK    6  A    between atoms: C_17  and  C_18
REMARK    7  A    between atoms: C_18  and  N_19
REMARK    8  A    between atoms: N_19  and  S_20
REMARK    9  A    between atoms: S_20  and  C_21
REMARK                            x       y       z     vdW  Elec       q    Type
REMARK                         _______ _______ _______ _____ _____    ______ ____
ROOT
ATOM      1  C   UNL     1       1.070   4.307  20.390  0.00  0.00    +0.000 C 
ATOM      2  N   UNL     1       2.068   4.548  19.359  0.00  0.00    +0.000 N 
ATOM      3  C   UNL     1       2.083   3.677  18.285  0.00  0.00    +0.000 C 
ATOM      4  O   UNL     1       1.259   2.759  18.188  0.00  0.00    +0.000 OA
ENDROOT
BRANCH   2   5
ATOM      5  C   UNL     1       3.039   5.618  19.595  0.00  0.00    +0.000 C 
BRANCH   5   6
ATOM      6  C   UNL     1       2.446   6.990  19.423  0.00  0.00    +0.000 A 
ATOM      7  C   UNL     1       2.446   7.713  18.245  0.00  0.00    +0.000 A 
ATOM      8  S   UNL     1       1.602   9.187  18.451  0.00  0.00    +0.000 S 
ATOM      9  C   UNL     1       1.284   8.778  20.095  0.00  0.00    +0.000 A 
ATOM     10  N   UNL     1       1.808   7.631  20.478  0.00  0.00    +0.000 NA
BRANCH   9  11
ATOM     11  C   UNL     1       0.537   9.683  20.983  0.00  0.00    +0.000 A 
ATOM     12  C   UNL     1       0.275  11.023  20.657  0.00  0.00    +0.000 A 
ATOM     13  C   UNL     1      -0.420  11.854  21.541  0.00  0.00    +0.000 A 
ATOM     14  C   UNL     1      -0.869  11.355  22.762  0.00  0.00    +0.000 A 
ATOM     15  C   UNL     1      -0.640  10.021  23.092  0.00  0.00    +0.000 A 
ATOM     16  C   UNL     1       0.050   9.190  22.206  0.00  0.00    +0.000 A 
ENDBRANCH   9  11
ENDBRANCH   5   6
ENDBRANCH   2   5
BRANCH   3  17
ATOM     17  C   UNL     1       3.114   3.903  17.189  0.00  0.00    +0.000 C 
BRANCH  17  18
ATOM     18  C   UNL     1       4.438   3.204  17.499  0.00  0.00    +0.000 C 
BRANCH  18  19
ATOM     19  N   UNL     1       5.498   3.489  16.490  0.00  0.00    +0.000 NA
ATOM     20  H   UNL     1       5.053   3.528  15.560  0.00  0.00    +0.000 HD
BRANCH  19  21
ATOM     21  S   UNL     1       6.487   4.826  16.770  0.00  0.00    +0.000 S 
ATOM     22  C   UNL     1       5.692   6.056  15.764  0.00  0.00    +0.000 C 
ATOM     23  O   UNL     1       6.319   5.212  18.157  0.00  0.00    +0.000 OA
ATOM     24  O   UNL     1       7.793   4.532  16.226  0.00  0.00    +0.000 OA
ENDBRANCH  19  21
ENDBRANCH  18  19
ENDBRANCH  17  18
ENDBRANCH   3  17
TORSDOF 7
ENDMDL
MODEL 6
REMARK VINA RESULT:      -6.9      1.218      1.373
REMARK  Name = 
REMARK  9 active torsions:
REMARK  status: ('A' for Active; 'I' for Inactive)
REMARK    1  A    between atoms: C_1  and  N_2
REMARK    2  A    between atoms: N_2  and  C_3
REMARK    3  A    between atoms: C_3  and  C_4
REMARK    4  A    between atoms: C_7  and  C_8
REMARK    5  A    between atoms: C_15  and  C_17
REMARK    6  A    between atoms: C_17  and  C_18
REMARK    7  A    between atoms: C_18  and  N_19
REMARK    8  A    between atoms: N_19  and  S_20
REMARK    9  A    between atoms: S_20  and  C_21
REMARK                            x       y       z     vdW  Elec       q    Type
REMARK                         _______ _______ _______ _____ _____    ______ ____
ROOT
ATOM      1  C   UNL     1       1.064   2.895  18.751  0.00  0.00    +0.000 C 
ATOM      2  N   UNL     1       2.291   3.383  19.361  0.00  0.00    +0.000 N 
ATOM      3  C   UNL     1       3.481   2.908  18.841  0.00  0.00    +0.000 C 
ATOM      4  O   UNL     1       3.500   2.134  17.876  0.00  0.00    +0.000 OA
ENDROOT
BRANCH   2   5
ATOM      5  C   UNL     1       2.166   4.243  20.539  0.00  0.00    +0.000 C 
BRANCH   5   6
ATOM      6  C   UNL     1       2.067   5.702  20.185  0.00  0.00    +0.000 A 
ATOM      7  C   UNL     1       2.579   6.277  19.037  0.00  0.00    +0.000 A 
ATOM      8  S   UNL     1       2.183   7.940  18.976  0.00  0.00    +0.000 S 
ATOM      9  C   UNL     1       1.351   7.800  20.479  0.00  0.00    +0.000 A 
ATOM     10  N   UNL     1       1.399   6.596  21.014  0.00  0.00    +0.000 NA
BRANCH   9  11
ATOM     11  C   UNL     1       0.702   8.959  21.112  0.00  0.00    +0.000 A 
ATOM     12  C   UNL     1       0.052   8.882  22.354  0.00  0.00    +0.000 A 
ATOM     13  C   UNL     1      -0.571  10.004  22.908  0.00  0.00    +0.000 A 
ATOM     14  C   UNL     1      -0.548  11.222  22.231  0.00  0.00    +0.000 A 
ATOM     15  C   UNL     1       0.113  11.323  21.009  0.00  0.00    +0.000 A 
ATOM     16  C   UNL     1       0.740  10.203  20.459  0.00  0.00    +0.000 A 
ENDBRANCH   9  11
ENDBRANCH   5   6
ENDBRANCH   2   5
BRANCH   3  17
ATOM     17  C   UNL     1       4.783   3.399  19.456  0.00  0.00    +0.000 C 
BRANCH  17  18
ATOM     18  C   UNL     1       5.473   4.441  18.575  0.00  0.00    +0.000 C 
BRANCH  18  19
ATOM     19  N   UNL     1       5.443   4.092  17.126  0.00  0.00    +0.000 NA
ATOM     20  H   UNL     1       4.498   4.297  16.766  0.00  0.00    +0.000 HD
BRANCH  19  21
ATOM     21  S   UNL     1       6.646   4.756  16.149  0.00  0.00    +0.000 S 
ATOM     22  C   UNL     1       6.339   3.919  14.612  0.00  0.00    +0.000 C 
ATOM     23  O   UNL     1       6.332   6.158  15.960  0.00  0.00    +0.000 OA
ATOM     24  O   UNL     1       7.925   4.338  16.675  0.00  0.00    +0.000 OA
ENDBRANCH  19  21
ENDBRANCH  18  19
ENDBRANCH  17  18
ENDBRANCH   3  17
TORSDOF 7
ENDMDL
MODEL 7
REMARK VINA RESULT:      -6.8      1.142      1.189
REMARK  Name = 
REMARK  9 active torsions:
REMARK  status: ('A' for Active; 'I' for Inactive)
REMARK    1  A    between atoms: C_1  and  N_2
REMARK    2  A    between atoms: N_2  and  C_3
REMARK    3  A    between atoms: C_3  and  C_4
REMARK    4  A    between atoms: C_7  and  C_8
REMARK    5  A    between atoms: C_15  and  C_17
REMARK    6  A    between atoms: C_17  and  C_18
REMARK    7  A    between atoms: C_18  and  N_19
REMARK    8  A    between atoms: N_19  and  S_20
REMARK    9  A    between atoms: S_20  and  C_21
REMARK                            x       y       z     vdW  Elec       q    Type
REMARK                         _______ _______ _______ _____ _____    ______ ____
ROOT
ATOM      1  C   UNL     1       1.897   5.107  20.666  0.00  0.00    +0.000 C 
ATOM      2  N   UNL     1       2.504   5.148  19.344  0.00  0.00    +0.000 N 
ATOM      3  C   UNL     1       2.411   4.003  18.575  0.00  0.00    +0.000 C 
ATOM      4  O   UNL     1       1.805   3.002  18.979  0.00  0.00    +0.000 OA
ENDROOT
BRANCH   2   5
ATOM      5  C   UNL     1       3.254   6.352  18.982  0.00  0.00    +0.000 C 
BRANCH   5   6
ATOM      6  C   UNL     1       2.404   7.593  18.998  0.00  0.00    +0.000 A 
ATOM      7  C   UNL     1       2.106   8.367  17.891  0.00  0.00    +0.000 A 
ATOM      8  S   UNL     1       1.047   9.640  18.321  0.00  0.00    +0.000 S 
ATOM      9  C   UNL     1       1.044   9.089  19.955  0.00  0.00    +0.000 A 
ATOM     10  N   UNL     1       1.816   8.043  20.174  0.00  0.00    +0.000 NA
BRANCH   9  11
ATOM     11  C   UNL     1       0.278   9.785  21.001  0.00  0.00    +0.000 A 
ATOM     12  C   UNL     1       0.073   9.243  22.279  0.00  0.00    +0.000 A 
ATOM     13  C   UNL     1      -0.681   9.929  23.237  0.00  0.00    +0.000 A 
ATOM     14  C   UNL     1      -1.234  11.171  22.932  0.00  0.00    +0.000 A 
ATOM     15  C   UNL     1      -1.019  11.736  21.677  0.00  0.00    +0.000 A 
ATOM     16  C   UNL     1      -0.263  11.052  20.723  0.00  0.00    +0.000 A 
ENDBRANCH   9  11
ENDBRANCH   5   6
ENDBRANCH   2   5
BRANCH   3  17
ATOM     17  C   UNL     1       3.034   4.014  17.187  0.00  0.00    +0.000 C 
BRANCH  17  18
ATOM     18  C   UNL     1       4.462   3.466  17.199  0.00  0.00    +0.000 C 
BRANCH  18  19
ATOM     19  N   UNL     1       5.461   4.432  16.658  0.00  0.00    +0.000 NA
ATOM     20  H   UNL     1       4.954   5.267  16.328  0.00  0.00    +0.000 HD
BRANCH  19  21
ATOM     21  S   UNL     1       6.758   4.838  17.657  0.00  0.00    +0.000 S 
ATOM     22  C   UNL     1       6.732   6.611  17.547  0.00  0.00    +0.000 C 
ATOM     23  O   UNL     1       6.397   4.473  19.013  0.00  0.00    +0.000 OA
ATOM     24  O   UNL     1       7.965   4.337  17.041  0.00  0.00    +0.000 OA
ENDBRANCH  19  21
ENDBRANCH  18  19
ENDBRANCH  17  18
ENDBRANCH   3  17
TORSDOF 7
ENDMDL
MODEL 8
REMARK VINA RESULT:      -6.8      4.152      7.942
REMARK  Name = 
REMARK  9 active torsions:
REMARK  status: ('A' for Active; 'I' for Inactive)
REMARK    1  A    between atoms: C_1  and  N_2
REMARK    2  A    between atoms: N_2  and  C_3
REMARK    3  A    between atoms: C_3  and  C_4
REMARK    4  A    between atoms: C_7  and  C_8
REMARK    5  A    between atoms: C_15  and  C_17
REMARK    6  A    between atoms: C_17  and  C_18
REMARK    7  A    between atoms: C_18  and  N_19
REMARK    8  A    between atoms: N_19  and  S_20
REMARK    9  A    between atoms: S_20  and  C_21
REMARK                            x       y       z     vdW  Elec       q    Type
REMARK                         _______ _______ _______ _____ _____    ______ ____
ROOT
ATOM      1  C   UNL     1       3.121   6.601  18.650  0.00  0.00    +0.000 C 
ATOM      2  N   UNL     1       3.271   5.485  19.571  0.00  0.00    +0.000 N 
ATOM      3  C   UNL     1       2.346   5.387  20.594  0.00  0.00    +0.000 C 
ATOM      4  O   UNL     1       1.411   6.191  20.697  0.00  0.00    +0.000 OA
ENDROOT
BRANCH   2   5
ATOM      5  C   UNL     1       4.446   4.626  19.407  0.00  0.00    +0.000 C 
BRANCH   5   6
ATOM      6  C   UNL     1       5.368   5.106  18.319  0.00  0.00    +0.000 A 
ATOM      7  C   UNL     1       6.375   6.038  18.486  0.00  0.00    +0.000 A 
ATOM      8  S   UNL     1       7.243   6.246  17.026  0.00  0.00    +0.000 S 
ATOM      9  C   UNL     1       6.230   5.083  16.256  0.00  0.00    +0.000 A 
ATOM     10  N   UNL     1       5.278   4.598  17.029  0.00  0.00    +0.000 NA
BRANCH   9  11
ATOM     11  C   UNL     1       6.405   4.727  14.839  0.00  0.00    +0.000 A 
ATOM     12  C   UNL     1       5.554   3.834  14.169  0.00  0.00    +0.000 A 
ATOM     13  C   UNL     1       5.770   3.506  12.827  0.00  0.00    +0.000 A 
ATOM     14  C   UNL     1       6.837   4.073  12.133  0.00  0.00    +0.000 A 
ATOM     15  C   UNL     1       7.677   4.981  12.774  0.00  0.00    +0.000 A 
ATOM     16  C   UNL     1       7.457   5.310  14.113  0.00  0.00    +0.000 A 
ENDBRANCH   9  11
ENDBRANCH   5   6
ENDBRANCH   2   5
BRANCH   3  17
ATOM     17  C   UNL     1       2.475   4.230  21.573  0.00  0.00    +0.000 C 
BRANCH  17  18
ATOM     18  C   UNL     1       1.597   3.043  21.174  0.00  0.00    +0.000 C 
BRANCH  18  19
ATOM     19  N   UNL     1       0.653   3.363  20.065  0.00  0.00    +0.000 NA
ATOM     20  H   UNL     1       0.549   4.389  20.018  0.00  0.00    +0.000 HD
BRANCH  19  21
ATOM     21  S   UNL     1       0.988   2.697  18.553  0.00  0.00    +0.000 S 
ATOM     22  C   UNL     1       2.525   1.866  18.877  0.00  0.00    +0.000 C 
ATOM     23  O   UNL     1      -0.015   1.685  18.288  0.00  0.00    +0.000 OA
ATOM     24  O   UNL     1       1.217   3.785  17.630  0.00  0.00    +0.000 OA
ENDBRANCH  19  21
ENDBRANCH  18  19
ENDBRANCH  17  18
ENDBRANCH   3  17
TORSDOF 7
ENDMDL
MODEL 9
REMARK VINA RESULT:      -6.8      2.459      2.796
REMARK  Name = 
REMARK  9 active torsions:
REMARK  status: ('A' for Active; 'I' for Inactive)
REMARK    1  A    between atoms: C_1  and  N_2
REMARK    2  A    between atoms: N_2  and  C_3
REMARK    3  A    between atoms: C_3  and  C_4
REMARK    4  A    between atoms: C_7  and  C_8
REMARK    5  A    between atoms: C_15  and  C_17
REMARK    6  A    between atoms: C_17  and  C_18
REMARK    7  A    between atoms: C_18  and  N_19
REMARK    8  A    between atoms: N_19  and  S_20
REMARK    9  A    between atoms: S_20  and  C_21
REMARK                            x       y       z     vdW  Elec       q    Type
REMARK                         _______ _______ _______ _____ _____    ______ ____
ROOT
ATOM      1  C   UNL     1       2.315   4.498  17.822  0.00  0.00    +0.000 C 
ATOM      2  N   UNL     1       3.588   5.179  18.007  0.00  0.00    +0.000 N 
ATOM      3  C   UNL     1       4.624   4.437  18.543  0.00  0.00    +0.000 C 
ATOM      4  O   UNL     1       4.484   3.238  18.816  0.00  0.00    +0.000 OA
ENDROOT
BRANCH   2   5
ATOM      5  C   UNL     1       3.636   6.614  17.716  0.00  0.00    +0.000 C 
BRANCH   5   6
ATOM      6  C   UNL     1       2.680   7.410  18.563  0.00  0.00    +0.000 A 
ATOM      7  C   UNL     1       2.366   7.133  19.880  0.00  0.00    +0.000 A 
ATOM      8  S   UNL     1       1.304   8.322  20.503  0.00  0.00    +0.000 S 
ATOM      9  C   UNL     1       1.325   9.138  18.985  0.00  0.00    +0.000 A 
ATOM     10  N   UNL     1       2.047   8.540  18.058  0.00  0.00    +0.000 NA
BRANCH   9  11
ATOM     11  C   UNL     1       0.545  10.365  18.759  0.00  0.00    +0.000 A 
ATOM     12  C   UNL     1      -0.808  10.348  18.384  0.00  0.00    +0.000 A 
ATOM     13  C   UNL     1      -1.505  11.539  18.159  0.00  0.00    +0.000 A 
ATOM     14  C   UNL     1      -0.861  12.765  18.311  0.00  0.00    +0.000 A 
ATOM     15  C   UNL     1       0.474  12.802  18.707  0.00  0.00    +0.000 A 
ATOM     16  C   UNL     1       1.168  11.613  18.937  0.00  0.00    +0.000 A 
ENDBRANCH   9  11
ENDBRANCH   5   6
ENDBRANCH   2   5
BRANCH   3  17
ATOM     17  C   UNL     1       5.967   5.119  18.748  0.00  0.00    +0.000 C 
BRANCH  17  18
ATOM     18  C   UNL     1       6.985   4.709  17.683  0.00  0.00    +0.000 C 
BRANCH  18  19
ATOM     19  N   UNL     1       6.352   4.121  16.468  0.00  0.00    +0.000 NA
ATOM     20  H   UNL     1       5.377   3.876  16.701  0.00  0.00    +0.000 HD
BRANCH  19  21
ATOM     21  S   UNL     1       6.451   5.013  15.041  0.00  0.00    +0.000 S 
ATOM     22  C   UNL     1       5.895   3.817  13.850  0.00  0.00    +0.000 C 
ATOM     23  O   UNL     1       5.456   6.064  15.111  0.00  0.00    +0.000 OA
ATOM     24  O   UNL     1       7.845   5.314  14.802  0.00  0.00    +0.000 OA
ENDBRANCH  19  21
ENDBRANCH  18  19
ENDBRANCH  17  18
ENDBRANCH   3  17
TORSDOF 7
ENDMDL
