MODEL 1
REMARK VINA RESULT:      -8.4      0.000      0.000
REMARK  Name = 
REMARK  3 active torsions:
REMARK  status: ('A' for Active; 'I' for Inactive)
REMARK    1  A    between atoms: C_1  and  C_2
REMARK    2  A    between atoms: C_6  and  C_7
REMARK    3  A    between atoms: N_9  and  C_10
REMARK                            x       y       z     vdW  Elec       q    Type
REMARK                         _______ _______ _______ _____ _____    ______ ____
ROOT
ATOM      1  C   UNL     1       3.065   2.335  19.255  0.00  0.00    +0.000 C 
ATOM      2  C   UNL     1       4.312   3.190  19.262  0.00  0.00    +0.000 C 
ATOM      3  O   UNL     1       5.190   2.903  20.076  0.00  0.00    +0.000 OA
ATOM      4  N   UNL     1       4.352   4.266  18.372  0.00  0.00    +0.000 N 
ATOM      5  C   UNL     1       3.254   4.634  17.467  0.00  0.00    +0.000 C 
ATOM      6  C   UNL     1       2.979   6.132  17.543  0.00  0.00    +0.000 C 
ATOM      7  O   UNL     1       4.126   6.838  17.056  0.00  0.00    +0.000 OA
ATOM      8  C   UNL     1       5.316   6.395  17.592  0.00  0.00    +0.000 A 
ATOM      9  C   UNL     1       6.391   7.275  17.430  0.00  0.00    +0.000 A 
ATOM     10  C   UNL     1       7.647   6.944  17.930  0.00  0.00    +0.000 A 
ATOM     11  C   UNL     1       7.829   5.728  18.580  0.00  0.00    +0.000 A 
ATOM     12  C   UNL     1       6.756   4.843  18.739  0.00  0.00    +0.000 A 
ATOM     13  C   UNL     1       5.479   5.157  18.256  0.00  0.00    +0.000 A 
ENDROOT
BRANCH   6  14
ATOM     14  C   UNL     1       2.504   6.690  18.916  0.00  0.00    +0.000 C 
ATOM     15  O   UNL     1       2.601   6.004  19.933  0.00  0.00    +0.000 OA
ATOM     16  N   UNL     1       2.023   7.993  18.895  0.00  0.00    +0.000 N 
ATOM     17  H   UNL     1       1.862   8.425  18.003  0.00  0.00    +0.000 HD
BRANCH  16  18
ATOM     18  C   UNL     1       1.486   8.711  19.989  0.00  0.00    +0.000 A 
ATOM     19  C   UNL     1       1.457   8.202  21.298  0.00  0.00    +0.000 A 
ATOM     20  C   UNL     1       0.877   8.931  22.344  0.00  0.00    +0.000 A 
ATOM     21  C   UNL     1       0.329  10.156  22.045  0.00  0.00    +0.000 A 
ATOM     22  C   UNL     1       0.370  10.672  20.771  0.00  0.00    +0.000 A 
ATOM     23  C   UNL     1       0.959   9.988  19.730  0.00  0.00    +0.000 A 
ATOM     24  O   UNL     1      -0.244  11.884  20.686  0.00  0.00    +0.000 OA
ATOM     25  C   UNL     1      -0.749  12.027  22.031  0.00  0.00    +0.000 C 
ATOM     26  O   UNL     1      -0.308  10.978  22.918  0.00  0.00    +0.000 OA
ENDBRANCH  16  18
ENDBRANCH   6  14
TORSDOF 2
ENDMDL
MODEL 2
REMARK VINA RESULT:      -8.2      0.960      1.103
REMARK  Name = 
REMARK  3 active torsions:
REMARK  status: ('A' for Active; 'I' for Inactive)
REMARK    1  A    between atoms: C_1  and  C_2
REMARK    2  A    between atoms: C_6  and  C_7
REMARK    3  A    between atoms: N_9  and  C_10
REMARK                            x       y       z     vdW  Elec       q    Type
REMARK                         _______ _______ _______ _____ _____    ______ ____
ROOT
ATOM      1  C   UNL     1       3.409   1.909  19.070  0.00  0.00    +0.000 C 
ATOM      2  C   UNL     1       4.539   2.890  19.287  0.00  0.00    +0.000 C 
ATOM      3  O   UNL     1       5.189   2.783  20.327  0.00  0.00    +0.000 OA
ATOM      4  N   UNL     1       4.731   3.868  18.309  0.00  0.00    +0.000 N 
ATOM      5  C   UNL     1       3.887   4.022  17.115  0.00  0.00    +0.000 C 
ATOM      6  C   UNL     1       3.487   5.482  16.929  0.00  0.00    +0.000 C 
ATOM      7  O   UNL     1       4.664   6.255  16.666  0.00  0.00    +0.000 OA
ATOM      8  C   UNL     1       5.700   5.999  17.538  0.00  0.00    +0.000 A 
ATOM      9  C   UNL     1       6.707   6.968  17.546  0.00  0.00    +0.000 A 
ATOM     10  C   UNL     1       7.807   6.827  18.387  0.00  0.00    +0.000 A 
ATOM     11  C   UNL     1       7.904   5.710  19.210  0.00  0.00    +0.000 A 
ATOM     12  C   UNL     1       6.899   4.735  19.201  0.00  0.00    +0.000 A 
ATOM     13  C   UNL     1       5.776   4.859  18.372  0.00  0.00    +0.000 A 
ENDROOT
BRANCH   6  14
ATOM     14  C   UNL     1       2.622   6.122  18.054  0.00  0.00    +0.000 C 
ATOM     15  O   UNL     1       2.037   5.410  18.869  0.00  0.00    +0.000 OA
ATOM     16  N   UNL     1       2.610   7.510  18.079  0.00  0.00    +0.000 N 
ATOM     17  H   UNL     1       3.010   8.003  17.300  0.00  0.00    +0.000 HD
BRANCH  16  18
ATOM     18  C   UNL     1       1.868   8.331  18.959  0.00  0.00    +0.000 A 
ATOM     19  C   UNL     1       1.748   8.066  20.334  0.00  0.00    +0.000 A 
ATOM     20  C   UNL     1       0.969   8.884  21.162  0.00  0.00    +0.000 A 
ATOM     21  C   UNL     1       0.317   9.947  20.584  0.00  0.00    +0.000 A 
ATOM     22  C   UNL     1       0.445  10.227  19.243  0.00  0.00    +0.000 A 
ATOM     23  C   UNL     1       1.228   9.456  18.412  0.00  0.00    +0.000 A 
ATOM     24  O   UNL     1      -0.294  11.308  18.870  0.00  0.00    +0.000 OA
ATOM     25  C   UNL     1      -0.966  11.618  20.111  0.00  0.00    +0.000 C 
ATOM     26  O   UNL     1      -0.510  10.817  21.220  0.00  0.00    +0.000 OA
ENDBRANCH  16  18
ENDBRANCH   6  14
TORSDOF 2
ENDMDL
MODEL 3
REMARK VINA RESULT:      -8.1      4.546      6.941
REMARK  Name = 
REMARK  3 active torsions:
REMARK  status: ('A' for Active; 'I' for Inactive)
REMARK    1  A    between atoms: C_1  and  C_2
REMARK    2  A    between atoms: C_6  and  C_7
REMARK    3  A    between atoms: N_9  and  C_10
REMARK                            x       y       z     vdW  Elec       q    Type
REMARK                         _______ _______ _______ _____ _____    ______ ____
ROOT
ATOM      1  C   UNL     1       7.464   4.735  14.358  0.00  0.00    +0.000 C 
ATOM      2  C   UNL     1       6.205   4.916  15.174  0.00  0.00    +0.000 C 
ATOM      3  O   UNL     1       5.162   5.147  14.563  0.00  0.00    +0.000 OA
ATOM      4  N   UNL     1       6.331   4.850  16.564  0.00  0.00    +0.000 N 
ATOM      5  C   UNL     1       7.605   4.654  17.271  0.00  0.00    +0.000 C 
ATOM      6  C   UNL     1       7.743   5.660  18.410  0.00  0.00    +0.000 C 
ATOM      7  O   UNL     1       6.723   5.400  19.383  0.00  0.00    +0.000 OA
ATOM      8  C   UNL     1       5.467   5.243  18.838  0.00  0.00    +0.000 A 
ATOM      9  C   UNL     1       4.417   5.354  19.755  0.00  0.00    +0.000 A 
ATOM     10  C   UNL     1       3.099   5.218  19.328  0.00  0.00    +0.000 A 
ATOM     11  C   UNL     1       2.834   4.961  17.987  0.00  0.00    +0.000 A 
ATOM     12  C   UNL     1       3.883   4.845  17.068  0.00  0.00    +0.000 A 
ATOM     13  C   UNL     1       5.218   4.989  17.469  0.00  0.00    +0.000 A 
ENDROOT
BRANCH   6  14
ATOM     14  C   UNL     1       7.788   7.164  18.017  0.00  0.00    +0.000 C 
ATOM     15  O   UNL     1       7.202   7.562  17.011  0.00  0.00    +0.000 OA
ATOM     16  N   UNL     1       8.482   7.988  18.894  0.00  0.00    +0.000 N 
ATOM     17  H   UNL     1       9.033   7.557  19.615  0.00  0.00    +0.000 HD
BRANCH  16  18
ATOM     18  C   UNL     1       8.715   9.375  18.742  0.00  0.00    +0.000 A 
ATOM     19  C   UNL     1       8.142  10.139  17.711  0.00  0.00    +0.000 A 
ATOM     20  C   UNL     1       8.433  11.502  17.574  0.00  0.00    +0.000 A 
ATOM     21  C   UNL     1       9.307  12.064  18.474  0.00  0.00    +0.000 A 
ATOM     22  C   UNL     1       9.857  11.330  19.499  0.00  0.00    +0.000 A 
ATOM     23  C   UNL     1       9.565   9.995  19.673  0.00  0.00    +0.000 A 
ATOM     24  O   UNL     1      10.707  12.070  20.263  0.00  0.00    +0.000 OA
ATOM     25  C   UNL     1      10.692  13.325  19.549  0.00  0.00    +0.000 C 
ATOM     26  O   UNL     1       9.735  13.353  18.470  0.00  0.00    +0.000 OA
ENDBRANCH  16  18
ENDBRANCH   6  14
TORSDOF 2
ENDMDL
MODEL 4
REMARK VINA RESULT:      -8.1      1.085      1.723
REMARK  Name = 
REMARK  3 active torsions:
REMARK  status: ('A' for Active; 'I' for Inactive)
REMARK    1  A    between atoms: C_1  and  C_2
REMARK    2  A    between atoms: C_6  and  C_7
REMARK    3  A    between atoms: N_9  and  C_10
REMARK                            x       y       z     vdW  Elec       q    Type
REMARK                         _______ _______ _______ _____ _____    ______ ____
ROOT
ATOM      1  C   UNL     1       3.527   2.010  18.786  0.00  0.00    +0.000 C 
ATOM      2  C   UNL     1       4.637   2.981  19.118  0.00  0.00    +0.000 C 
ATOM      3  O   UNL     1       5.194   2.853  20.208  0.00  0.00    +0.000 OA
ATOM      4  N   UNL     1       4.916   3.975  18.178  0.00  0.00    +0.000 N 
ATOM      5  C   UNL     1       4.179   4.154  16.918  0.00  0.00    +0.000 C 
ATOM      6  C   UNL     1       3.801   5.619  16.724  0.00  0.00    +0.000 C 
ATOM      7  O   UNL     1       4.999   6.391  16.577  0.00  0.00    +0.000 OA
ATOM      8  C   UNL     1       5.955   6.114  17.532  0.00  0.00    +0.000 A 
ATOM      9  C   UNL     1       6.960   7.079  17.644  0.00  0.00    +0.000 A 
ATOM     10  C   UNL     1       7.983   6.918  18.574  0.00  0.00    +0.000 A 
ATOM     11  C   UNL     1       8.005   5.786  19.382  0.00  0.00    +0.000 A 
ATOM     12  C   UNL     1       7.001   4.817  19.269  0.00  0.00    +0.000 A 
ATOM     13  C   UNL     1       5.954   4.960  18.349  0.00  0.00    +0.000 A 
ENDROOT
BRANCH   6  14
ATOM     14  C   UNL     1       2.844   6.243  17.781  0.00  0.00    +0.000 C 
ATOM     15  O   UNL     1       2.233   5.522  18.568  0.00  0.00    +0.000 OA
ATOM     16  N   UNL     1       2.783   7.630  17.783  0.00  0.00    +0.000 N 
ATOM     17  H   UNL     1       3.215   8.126  17.023  0.00  0.00    +0.000 HD
BRANCH  16  18
ATOM     18  C   UNL     1       1.958   8.436  18.601  0.00  0.00    +0.000 A 
ATOM     19  C   UNL     1       1.239   9.540  18.112  0.00  0.00    +0.000 A 
ATOM     20  C   UNL     1       0.466  10.335  18.966  0.00  0.00    +0.000 A 
ATOM     21  C   UNL     1       0.443  10.008  20.301  0.00  0.00    +0.000 A 
ATOM     22  C   UNL     1       1.127   8.918  20.787  0.00  0.00    +0.000 A 
ATOM     23  C   UNL     1       1.871   8.102  19.964  0.00  0.00    +0.000 A 
ATOM     24  O   UNL     1       0.988   8.782  22.135  0.00  0.00    +0.000 OA
ATOM     25  C   UNL     1       0.211   9.959  22.447  0.00  0.00    +0.000 C 
ATOM     26  O   UNL     1      -0.214  10.687  21.277  0.00  0.00    +0.000 OA
ENDBRANCH  16  18
ENDBRANCH   6  14
TORSDOF 2
ENDMDL
MODEL 5
REMARK VINA RESULT:      -7.8      4.499      6.595
REMARK  Name = 
REMARK  3 active torsions:
REMARK  status: ('A' for Active; 'I' for Inactive)
REMARK    1  A    between atoms: C_1  and  C_2
REMARK    2  A    between atoms: C_6  and  C_7
REMARK    3  A    between atoms: N_9  and  C_10
REMARK                            x       y       z     vdW  Elec       q    Type
REMARK                         _______ _______ _______ _____ _____    ______ ____
ROOT
ATOM      1  C   UNL     1       7.454   4.788  14.322  0.00  0.00    +0.000 C 
ATOM      2  C   UNL     1       6.190   4.949  15.136  0.00  0.00    +0.000 C 
ATOM      3  O   UNL     1       5.151   5.193  14.524  0.00  0.00    +0.000 OA
ATOM      4  N   UNL     1       6.309   4.851  16.524  0.00  0.00    +0.000 N 
ATOM      5  C   UNL     1       7.579   4.639  17.233  0.00  0.00    +0.000 C 
ATOM      6  C   UNL     1       7.710   5.617  18.396  0.00  0.00    +0.000 C 
ATOM      7  O   UNL     1       6.685   5.335  19.357  0.00  0.00    +0.000 OA
ATOM      8  C   UNL     1       5.432   5.190  18.801  0.00  0.00    +0.000 A 
ATOM      9  C   UNL     1       4.377   5.279  19.715  0.00  0.00    +0.000 A 
ATOM     10  C   UNL     1       3.061   5.153  19.278  0.00  0.00    +0.000 A 
ATOM     11  C   UNL     1       2.804   4.926  17.930  0.00  0.00    +0.000 A 
ATOM     12  C   UNL     1       3.859   4.833  17.014  0.00  0.00    +0.000 A 
ATOM     13  C   UNL     1       5.191   4.967  17.426  0.00  0.00    +0.000 A 
ENDROOT
BRANCH   6  14
ATOM     14  C   UNL     1       7.756   7.131  18.039  0.00  0.00    +0.000 C 
ATOM     15  O   UNL     1       7.128   7.561  17.072  0.00  0.00    +0.000 OA
ATOM     16  N   UNL     1       8.503   7.924  18.900  0.00  0.00    +0.000 N 
ATOM     17  H   UNL     1       9.082   7.468  19.583  0.00  0.00    +0.000 HD
BRANCH  16  18
ATOM     18  C   UNL     1       8.747   9.311  18.772  0.00  0.00    +0.000 A 
ATOM     19  C   UNL     1       9.692   9.998  19.553  0.00  0.00    +0.000 A 
ATOM     20  C   UNL     1       9.872  11.380  19.420  0.00  0.00    +0.000 A 
ATOM     21  C   UNL     1       9.086  12.044  18.508  0.00  0.00    +0.000 A 
ATOM     22  C   UNL     1       8.173  11.379  17.725  0.00  0.00    +0.000 A 
ATOM     23  C   UNL     1       7.996  10.015  17.815  0.00  0.00    +0.000 A 
ATOM     24  O   UNL     1       7.487  12.222  16.905  0.00  0.00    +0.000 OA
ATOM     25  C   UNL     1       8.014  13.499  17.327  0.00  0.00    +0.000 C 
ATOM     26  O   UNL     1       9.094  13.382  18.276  0.00  0.00    +0.000 OA
ENDBRANCH  16  18
ENDBRANCH   6  14
TORSDOF 2
ENDMDL
MODEL 6
REMARK VINA RESULT:      -7.7      2.663      4.072
REMARK  Name = 
REMARK  3 active torsions:
REMARK  status: ('A' for Active; 'I' for Inactive)
REMARK    1  A    between atoms: C_1  and  C_2
REMARK    2  A    between atoms: C_6  and  C_7
REMARK    3  A    between atoms: N_9  and  C_10
REMARK                            x       y       z     vdW  Elec       q    Type
REMARK                         _______ _______ _______ _____ _____    ______ ____
ROOT
ATOM      1  C   UNL     1       7.605   6.715  18.911  0.00  0.00    +0.000 C 
ATOM      2  C   UNL     1       7.433   6.427  17.437  0.00  0.00    +0.000 C 
ATOM      3  O   UNL     1       7.759   7.311  16.645  0.00  0.00    +0.000 OA
ATOM      4  N   UNL     1       6.878   5.194  17.090  0.00  0.00    +0.000 N 
ATOM      5  C   UNL     1       6.422   4.188  18.060  0.00  0.00    +0.000 C 
ATOM      6  C   UNL     1       5.035   3.675  17.686  0.00  0.00    +0.000 C 
ATOM      7  O   UNL     1       5.120   2.984  16.433  0.00  0.00    +0.000 OA
ATOM      8  C   UNL     1       5.810   3.681  15.464  0.00  0.00    +0.000 A 
ATOM      9  C   UNL     1       5.603   3.222  14.160  0.00  0.00    +0.000 A 
ATOM     10  C   UNL     1       6.241   3.844  13.090  0.00  0.00    +0.000 A 
ATOM     11  C   UNL     1       7.095   4.916  13.329  0.00  0.00    +0.000 A 
ATOM     12  C   UNL     1       7.306   5.374  14.634  0.00  0.00    +0.000 A 
ATOM     13  C   UNL     1       6.668   4.774  15.727  0.00  0.00    +0.000 A 
ENDROOT
BRANCH   6  14
ATOM     14  C   UNL     1       3.877   4.714  17.689  0.00  0.00    +0.000 C 
ATOM     15  O   UNL     1       2.882   4.538  16.988  0.00  0.00    +0.000 OA
ATOM     16  N   UNL     1       4.044   5.788  18.553  0.00  0.00    +0.000 N 
ATOM     17  H   UNL     1       4.941   5.914  18.987  0.00  0.00    +0.000 HD
BRANCH  16  18
ATOM     18  C   UNL     1       3.171   6.890  18.707  0.00  0.00    +0.000 A 
ATOM     19  C   UNL     1       3.031   7.897  17.737  0.00  0.00    +0.000 A 
ATOM     20  C   UNL     1       2.184   8.992  17.949  0.00  0.00    +0.000 A 
ATOM     21  C   UNL     1       1.503   9.055  19.142  0.00  0.00    +0.000 A 
ATOM     22  C   UNL     1       1.617   8.064  20.089  0.00  0.00    +0.000 A 
ATOM     23  C   UNL     1       2.421   6.962  19.894  0.00  0.00    +0.000 A 
ATOM     24  O   UNL     1       0.877   8.327  21.201  0.00  0.00    +0.000 OA
ATOM     25  C   UNL     1       0.357   9.635  20.877  0.00  0.00    +0.000 C 
ATOM     26  O   UNL     1       0.676  10.057  19.536  0.00  0.00    +0.000 OA
ENDBRANCH  16  18
ENDBRANCH   6  14
TORSDOF 2
ENDMDL
MODEL 7
REMARK VINA RESULT:      -7.6      4.427      7.361
REMARK  Name = 
REMARK  3 active torsions:
REMARK  status: ('A' for Active; 'I' for Inactive)
REMARK    1  A    between atoms: C_1  and  C_2
REMARK    2  A    between atoms: C_6  and  C_7
REMARK    3  A    between atoms: N_9  and  C_10
REMARK                            x       y       z     vdW  Elec       q    Type
REMARK                         _______ _______ _______ _____ _____    ______ ____
ROOT
ATOM      1  C   UNL     1      -1.208  11.084  23.122  0.00  0.00    +0.000 C 
ATOM      2  C   UNL     1      -0.201  10.236  22.378  0.00  0.00    +0.000 C 
ATOM      3  O   UNL     1       0.626   9.619  23.050  0.00  0.00    +0.000 OA
ATOM      4  N   UNL     1      -0.261  10.252  20.983  0.00  0.00    +0.000 N 
ATOM      5  C   UNL     1      -1.208  11.063  20.203  0.00  0.00    +0.000 C 
ATOM      6  C   UNL     1      -0.484  11.800  19.082  0.00  0.00    +0.000 C 
ATOM      7  O   UNL     1       0.042  10.837  18.160  0.00  0.00    +0.000 OA
ATOM      8  C   UNL     1       0.722   9.804  18.768  0.00  0.00    +0.000 A 
ATOM      9  C   UNL     1       1.543   9.064  17.911  0.00  0.00    +0.000 A 
ATOM     10  C   UNL     1       2.285   7.995  18.405  0.00  0.00    +0.000 A 
ATOM     11  C   UNL     1       2.195   7.660  19.752  0.00  0.00    +0.000 A 
ATOM     12  C   UNL     1       1.371   8.396  20.610  0.00  0.00    +0.000 A 
ATOM     13  C   UNL     1       0.622   9.484  20.142  0.00  0.00    +0.000 A 
ENDROOT
BRANCH   6  14
ATOM     14  C   UNL     1       0.597  12.836  19.506  0.00  0.00    +0.000 C 
ATOM     15  O   UNL     1       0.871  12.997  20.695  0.00  0.00    +0.000 OA
ATOM     16  N   UNL     1       1.229  13.499  18.462  0.00  0.00    +0.000 N 
ATOM     17  H   UNL     1       0.851  13.397  17.537  0.00  0.00    +0.000 HD
BRANCH  16  18
ATOM     18  C   UNL     1       2.202  14.518  18.577  0.00  0.00    +0.000 A 
ATOM     19  C   UNL     1       1.877  15.884  18.641  0.00  0.00    +0.000 A 
ATOM     20  C   UNL     1       2.877  16.861  18.713  0.00  0.00    +0.000 A 
ATOM     21  C   UNL     1       4.186  16.442  18.708  0.00  0.00    +0.000 A 
ATOM     22  C   UNL     1       4.515  15.107  18.666  0.00  0.00    +0.000 A 
ATOM     23  C   UNL     1       3.551  14.124  18.623  0.00  0.00    +0.000 A 
ATOM     24  O   UNL     1       5.861  14.909  18.650  0.00  0.00    +0.000 OA
ATOM     25  C   UNL     1       6.336  16.272  18.599  0.00  0.00    +0.000 C 
ATOM     26  O   UNL     1       5.280  17.246  18.730  0.00  0.00    +0.000 OA
ENDBRANCH  16  18
ENDBRANCH   6  14
TORSDOF 2
ENDMDL
MODEL 8
REMARK VINA RESULT:      -7.4      2.242      3.340
REMARK  Name = 
REMARK  3 active torsions:
REMARK  status: ('A' for Active; 'I' for Inactive)
REMARK    1  A    between atoms: C_1  and  C_2
REMARK    2  A    between atoms: C_6  and  C_7
REMARK    3  A    between atoms: N_9  and  C_10
REMARK                            x       y       z     vdW  Elec       q    Type
REMARK                         _______ _______ _______ _____ _____    ______ ____
ROOT
ATOM      1  C   UNL     1       7.536   5.885  19.855  0.00  0.00    +0.000 C 
ATOM      2  C   UNL     1       7.448   5.770  18.350  0.00  0.00    +0.000 C 
ATOM      3  O   UNL     1       8.203   6.477  17.683  0.00  0.00    +0.000 OA
ATOM      4  N   UNL     1       6.485   4.901  17.833  0.00  0.00    +0.000 N 
ATOM      5  C   UNL     1       5.540   4.128  18.653  0.00  0.00    +0.000 C 
ATOM      6  C   UNL     1       4.124   4.260  18.103  0.00  0.00    +0.000 C 
ATOM      7  O   UNL     1       4.075   3.662  16.801  0.00  0.00    +0.000 OA
ATOM      8  C   UNL     1       5.105   4.056  15.974  0.00  0.00    +0.000 A 
ATOM      9  C   UNL     1       4.894   3.793  14.617  0.00  0.00    +0.000 A 
ATOM     10  C   UNL     1       5.859   4.145  13.679  0.00  0.00    +0.000 A 
ATOM     11  C   UNL     1       7.039   4.750  14.100  0.00  0.00    +0.000 A 
ATOM     12  C   UNL     1       7.254   5.011  15.458  0.00  0.00    +0.000 A 
ATOM     13  C   UNL     1       6.295   4.676  16.422  0.00  0.00    +0.000 A 
ENDROOT
BRANCH   6  14
ATOM     14  C   UNL     1       3.501   5.686  18.101  0.00  0.00    +0.000 C 
ATOM     15  O   UNL     1       3.678   6.440  17.145  0.00  0.00    +0.000 OA
ATOM     16  N   UNL     1       2.724   5.999  19.209  0.00  0.00    +0.000 N 
ATOM     17  H   UNL     1       2.744   5.372  19.994  0.00  0.00    +0.000 HD
BRANCH  16  18
ATOM     18  C   UNL     1       2.095   7.237  19.475  0.00  0.00    +0.000 A 
ATOM     19  C   UNL     1       2.017   8.275  18.531  0.00  0.00    +0.000 A 
ATOM     20  C   UNL     1       1.420   9.500  18.851  0.00  0.00    +0.000 A 
ATOM     21  C   UNL     1       0.921   9.657  20.123  0.00  0.00    +0.000 A 
ATOM     22  C   UNL     1       0.974   8.640  21.048  0.00  0.00    +0.000 A 
ATOM     23  C   UNL     1       1.530   7.416  20.749  0.00  0.00    +0.000 A 
ATOM     24  O   UNL     1       0.444   9.008  22.247  0.00  0.00    +0.000 OA
ATOM     25  C   UNL     1       0.134  10.395  21.992  0.00  0.00    +0.000 C 
ATOM     26  O   UNL     1       0.349  10.784  20.621  0.00  0.00    +0.000 OA
ENDBRANCH  16  18
ENDBRANCH   6  14
TORSDOF 2
ENDMDL
MODEL 9
REMARK VINA RESULT:      -7.3      2.834      8.516
REMARK  Name = 
REMARK  3 active torsions:
REMARK  status: ('A' for Active; 'I' for Inactive)
REMARK    1  A    between atoms: C_1  and  C_2
REMARK    2  A    between atoms: C_6  and  C_7
REMARK    3  A    between atoms: N_9  and  C_10
REMARK                            x       y       z     vdW  Elec       q    Type
REMARK                         _______ _______ _______ _____ _____    ______ ____
ROOT
ATOM      1  C   UNL     1       2.650  13.483  18.981  0.00  0.00    +0.000 C 
ATOM      2  C   UNL     1       1.712  13.363  20.161  0.00  0.00    +0.000 C 
ATOM      3  O   UNL     1       2.218  13.274  21.280  0.00  0.00    +0.000 OA
ATOM      4  N   UNL     1       0.344  13.318  19.885  0.00  0.00    +0.000 N 
ATOM      5  C   UNL     1      -0.229  13.343  18.531  0.00  0.00    +0.000 C 
ATOM      6  C   UNL     1      -1.283  12.251  18.377  0.00  0.00    +0.000 C 
ATOM      7  O   UNL     1      -2.376  12.535  19.259  0.00  0.00    +0.000 OA
ATOM      8  C   UNL     1      -1.983  12.846  20.543  0.00  0.00    +0.000 A 
ATOM      9  C   UNL     1      -3.002  12.769  21.498  0.00  0.00    +0.000 A 
ATOM     10  C   UNL     1      -2.732  13.056  22.833  0.00  0.00    +0.000 A 
ATOM     11  C   UNL     1      -1.447  13.432  23.209  0.00  0.00    +0.000 A 
ATOM     12  C   UNL     1      -0.426  13.514  22.254  0.00  0.00    +0.000 A 
ATOM     13  C   UNL     1      -0.668  13.219  20.906  0.00  0.00    +0.000 A 
ENDROOT
BRANCH   6  14
ATOM     14  C   UNL     1      -0.797  10.781  18.524  0.00  0.00    +0.000 C 
ATOM     15  O   UNL     1      -1.598   9.850  18.451  0.00  0.00    +0.000 OA
ATOM     16  N   UNL     1       0.573  10.620  18.692  0.00  0.00    +0.000 N 
ATOM     17  H   UNL     1       1.129  11.438  18.868  0.00  0.00    +0.000 HD
BRANCH  16  18
ATOM     18  C   UNL     1       1.259   9.401  18.899  0.00  0.00    +0.000 A 
ATOM     19  C   UNL     1       1.166   8.664  20.092  0.00  0.00    +0.000 A 
ATOM     20  C   UNL     1       1.896   7.482  20.270  0.00  0.00    +0.000 A 
ATOM     21  C   UNL     1       2.716   7.074  19.244  0.00  0.00    +0.000 A 
ATOM     22  C   UNL     1       2.799   7.778  18.065  0.00  0.00    +0.000 A 
ATOM     23  C   UNL     1       2.069   8.927  17.853  0.00  0.00    +0.000 A 
ATOM     24  O   UNL     1       3.678   7.216  17.191  0.00  0.00    +0.000 OA
ATOM     25  C   UNL     1       4.199   6.131  17.990  0.00  0.00    +0.000 C 
ATOM     26  O   UNL     1       3.524   5.983  19.256  0.00  0.00    +0.000 OA
ENDBRANCH  16  18
ENDBRANCH   6  14
TORSDOF 2
ENDMDL
