MODEL 1
REMARK VINA RESULT:      -7.5      0.000      0.000
REMARK  Name = 
REMARK  5 active torsions:
REMARK  status: ('A' for Active; 'I' for Inactive)
REMARK    1  A    between atoms: N_1  and  C_2
REMARK    2  A    between atoms: C_3  and  C_4
REMARK    3  A    between atoms: C_4  and  C_5
REMARK    4  A    between atoms: C_11  and  C_12
REMARK    5  A    between atoms: C_12  and  C_14
REMARK                            x       y       z     vdW  Elec       q    Type
REMARK                         _______ _______ _______ _____ _____    ______ ____
ROOT
ATOM      1  C   UNL     1       5.552   3.951  17.742  0.00  0.00    +0.000 A 
ATOM      2  C   UNL     1       6.766   4.507  17.243  0.00  0.00    +0.000 A 
ATOM      3  C   UNL     1       6.866   4.808  15.885  0.00  0.00    +0.000 A 
ATOM      4  C   UNL     1       5.786   4.609  15.030  0.00  0.00    +0.000 A 
ATOM      5  C   UNL     1       4.558   4.155  15.525  0.00  0.00    +0.000 A 
ATOM      6  C   UNL     1       4.411   3.849  16.883  0.00  0.00    +0.000 A 
ENDROOT
BRANCH   1   7
ATOM      7  N   UNL     1       5.594   3.240  18.975  0.00  0.00    +0.000 N 
ATOM      8  H   UNL     1       5.089   3.732  19.719  0.00  0.00    +0.000 HD
ATOM      9  H   UNL     1       5.187   2.299  18.842  0.00  0.00    +0.000 HD
ENDBRANCH   1   7
BRANCH   6  10
ATOM     10  C   UNL     1       3.060   3.442  17.450  0.00  0.00    +0.000 C 
ATOM     11  O   UNL     1       2.839   2.238  17.609  0.00  0.00    +0.000 OA
BRANCH  10  12
ATOM     12  C   UNL     1       1.966   4.492  17.773  0.00  0.00    +0.000 C 
ATOM     13  C   UNL     1       0.953   3.990  18.823  0.00  0.00    +0.000 C 
ATOM     14  C   UNL     1       1.432   4.078  20.274  0.00  0.00    +0.000 C 
ATOM     15  C   UNL     1       2.000   5.437  20.650  0.00  0.00    +0.000 C 
ATOM     16  C   UNL     1       2.966   5.998  19.613  0.00  0.00    +0.000 C 
ATOM     17  C   UNL     1       2.460   5.889  18.178  0.00  0.00    +0.000 C 
ENDBRANCH  10  12
ENDBRANCH   6  10
BRANCH   2  18
ATOM     18  C   UNL     1       7.998   4.760  18.110  0.00  0.00    +0.000 C 
BRANCH  18  19
ATOM     19  C   UNL     1       7.739   5.928  19.042  0.00  0.00    +0.000 C 
ATOM     20  O   UNL     1       7.402   5.597  20.225  0.00  0.00    +0.000 OA
ATOM     21  O   UNL     1       8.076   7.071  18.652  0.00  0.00    +0.000 OA
ENDBRANCH  18  19
ENDBRANCH   2  18
TORSDOF 5
ENDMDL
MODEL 2
REMARK VINA RESULT:      -7.3      1.038      1.197
REMARK  Name = 
REMARK  5 active torsions:
REMARK  status: ('A' for Active; 'I' for Inactive)
REMARK    1  A    between atoms: N_1  and  C_2
REMARK    2  A    between atoms: C_3  and  C_4
REMARK    3  A    between atoms: C_4  and  C_5
REMARK    4  A    between atoms: C_11  and  C_12
REMARK    5  A    between atoms: C_12  and  C_14
REMARK                            x       y       z     vdW  Elec       q    Type
REMARK                         _______ _______ _______ _____ _____    ______ ____
ROOT
ATOM      1  C   UNL     1       5.673   4.356  17.883  0.00  0.00    +0.000 A 
ATOM      2  C   UNL     1       6.736   5.147  17.359  0.00  0.00    +0.000 A 
ATOM      3  C   UNL     1       6.911   5.219  15.977  0.00  0.00    +0.000 A 
ATOM      4  C   UNL     1       6.038   4.564  15.114  0.00  0.00    +0.000 A 
ATOM      5  C   UNL     1       4.933   3.864  15.613  0.00  0.00    +0.000 A 
ATOM      6  C   UNL     1       4.716   3.773  16.993  0.00  0.00    +0.000 A 
ENDROOT
BRANCH   1   7
ATOM      7  N   UNL     1       5.762   3.918  19.235  0.00  0.00    +0.000 N 
ATOM      8  H   UNL     1       4.921   4.155  19.771  0.00  0.00    +0.000 HD
ATOM      9  H   UNL     1       5.912   2.896  19.255  0.00  0.00    +0.000 HD
ENDBRANCH   1   7
BRANCH   6  10
ATOM     10  C   UNL     1       3.472   3.093  17.544  0.00  0.00    +0.000 C 
ATOM     11  O   UNL     1       3.559   1.907  17.872  0.00  0.00    +0.000 OA
BRANCH  10  12
ATOM     12  C   UNL     1       2.117   3.841  17.647  0.00  0.00    +0.000 C 
ATOM     13  C   UNL     1       1.087   3.084  18.511  0.00  0.00    +0.000 C 
ATOM     14  C   UNL     1       1.266   3.251  20.022  0.00  0.00    +0.000 C 
ATOM     15  C   UNL     1       1.413   4.699  20.465  0.00  0.00    +0.000 C 
ATOM     16  C   UNL     1       2.382   5.500  19.604  0.00  0.00    +0.000 C 
ATOM     17  C   UNL     1       2.180   5.305  18.105  0.00  0.00    +0.000 C 
ENDBRANCH  10  12
ENDBRANCH   6  10
BRANCH   2  18
ATOM     18  C   UNL     1       7.738   5.900  18.233  0.00  0.00    +0.000 C 
BRANCH  18  19
ATOM     19  C   UNL     1       7.696   7.380  17.904  0.00  0.00    +0.000 C 
ATOM     20  O   UNL     1       6.697   7.738  17.198  0.00  0.00    +0.000 OA
ATOM     21  O   UNL     1       8.492   8.136  18.509  0.00  0.00    +0.000 OA
ENDBRANCH  18  19
ENDBRANCH   2  18
TORSDOF 5
ENDMDL
MODEL 3
REMARK VINA RESULT:      -7.3      1.675      2.153
REMARK  Name = 
REMARK  5 active torsions:
REMARK  status: ('A' for Active; 'I' for Inactive)
REMARK    1  A    between atoms: N_1  and  C_2
REMARK    2  A    between atoms: C_3  and  C_4
REMARK    3  A    between atoms: C_4  and  C_5
REMARK    4  A    between atoms: C_11  and  C_12
REMARK    5  A    between atoms: C_12  and  C_14
REMARK                            x       y       z     vdW  Elec       q    Type
REMARK                         _______ _______ _______ _____ _____    ______ ____
ROOT
ATOM      1  C   UNL     1       5.393   5.109  18.140  0.00  0.00    +0.000 A 
ATOM      2  C   UNL     1       6.716   5.302  17.646  0.00  0.00    +0.000 A 
ATOM      3  C   UNL     1       7.091   4.686  16.453  0.00  0.00    +0.000 A 
ATOM      4  C   UNL     1       6.179   3.925  15.728  0.00  0.00    +0.000 A 
ATOM      5  C   UNL     1       4.851   3.808  16.151  0.00  0.00    +0.000 A 
ATOM      6  C   UNL     1       4.429   4.417  17.339  0.00  0.00    +0.000 A 
ENDROOT
BRANCH   1   7
ATOM      7  N   UNL     1       5.150   5.338  19.525  0.00  0.00    +0.000 N 
ATOM      8  H   UNL     1       5.599   6.199  19.856  0.00  0.00    +0.000 HD
ATOM      9  H   UNL     1       4.132   5.391  19.690  0.00  0.00    +0.000 HD
ENDBRANCH   1   7
BRANCH   6  10
ATOM     10  C   UNL     1       2.970   4.373  17.764  0.00  0.00    +0.000 C 
ATOM     11  O   UNL     1       2.353   5.439  17.821  0.00  0.00    +0.000 OA
BRANCH  10  12
ATOM     12  C   UNL     1       2.280   3.042  18.163  0.00  0.00    +0.000 C 
ATOM     13  C   UNL     1       3.163   2.167  19.076  0.00  0.00    +0.000 C 
ATOM     14  C   UNL     1       3.169   2.578  20.551  0.00  0.00    +0.000 C 
ATOM     15  C   UNL     1       1.780   2.775  21.138  0.00  0.00    +0.000 C 
ATOM     16  C   UNL     1       0.855   3.590  20.242  0.00  0.00    +0.000 C 
ATOM     17  C   UNL     1       0.878   3.159  18.778  0.00  0.00    +0.000 C 
ENDBRANCH  10  12
ENDBRANCH   6  10
BRANCH   2  18
ATOM     18  C   UNL     1       7.778   6.123  18.377  0.00  0.00    +0.000 C 
BRANCH  18  19
ATOM     19  C   UNL     1       7.737   7.560  17.895  0.00  0.00    +0.000 C 
ATOM     20  O   UNL     1       8.504   8.354  18.531  0.00  0.00    +0.000 OA
ATOM     21  O   UNL     1       7.144   7.798  16.816  0.00  0.00    +0.000 OA
ENDBRANCH  18  19
ENDBRANCH   2  18
TORSDOF 5
ENDMDL
MODEL 4
REMARK VINA RESULT:      -7.2      1.027      1.186
REMARK  Name = 
REMARK  5 active torsions:
REMARK  status: ('A' for Active; 'I' for Inactive)
REMARK    1  A    between atoms: N_1  and  C_2
REMARK    2  A    between atoms: C_3  and  C_4
REMARK    3  A    between atoms: C_4  and  C_5
REMARK    4  A    between atoms: C_11  and  C_12
REMARK    5  A    between atoms: C_12  and  C_14
REMARK                            x       y       z     vdW  Elec       q    Type
REMARK                         _______ _______ _______ _____ _____    ______ ____
ROOT
ATOM      1  C   UNL     1       5.348   4.413  17.979  0.00  0.00    +0.000 A 
ATOM      2  C   UNL     1       6.254   5.405  17.502  0.00  0.00    +0.000 A 
ATOM      3  C   UNL     1       6.365   5.619  16.129  0.00  0.00    +0.000 A 
ATOM      4  C   UNL     1       5.575   4.906  15.232  0.00  0.00    +0.000 A 
ATOM      5  C   UNL     1       4.613   4.000  15.691  0.00  0.00    +0.000 A 
ATOM      6  C   UNL     1       4.463   3.760  17.062  0.00  0.00    +0.000 A 
ENDROOT
BRANCH   1   7
ATOM      7  N   UNL     1       5.554   3.884  19.285  0.00  0.00    +0.000 N 
ATOM      8  H   UNL     1       6.266   3.147  19.292  0.00  0.00    +0.000 HD
ATOM      9  H   UNL     1       5.835   4.647  19.923  0.00  0.00    +0.000 HD
ENDBRANCH   1   7
BRANCH   6  10
ATOM     10  C   UNL     1       3.362   2.847  17.579  0.00  0.00    +0.000 C 
ATOM     11  O   UNL     1       3.655   1.676  17.833  0.00  0.00    +0.000 OA
BRANCH  10  12
ATOM     12  C   UNL     1       1.902   3.346  17.739  0.00  0.00    +0.000 C 
ATOM     13  C   UNL     1       1.084   2.480  18.719  0.00  0.00    +0.000 C 
ATOM     14  C   UNL     1       1.323   2.784  20.200  0.00  0.00    +0.000 C 
ATOM     15  C   UNL     1       1.229   4.261  20.546  0.00  0.00    +0.000 C 
ATOM     16  C   UNL     1       1.979   5.160  19.570  0.00  0.00    +0.000 C 
ATOM     17  C   UNL     1       1.724   4.826  18.103  0.00  0.00    +0.000 C 
ENDBRANCH  10  12
ENDBRANCH   6  10
BRANCH   2  18
ATOM     18  C   UNL     1       7.156   6.233  18.416  0.00  0.00    +0.000 C 
BRANCH  18  19
ATOM     19  C   UNL     1       8.040   5.314  19.236  0.00  0.00    +0.000 C 
ATOM     20  O   UNL     1       7.917   5.444  20.497  0.00  0.00    +0.000 OA
ATOM     21  O   UNL     1       8.635   4.387  18.635  0.00  0.00    +0.000 OA
ENDBRANCH  18  19
ENDBRANCH   2  18
TORSDOF 5
ENDMDL
MODEL 5
REMARK VINA RESULT:      -7.2      1.643      5.544
REMARK  Name = 
REMARK  5 active torsions:
REMARK  status: ('A' for Active; 'I' for Inactive)
REMARK    1  A    between atoms: N_1  and  C_2
REMARK    2  A    between atoms: C_3  and  C_4
REMARK    3  A    between atoms: C_4  and  C_5
REMARK    4  A    between atoms: C_11  and  C_12
REMARK    5  A    between atoms: C_12  and  C_14
REMARK                            x       y       z     vdW  Elec       q    Type
REMARK                         _______ _______ _______ _____ _____    ______ ____
ROOT
ATOM      1  C   UNL     1       4.351   3.881  18.753  0.00  0.00    +0.000 A 
ATOM      2  C   UNL     1       2.967   3.707  18.465  0.00  0.00    +0.000 A 
ATOM      3  C   UNL     1       2.133   4.824  18.442  0.00  0.00    +0.000 A 
ATOM      4  C   UNL     1       2.647   6.100  18.656  0.00  0.00    +0.000 A 
ATOM      5  C   UNL     1       4.020   6.294  18.843  0.00  0.00    +0.000 A 
ATOM      6  C   UNL     1       4.894   5.201  18.866  0.00  0.00    +0.000 A 
ENDROOT
BRANCH   1   7
ATOM      7  N   UNL     1       5.089   2.755  19.217  0.00  0.00    +0.000 N 
ATOM      8  H   UNL     1       5.219   2.774  20.234  0.00  0.00    +0.000 HD
ATOM      9  H   UNL     1       4.598   1.887  18.945  0.00  0.00    +0.000 HD
ENDBRANCH   1   7
BRANCH   6  10
ATOM     10  C   UNL     1       6.396   5.405  18.978  0.00  0.00    +0.000 C 
ATOM     11  O   UNL     1       6.908   5.323  20.097  0.00  0.00    +0.000 OA
BRANCH  10  12
ATOM     12  C   UNL     1       7.262   5.756  17.740  0.00  0.00    +0.000 C 
ATOM     13  C   UNL     1       7.541   4.531  16.845  0.00  0.00    +0.000 C 
ATOM     14  C   UNL     1       6.397   4.147  15.904  0.00  0.00    +0.000 C 
ATOM     15  C   UNL     1       5.847   5.314  15.100  0.00  0.00    +0.000 C 
ATOM     16  C   UNL     1       5.607   6.566  15.936  0.00  0.00    +0.000 C 
ATOM     17  C   UNL     1       6.764   6.916  16.866  0.00  0.00    +0.000 C 
ENDBRANCH  10  12
ENDBRANCH   6  10
BRANCH   2  18
ATOM     18  C   UNL     1       2.321   2.345  18.216  0.00  0.00    +0.000 C 
BRANCH  18  19
ATOM     19  C   UNL     1       1.232   2.097  19.242  0.00  0.00    +0.000 C 
ATOM     20  O   UNL     1       1.617   2.181  20.454  0.00  0.00    +0.000 OA
ATOM     21  O   UNL     1       0.047   2.048  18.837  0.00  0.00    +0.000 OA
ENDBRANCH  18  19
ENDBRANCH   2  18
TORSDOF 5
ENDMDL
MODEL 6
REMARK VINA RESULT:      -7.0      2.201      3.267
REMARK  Name = 
REMARK  5 active torsions:
REMARK  status: ('A' for Active; 'I' for Inactive)
REMARK    1  A    between atoms: N_1  and  C_2
REMARK    2  A    between atoms: C_3  and  C_4
REMARK    3  A    between atoms: C_4  and  C_5
REMARK    4  A    between atoms: C_11  and  C_12
REMARK    5  A    between atoms: C_12  and  C_14
REMARK                            x       y       z     vdW  Elec       q    Type
REMARK                         _______ _______ _______ _____ _____    ______ ____
ROOT
ATOM      1  C   UNL     1       4.777   3.583  17.554  0.00  0.00    +0.000 A 
ATOM      2  C   UNL     1       5.128   4.688  16.726  0.00  0.00    +0.000 A 
ATOM      3  C   UNL     1       4.949   5.983  17.211  0.00  0.00    +0.000 A 
ATOM      4  C   UNL     1       4.473   6.201  18.500  0.00  0.00    +0.000 A 
ATOM      5  C   UNL     1       4.216   5.124  19.357  0.00  0.00    +0.000 A 
ATOM      6  C   UNL     1       4.390   3.808  18.914  0.00  0.00    +0.000 A 
ENDROOT
BRANCH   1   7
ATOM      7  N   UNL     1       4.528   2.327  16.931  0.00  0.00    +0.000 N 
ATOM      8  H   UNL     1       3.941   1.720  17.512  0.00  0.00    +0.000 HD
ATOM      9  H   UNL     1       4.072   2.482  16.017  0.00  0.00    +0.000 HD
ENDBRANCH   1   7
BRANCH   6  10
ATOM     10  C   UNL     1       4.203   2.634  19.862  0.00  0.00    +0.000 C 
ATOM     11  O   UNL     1       5.213   2.062  20.279  0.00  0.00    +0.000 OA
BRANCH  10  12
ATOM     12  C   UNL     1       2.791   2.130  20.259  0.00  0.00    +0.000 C 
ATOM     13  C   UNL     1       2.240   2.838  21.514  0.00  0.00    +0.000 C 
ATOM     14  C   UNL     1       1.646   4.226  21.262  0.00  0.00    +0.000 C 
ATOM     15  C   UNL     1       0.650   4.266  20.114  0.00  0.00    +0.000 C 
ATOM     16  C   UNL     1       1.131   3.530  18.869  0.00  0.00    +0.000 C 
ATOM     17  C   UNL     1       1.723   2.154  19.157  0.00  0.00    +0.000 C 
ENDBRANCH  10  12
ENDBRANCH   6  10
BRANCH   2  18
ATOM     18  C   UNL     1       5.660   4.540  15.301  0.00  0.00    +0.000 C 
BRANCH  18  19
ATOM     19  C   UNL     1       7.158   4.774  15.285  0.00  0.00    +0.000 C 
ATOM     20  O   UNL     1       7.570   5.509  14.329  0.00  0.00    +0.000 OA
ATOM     21  O   UNL     1       7.815   4.422  16.293  0.00  0.00    +0.000 OA
ENDBRANCH  18  19
ENDBRANCH   2  18
TORSDOF 5
ENDMDL
MODEL 7
REMARK VINA RESULT:      -7.0      1.620      2.570
REMARK  Name = 
REMARK  5 active torsions:
REMARK  status: ('A' for Active; 'I' for Inactive)
REMARK    1  A    between atoms: N_1  and  C_2
REMARK    2  A    between atoms: C_3  and  C_4
REMARK    3  A    between atoms: C_4  and  C_5
REMARK    4  A    between atoms: C_11  and  C_12
REMARK    5  A    between atoms: C_12  and  C_14
REMARK                            x       y       z     vdW  Elec       q    Type
REMARK                         _______ _______ _______ _____ _____    ______ ____
ROOT
ATOM      1  C   UNL     1       4.622   4.708  17.416  0.00  0.00    +0.000 A 
ATOM      2  C   UNL     1       5.223   5.974  17.678  0.00  0.00    +0.000 A 
ATOM      3  C   UNL     1       4.405   7.066  17.966  0.00  0.00    +0.000 A 
ATOM      4  C   UNL     1       3.023   6.921  18.039  0.00  0.00    +0.000 A 
ATOM      5  C   UNL     1       2.428   5.665  17.880  0.00  0.00    +0.000 A 
ATOM      6  C   UNL     1       3.212   4.540  17.597  0.00  0.00    +0.000 A 
ENDROOT
BRANCH   1   7
ATOM      7  N   UNL     1       5.379   3.739  16.698  0.00  0.00    +0.000 N 
ATOM      8  H   UNL     1       6.349   3.690  17.026  0.00  0.00    +0.000 HD
ATOM      9  H   UNL     1       4.931   2.813  16.797  0.00  0.00    +0.000 HD
ENDBRANCH   1   7
BRANCH   6  10
ATOM     10  C   UNL     1       2.589   3.155  17.512  0.00  0.00    +0.000 C 
ATOM     11  O   UNL     1       2.286   2.726  16.396  0.00  0.00    +0.000 OA
BRANCH  10  12
ATOM     12  C   UNL     1       2.291   2.320  18.784  0.00  0.00    +0.000 C 
ATOM     13  C   UNL     1       3.399   2.447  19.850  0.00  0.00    +0.000 C 
ATOM     14  C   UNL     1       3.332   3.718  20.700  0.00  0.00    +0.000 C 
ATOM     15  C   UNL     1       1.957   3.991  21.288  0.00  0.00    +0.000 C 
ATOM     16  C   UNL     1       0.825   3.823  20.281  0.00  0.00    +0.000 C 
ATOM     17  C   UNL     1       0.925   2.550  19.447  0.00  0.00    +0.000 C 
ENDBRANCH  10  12
ENDBRANCH   6  10
BRANCH   2  18
ATOM     18  C   UNL     1       6.730   6.221  17.621  0.00  0.00    +0.000 C 
BRANCH  18  19
ATOM     19  C   UNL     1       7.436   5.313  18.610  0.00  0.00    +0.000 C 
ATOM     20  O   UNL     1       7.126   5.514  19.829  0.00  0.00    +0.000 OA
ATOM     21  O   UNL     1       8.074   4.336  18.152  0.00  0.00    +0.000 OA
ENDBRANCH  18  19
ENDBRANCH   2  18
TORSDOF 5
ENDMDL
MODEL 8
REMARK VINA RESULT:      -7.0      2.348      5.489
REMARK  Name = 
REMARK  5 active torsions:
REMARK  status: ('A' for Active; 'I' for Inactive)
REMARK    1  A    between atoms: N_1  and  C_2
REMARK    2  A    between atoms: C_3  and  C_4
REMARK    3  A    between atoms: C_4  and  C_5
REMARK    4  A    between atoms: C_11  and  C_12
REMARK    5  A    between atoms: C_12  and  C_14
REMARK                            x       y       z     vdW  Elec       q    Type
REMARK                         _______ _______ _______ _____ _____    ______ ____
ROOT
ATOM      1  C   UNL     1       3.058   5.036  19.042  0.00  0.00    +0.000 A 
ATOM      2  C   UNL     1       2.211   4.024  19.579  0.00  0.00    +0.000 A 
ATOM      3  C   UNL     1       1.841   2.950  18.771  0.00  0.00    +0.000 A 
ATOM      4  C   UNL     1       2.321   2.840  17.470  0.00  0.00    +0.000 A 
ATOM      5  C   UNL     1       3.229   3.775  16.962  0.00  0.00    +0.000 A 
ATOM      6  C   UNL     1       3.634   4.865  17.742  0.00  0.00    +0.000 A 
ENDROOT
BRANCH   1   7
ATOM      7  N   UNL     1       3.066   6.313  19.672  0.00  0.00    +0.000 N 
ATOM      8  H   UNL     1       2.229   6.463  20.245  0.00  0.00    +0.000 HD
ATOM      9  H   UNL     1       3.911   6.399  20.261  0.00  0.00    +0.000 HD
ENDBRANCH   1   7
BRANCH   6  10
ATOM     10  C   UNL     1       4.689   5.837  17.237  0.00  0.00    +0.000 C 
ATOM     11  O   UNL     1       4.335   6.991  16.981  0.00  0.00    +0.000 OA
BRANCH  10  12
ATOM     12  C   UNL     1       6.155   5.393  16.999  0.00  0.00    +0.000 C 
ATOM     13  C   UNL     1       7.049   6.543  16.492  0.00  0.00    +0.000 C 
ATOM     14  C   UNL     1       7.542   7.502  17.579  0.00  0.00    +0.000 C 
ATOM     15  C   UNL     1       8.159   6.802  18.780  0.00  0.00    +0.000 C 
ATOM     16  C   UNL     1       7.334   5.622  19.281  0.00  0.00    +0.000 C 
ATOM     17  C   UNL     1       6.854   4.691  18.173  0.00  0.00    +0.000 C 
ENDBRANCH  10  12
ENDBRANCH   6  10
BRANCH   2  18
ATOM     18  C   UNL     1       1.642   4.064  20.997  0.00  0.00    +0.000 C 
BRANCH  18  19
ATOM     19  C   UNL     1       1.993   2.783  21.728  0.00  0.00    +0.000 C 
ATOM     20  O   UNL     1       3.228   2.471  21.688  0.00  0.00    +0.000 OA
ATOM     21  O   UNL     1       1.117   2.272  22.465  0.00  0.00    +0.000 OA
ENDBRANCH  18  19
ENDBRANCH   2  18
TORSDOF 5
ENDMDL
MODEL 9
REMARK VINA RESULT:      -7.0      1.407      2.035
REMARK  Name = 
REMARK  5 active torsions:
REMARK  status: ('A' for Active; 'I' for Inactive)
REMARK    1  A    between atoms: N_1  and  C_2
REMARK    2  A    between atoms: C_3  and  C_4
REMARK    3  A    between atoms: C_4  and  C_5
REMARK    4  A    between atoms: C_11  and  C_12
REMARK    5  A    between atoms: C_12  and  C_14
REMARK                            x       y       z     vdW  Elec       q    Type
REMARK                         _______ _______ _______ _____ _____    ______ ____
ROOT
ATOM      1  C   UNL     1       4.621   4.624  17.701  0.00  0.00    +0.000 A 
ATOM      2  C   UNL     1       5.638   5.622  17.702  0.00  0.00    +0.000 A 
ATOM      3  C   UNL     1       5.276   6.960  17.554  0.00  0.00    +0.000 A 
ATOM      4  C   UNL     1       3.938   7.328  17.448  0.00  0.00    +0.000 A 
ATOM      5  C   UNL     1       2.924   6.368  17.543  0.00  0.00    +0.000 A 
ATOM      6  C   UNL     1       3.243   5.014  17.700  0.00  0.00    +0.000 A 
ENDROOT
BRANCH   1   7
ATOM      7  N   UNL     1       4.992   3.283  17.398  0.00  0.00    +0.000 N 
ATOM      8  H   UNL     1       4.945   3.090  16.392  0.00  0.00    +0.000 HD
ATOM      9  H   UNL     1       5.950   3.106  17.742  0.00  0.00    +0.000 HD
ENDBRANCH   1   7
BRANCH   6  10
ATOM     10  C   UNL     1       2.152   3.973  17.896  0.00  0.00    +0.000 C 
ATOM     11  O   UNL     1       2.084   3.047  17.083  0.00  0.00    +0.000 OA
BRANCH  10  12
ATOM     12  C   UNL     1       1.119   4.086  19.047  0.00  0.00    +0.000 C 
ATOM     13  C   UNL     1       0.739   2.714  19.640  0.00  0.00    +0.000 C 
ATOM     14  C   UNL     1       1.750   2.141  20.637  0.00  0.00    +0.000 C 
ATOM     15  C   UNL     1       2.166   3.124  21.721  0.00  0.00    +0.000 C 
ATOM     16  C   UNL     1       2.498   4.511  21.184  0.00  0.00    +0.000 C 
ATOM     17  C   UNL     1       1.474   5.049  20.189  0.00  0.00    +0.000 C 
ENDBRANCH  10  12
ENDBRANCH   6  10
BRANCH   2  18
ATOM     18  C   UNL     1       7.129   5.307  17.816  0.00  0.00    +0.000 C 
BRANCH  18  19
ATOM     19  C   UNL     1       7.715   6.025  19.015  0.00  0.00    +0.000 C 
ATOM     20  O   UNL     1       7.622   5.387  20.114  0.00  0.00    +0.000 OA
ATOM     21  O   UNL     1       8.410   7.047  18.802  0.00  0.00    +0.000 OA
ENDBRANCH  18  19
ENDBRANCH   2  18
TORSDOF 5
ENDMDL
