MODEL 1
REMARK VINA RESULT:      -7.4      0.000      0.000
REMARK  Name = 
REMARK  13 active torsions:
REMARK  status: ('A' for Active; 'I' for Inactive)
REMARK    1  A    between atoms: C_1  and  C_2
REMARK    2  A    between atoms: C_2  and  C_3
REMARK    3  A    between atoms: N_5  and  C_6
REMARK    4  A    between atoms: C_9  and  C_10
REMARK    5  A    between atoms: C_10  and  C_12
REMARK    6  A    between atoms: C_12  and  S_13
REMARK    7  A    between atoms: S_13  and  C_14
REMARK    8  A    between atoms: C_17  and  C_18
REMARK    9  A    between atoms: C_21  and  O_22
REMARK   10  A    between atoms: N_25  and  C_26
REMARK   11  A    between atoms: C_26  and  C_27
REMARK   12  A    between atoms: C_33  and  O_34
REMARK   13  A    between atoms: O_34  and  C_35
REMARK                            x       y       z     vdW  Elec       q    Type
REMARK                         _______ _______ _______ _____ _____    ______ ____
ROOT
ATOM      1  C   UNL     1      -0.148  10.371  21.452  0.00  0.00    +0.000 A 
ATOM      2  N   UNL     1      -0.169   9.848  22.655  0.00  0.00    +0.000 NA
ATOM      3  N   UNL     1      -0.916  10.671  23.459  0.00  0.00    +0.000 NA
ATOM      4  C   UNL     1      -1.375  11.674  22.731  0.00  0.00    +0.000 A 
ATOM      5  N   UNL     1      -0.774  11.592  21.467  0.00  0.00    +0.000 N 
ENDROOT
BRANCH   4   6
ATOM      6  C   UNL     1      -2.321  12.703  23.211  0.00  0.00    +0.000 A 
ATOM      7  C   UNL     1      -1.843  13.808  23.927  0.00  0.00    +0.000 A 
ATOM      8  C   UNL     1      -2.720  14.811  24.393  0.00  0.00    +0.000 A 
ATOM      9  C   UNL     1      -4.080  14.706  24.127  0.00  0.00    +0.000 A 
ATOM     10  C   UNL     1      -4.581  13.607  23.450  0.00  0.00    +0.000 A 
ATOM     11  C   UNL     1      -3.710  12.598  23.030  0.00  0.00    +0.000 A 
BRANCH   9  12
ATOM     12  O   UNL     1      -4.971  15.654  24.531  0.00  0.00    +0.000 OA
ATOM     13  H   UNL     1      -4.679  16.520  24.204  0.00  0.00    +0.000 HD
ENDBRANCH   9  12
ENDBRANCH   4   6
BRANCH   1  14
ATOM     14  S   UNL     1       0.484   9.580  20.050  0.00  0.00    +0.000 S 
BRANCH  14  15
ATOM     15  C   UNL     1       1.908   8.657  20.708  0.00  0.00    +0.000 C 
BRANCH  15  16
ATOM     16  C   UNL     1       1.849   7.189  20.283  0.00  0.00    +0.000 C 
ATOM     17  O   UNL     1       1.040   6.378  20.732  0.00  0.00    +0.000 OA
BRANCH  16  21
ATOM     18  C   UNL     1       4.550   5.741  17.247  0.00  0.00    +0.000 A 
ATOM     19  C   UNL     1       3.833   6.934  17.070  0.00  0.00    +0.000 A 
ATOM     20  C   UNL     1       2.980   7.414  18.069  0.00  0.00    +0.000 A 
ATOM     21  C   UNL     1       2.840   6.709  19.268  0.00  0.00    +0.000 A 
ATOM     22  C   UNL     1       3.601   5.555  19.477  0.00  0.00    +0.000 A 
ATOM     23  C   UNL     1       4.447   5.061  18.472  0.00  0.00    +0.000 A 
BRANCH  18  26
ATOM     24  C   UNL     1       6.592   5.496  15.894  0.00  0.00    +0.000 C 
ATOM     25  O   UNL     1       7.302   6.214  16.590  0.00  0.00    +0.000 OA
ATOM     26  N   UNL     1       5.268   5.189  16.165  0.00  0.00    +0.000 N 
ATOM     27  H   UNL     1       4.877   4.365  15.733  0.00  0.00    +0.000 HD
BRANCH  24  29
ATOM     28  C   UNL     1       6.015   4.010  13.948  0.00  0.00    +0.000 C 
ATOM     29  C   UNL     1       7.106   4.818  14.635  0.00  0.00    +0.000 C 
ENDBRANCH  24  29
ENDBRANCH  18  26
BRANCH  23  30
ATOM     30  O   UNL     1       5.076   3.885  18.791  0.00  0.00    +0.000 OA
ATOM     31  C   UNL     1       4.343   2.976  19.609  0.00  0.00    +0.000 C 
ENDBRANCH  23  30
ENDBRANCH  16  21
ENDBRANCH  15  16
ENDBRANCH  14  15
ENDBRANCH   1  14
BRANCH   5  32
ATOM     32  C   UNL     1      -0.812  12.674  20.513  0.00  0.00    +0.000 C 
BRANCH  32  33
ATOM     33  C   UNL     1      -1.799  12.790  19.348  0.00  0.00    +0.000 C 
ATOM     34  C   UNL     1      -3.093  12.012  19.495  0.00  0.00    +0.000 C 
ATOM     35  C   UNL     1      -3.398  11.546  18.093  0.00  0.00    +0.000 C 
ATOM     36  C   UNL     1      -2.047  11.451  17.427  0.00  0.00    +0.000 C 
ATOM     37  O   UNL     1      -1.123  12.214  18.201  0.00  0.00    +0.000 OA
ENDBRANCH  32  33
ENDBRANCH   5  32
TORSDOF 11
ENDMDL
MODEL 2
REMARK VINA RESULT:      -7.2      3.092     10.289
REMARK  Name = 
REMARK  13 active torsions:
REMARK  status: ('A' for Active; 'I' for Inactive)
REMARK    1  A    between atoms: C_1  and  C_2
REMARK    2  A    between atoms: C_2  and  C_3
REMARK    3  A    between atoms: N_5  and  C_6
REMARK    4  A    between atoms: C_9  and  C_10
REMARK    5  A    between atoms: C_10  and  C_12
REMARK    6  A    between atoms: C_12  and  S_13
REMARK    7  A    between atoms: S_13  and  C_14
REMARK    8  A    between atoms: C_17  and  C_18
REMARK    9  A    between atoms: C_21  and  O_22
REMARK   10  A    between atoms: N_25  and  C_26
REMARK   11  A    between atoms: C_26  and  C_27
REMARK   12  A    between atoms: C_33  and  O_34
REMARK   13  A    between atoms: O_34  and  C_35
REMARK                            x       y       z     vdW  Elec       q    Type
REMARK                         _______ _______ _______ _____ _____    ______ ____
ROOT
ATOM      1  C   UNL     1       1.385   8.409  19.335  0.00  0.00    +0.000 A 
ATOM      2  N   UNL     1       1.663   9.183  18.313  0.00  0.00    +0.000 NA
ATOM      3  N   UNL     1       2.611   8.549  17.550  0.00  0.00    +0.000 NA
ATOM      4  C   UNL     1       2.879   7.374  18.095  0.00  0.00    +0.000 A 
ATOM      5  N   UNL     1       2.217   7.318  19.329  0.00  0.00    +0.000 N 
ENDROOT
BRANCH   4   6
ATOM      6  C   UNL     1       3.758   6.347  17.499  0.00  0.00    +0.000 A 
ATOM      7  C   UNL     1       4.988   6.721  16.942  0.00  0.00    +0.000 A 
ATOM      8  C   UNL     1       5.853   5.763  16.372  0.00  0.00    +0.000 A 
ATOM      9  C   UNL     1       5.482   4.424  16.371  0.00  0.00    +0.000 A 
ATOM     10  C   UNL     1       4.257   4.033  16.886  0.00  0.00    +0.000 A 
ATOM     11  C   UNL     1       3.389   4.995  17.410  0.00  0.00    +0.000 A 
BRANCH   9  12
ATOM     12  O   UNL     1       6.286   3.451  15.856  0.00  0.00    +0.000 OA
ATOM     13  H   UNL     1       6.709   2.972  16.587  0.00  0.00    +0.000 HD
ENDBRANCH   9  12
ENDBRANCH   4   6
BRANCH   1  14
ATOM     14  S   UNL     1       0.092   8.684  20.450  0.00  0.00    +0.000 S 
BRANCH  14  15
ATOM     15  C   UNL     1       0.928   9.485  21.856  0.00  0.00    +0.000 C 
BRANCH  15  16
ATOM     16  C   UNL     1       0.117  10.678  22.364  0.00  0.00    +0.000 C 
ATOM     17  O   UNL     1      -0.478  10.692  23.441  0.00  0.00    +0.000 OA
BRANCH  16  21
ATOM     18  C   UNL     1      -0.225  14.075  19.728  0.00  0.00    +0.000 A 
ATOM     19  C   UNL     1      -1.308  13.656  20.516  0.00  0.00    +0.000 A 
ATOM     20  C   UNL     1      -1.184  12.572  21.390  0.00  0.00    +0.000 A 
ATOM     21  C   UNL     1       0.035  11.894  21.496  0.00  0.00    +0.000 A 
ATOM     22  C   UNL     1       1.135  12.347  20.762  0.00  0.00    +0.000 A 
ATOM     23  C   UNL     1       1.012  13.425  19.873  0.00  0.00    +0.000 A 
BRANCH  18  26
ATOM     24  C   UNL     1      -0.205  16.409  18.945  0.00  0.00    +0.000 C 
ATOM     25  O   UNL     1       0.240  16.894  19.979  0.00  0.00    +0.000 OA
ATOM     26  N   UNL     1      -0.421  15.056  18.733  0.00  0.00    +0.000 N 
ATOM     27  H   UNL     1      -0.479  14.732  17.779  0.00  0.00    +0.000 HD
BRANCH  24  29
ATOM     28  C   UNL     1       0.622  18.111  17.286  0.00  0.00    +0.000 C 
ATOM     29  C   UNL     1      -0.555  17.256  17.733  0.00  0.00    +0.000 C 
ENDBRANCH  24  29
ENDBRANCH  18  26
BRANCH  23  30
ATOM     30  O   UNL     1       2.154  13.712  19.171  0.00  0.00    +0.000 OA
ATOM     31  C   UNL     1       2.490  12.817  18.113  0.00  0.00    +0.000 C 
ENDBRANCH  23  30
ENDBRANCH  16  21
ENDBRANCH  15  16
ENDBRANCH  14  15
ENDBRANCH   1  14
BRANCH   5  32
ATOM     32  C   UNL     1       2.509   6.315  20.326  0.00  0.00    +0.000 C 
BRANCH  32  33
ATOM     33  C   UNL     1       1.562   5.189  20.749  0.00  0.00    +0.000 C 
ATOM     34  C   UNL     1       2.200   4.029  21.491  0.00  0.00    +0.000 C 
ATOM     35  C   UNL     1       1.433   2.824  21.008  0.00  0.00    +0.000 C 
ATOM     36  C   UNL     1       0.958   3.209  19.629  0.00  0.00    +0.000 C 
ATOM     37  O   UNL     1       1.042   4.629  19.517  0.00  0.00    +0.000 OA
ENDBRANCH  32  33
ENDBRANCH   5  32
TORSDOF 11
ENDMDL
MODEL 3
REMARK VINA RESULT:      -7.2      2.482     11.356
REMARK  Name = 
REMARK  13 active torsions:
REMARK  status: ('A' for Active; 'I' for Inactive)
REMARK    1  A    between atoms: C_1  and  C_2
REMARK    2  A    between atoms: C_2  and  C_3
REMARK    3  A    between atoms: N_5  and  C_6
REMARK    4  A    between atoms: C_9  and  C_10
REMARK    5  A    between atoms: C_10  and  C_12
REMARK    6  A    between atoms: C_12  and  S_13
REMARK    7  A    between atoms: S_13  and  C_14
REMARK    8  A    between atoms: C_17  and  C_18
REMARK    9  A    between atoms: C_21  and  O_22
REMARK   10  A    between atoms: N_25  and  C_26
REMARK   11  A    between atoms: C_26  and  C_27
REMARK   12  A    between atoms: C_33  and  O_34
REMARK   13  A    between atoms: O_34  and  C_35
REMARK                            x       y       z     vdW  Elec       q    Type
REMARK                         _______ _______ _______ _____ _____    ______ ____
ROOT
ATOM      1  C   UNL     1       2.320   7.299  19.594  0.00  0.00    +0.000 A 
ATOM      2  N   UNL     1       2.312   8.251  18.692  0.00  0.00    +0.000 NA
ATOM      3  N   UNL     1       3.083   7.837  17.634  0.00  0.00    +0.000 NA
ATOM      4  C   UNL     1       3.528   6.617  17.886  0.00  0.00    +0.000 A 
ATOM      5  N   UNL     1       3.180   6.302  19.207  0.00  0.00    +0.000 N 
ENDROOT
BRANCH   4   6
ATOM      6  C   UNL     1       4.290   5.783  16.934  0.00  0.00    +0.000 A 
ATOM      7  C   UNL     1       5.193   6.385  16.048  0.00  0.00    +0.000 A 
ATOM      8  C   UNL     1       5.941   5.615  15.132  0.00  0.00    +0.000 A 
ATOM      9  C   UNL     1       5.785   4.234  15.115  0.00  0.00    +0.000 A 
ATOM     10  C   UNL     1       4.875   3.618  15.957  0.00  0.00    +0.000 A 
ATOM     11  C   UNL     1       4.108   4.394  16.831  0.00  0.00    +0.000 A 
BRANCH   9  12
ATOM     12  O   UNL     1       6.496   3.437  14.269  0.00  0.00    +0.000 OA
ATOM     13  H   UNL     1       6.120   3.509  13.377  0.00  0.00    +0.000 HD
ENDBRANCH   9  12
ENDBRANCH   4   6
BRANCH   1  14
ATOM     14  S   UNL     1       1.316   7.274  21.002  0.00  0.00    +0.000 S 
BRANCH  14  15
ATOM     15  C   UNL     1       0.256   8.737  20.775  0.00  0.00    +0.000 C 
BRANCH  15  16
ATOM     16  C   UNL     1       0.358   9.675  21.978  0.00  0.00    +0.000 C 
ATOM     17  O   UNL     1       1.181   9.540  22.884  0.00  0.00    +0.000 OA
BRANCH  16  21
ATOM     18  C   UNL     1      -2.571  12.833  22.200  0.00  0.00    +0.000 A 
ATOM     19  C   UNL     1      -2.360  11.963  23.280  0.00  0.00    +0.000 A 
ATOM     20  C   UNL     1      -1.390  10.958  23.214  0.00  0.00    +0.000 A 
ATOM     21  C   UNL     1      -0.606  10.816  22.065  0.00  0.00    +0.000 A 
ATOM     22  C   UNL     1      -0.767  11.721  21.011  0.00  0.00    +0.000 A 
ATOM     23  C   UNL     1      -1.749  12.722  21.067  0.00  0.00    +0.000 A 
BRANCH  18  26
ATOM     24  C   UNL     1      -4.951  13.359  21.856  0.00  0.00    +0.000 C 
ATOM     25  O   UNL     1      -5.297  12.225  21.544  0.00  0.00    +0.000 OA
ATOM     26  N   UNL     1      -3.665  13.724  22.223  0.00  0.00    +0.000 N 
ATOM     27  H   UNL     1      -3.550  14.573  22.755  0.00  0.00    +0.000 HD
BRANCH  24  29
ATOM     28  C   UNL     1      -7.341  14.086  21.550  0.00  0.00    +0.000 C 
ATOM     29  C   UNL     1      -5.928  14.523  21.907  0.00  0.00    +0.000 C 
ENDBRANCH  24  29
ENDBRANCH  18  26
BRANCH  23  30
ATOM     30  O   UNL     1      -1.838  13.489  19.934  0.00  0.00    +0.000 OA
ATOM     31  C   UNL     1      -1.005  13.107  18.842  0.00  0.00    +0.000 C 
ENDBRANCH  23  30
ENDBRANCH  16  21
ENDBRANCH  15  16
ENDBRANCH  14  15
ENDBRANCH   1  14
BRANCH   5  32
ATOM     32  C   UNL     1       3.747   5.180  19.916  0.00  0.00    +0.000 C 
BRANCH  32  33
ATOM     33  C   UNL     1       3.080   3.812  20.082  0.00  0.00    +0.000 C 
ATOM     34  C   UNL     1       1.847   3.567  19.233  0.00  0.00    +0.000 C 
ATOM     35  C   UNL     1       0.955   2.735  20.121  0.00  0.00    +0.000 C 
ATOM     36  C   UNL     1       1.348   3.128  21.523  0.00  0.00    +0.000 C 
ATOM     37  O   UNL     1       2.626   3.760  21.459  0.00  0.00    +0.000 OA
ENDBRANCH  32  33
ENDBRANCH   5  32
TORSDOF 11
ENDMDL
MODEL 4
REMARK VINA RESULT:      -7.0      2.627     11.462
REMARK  Name = 
REMARK  13 active torsions:
REMARK  status: ('A' for Active; 'I' for Inactive)
REMARK    1  A    between atoms: C_1  and  C_2
REMARK    2  A    between atoms: C_2  and  C_3
REMARK    3  A    between atoms: N_5  and  C_6
REMARK    4  A    between atoms: C_9  and  C_10
REMARK    5  A    between atoms: C_10  and  C_12
REMARK    6  A    between atoms: C_12  and  S_13
REMARK    7  A    between atoms: S_13  and  C_14
REMARK    8  A    between atoms: C_17  and  C_18
REMARK    9  A    between atoms: C_21  and  O_22
REMARK   10  A    between atoms: N_25  and  C_26
REMARK   11  A    between atoms: C_26  and  C_27
REMARK   12  A    between atoms: C_33  and  O_34
REMARK   13  A    between atoms: O_34  and  C_35
REMARK                            x       y       z     vdW  Elec       q    Type
REMARK                         _______ _______ _______ _____ _____    ______ ____
ROOT
ATOM      1  C   UNL     1       1.965   7.744  19.718  0.00  0.00    +0.000 A 
ATOM      2  N   UNL     1       2.063   8.646  18.771  0.00  0.00    +0.000 NA
ATOM      3  N   UNL     1       2.869   8.137  17.784  0.00  0.00    +0.000 NA
ATOM      4  C   UNL     1       3.229   6.910  18.122  0.00  0.00    +0.000 A 
ATOM      5  N   UNL     1       2.787   6.683  19.433  0.00  0.00    +0.000 N 
ENDROOT
BRANCH   4   6
ATOM      6  C   UNL     1       3.997   5.988  17.260  0.00  0.00    +0.000 A 
ATOM      7  C   UNL     1       4.976   6.494  16.396  0.00  0.00    +0.000 A 
ATOM      8  C   UNL     1       5.730   5.639  15.565  0.00  0.00    +0.000 A 
ATOM      9  C   UNL     1       5.505   4.268  15.614  0.00  0.00    +0.000 A 
ATOM     10  C   UNL     1       4.521   3.745  16.435  0.00  0.00    +0.000 A 
ATOM     11  C   UNL     1       3.750   4.605  17.223  0.00  0.00    +0.000 A 
BRANCH   9  12
ATOM     12  O   UNL     1       6.219   3.391  14.853  0.00  0.00    +0.000 OA
ATOM     13  H   UNL     1       6.923   3.003  15.397  0.00  0.00    +0.000 HD
ENDBRANCH   9  12
ENDBRANCH   4   6
BRANCH   1  14
ATOM     14  S   UNL     1       0.880   7.846  21.061  0.00  0.00    +0.000 S 
BRANCH  14  15
ATOM     15  C   UNL     1       1.046   9.580  21.590  0.00  0.00    +0.000 C 
BRANCH  15  16
ATOM     16  C   UNL     1      -0.107  10.427  21.050  0.00  0.00    +0.000 C 
ATOM     17  O   UNL     1      -0.705  10.181  20.003  0.00  0.00    +0.000 OA
BRANCH  16  21
ATOM     18  C   UNL     1      -1.486  13.897  23.210  0.00  0.00    +0.000 A 
ATOM     19  C   UNL     1      -1.993  12.619  23.491  0.00  0.00    +0.000 A 
ATOM     20  C   UNL     1      -1.523  11.494  22.807  0.00  0.00    +0.000 A 
ATOM     21  C   UNL     1      -0.526  11.630  21.837  0.00  0.00    +0.000 A 
ATOM     22  C   UNL     1       0.030  12.890  21.598  0.00  0.00    +0.000 A 
ATOM     23  C   UNL     1      -0.449  14.025  22.271  0.00  0.00    +0.000 A 
BRANCH  18  26
ATOM     24  C   UNL     1      -1.593  15.678  24.906  0.00  0.00    +0.000 C 
ATOM     25  O   UNL     1      -0.547  15.385  25.476  0.00  0.00    +0.000 OA
ATOM     26  N   UNL     1      -2.093  15.033  23.786  0.00  0.00    +0.000 N 
ATOM     27  H   UNL     1      -2.763  15.528  23.217  0.00  0.00    +0.000 HD
BRANCH  24  29
ATOM     28  C   UNL     1      -3.929  16.610  24.979  0.00  0.00    +0.000 C 
ATOM     29  C   UNL     1      -2.473  16.831  25.360  0.00  0.00    +0.000 C 
ENDBRANCH  24  29
ENDBRANCH  18  26
BRANCH  23  30
ATOM     30  O   UNL     1       0.141  15.201  21.885  0.00  0.00    +0.000 OA
ATOM     31  C   UNL     1       1.564  15.248  21.952  0.00  0.00    +0.000 C 
ENDBRANCH  23  30
ENDBRANCH  16  21
ENDBRANCH  15  16
ENDBRANCH  14  15
ENDBRANCH   1  14
BRANCH   5  32
ATOM     32  C   UNL     1       3.248   5.571  20.230  0.00  0.00    +0.000 C 
BRANCH  32  33
ATOM     33  C   UNL     1       2.406   4.352  20.615  0.00  0.00    +0.000 C 
ATOM     34  C   UNL     1       3.043   2.999  20.361  0.00  0.00    +0.000 C 
ATOM     35  C   UNL     1       1.887   2.125  19.946  0.00  0.00    +0.000 C 
ATOM     36  C   UNL     1       0.894   3.081  19.332  0.00  0.00    +0.000 C 
ATOM     37  O   UNL     1       1.233   4.399  19.763  0.00  0.00    +0.000 OA
ENDBRANCH  32  33
ENDBRANCH   5  32
TORSDOF 11
ENDMDL
MODEL 5
REMARK VINA RESULT:      -6.9      7.724     11.055
REMARK  Name = 
REMARK  13 active torsions:
REMARK  status: ('A' for Active; 'I' for Inactive)
REMARK    1  A    between atoms: C_1  and  C_2
REMARK    2  A    between atoms: C_2  and  C_3
REMARK    3  A    between atoms: N_5  and  C_6
REMARK    4  A    between atoms: C_9  and  C_10
REMARK    5  A    between atoms: C_10  and  C_12
REMARK    6  A    between atoms: C_12  and  S_13
REMARK    7  A    between atoms: S_13  and  C_14
REMARK    8  A    between atoms: C_17  and  C_18
REMARK    9  A    between atoms: C_21  and  O_22
REMARK   10  A    between atoms: N_25  and  C_26
REMARK   11  A    between atoms: C_26  and  C_27
REMARK   12  A    between atoms: C_33  and  O_34
REMARK   13  A    between atoms: O_34  and  C_35
REMARK                            x       y       z     vdW  Elec       q    Type
REMARK                         _______ _______ _______ _____ _____    ______ ____
ROOT
ATOM      1  C   UNL     1       6.778   5.924  18.596  0.00  0.00    +0.000 A 
ATOM      2  N   UNL     1       6.857   5.449  19.816  0.00  0.00    +0.000 NA
ATOM      3  N   UNL     1       5.721   4.720  20.059  0.00  0.00    +0.000 NA
ATOM      4  C   UNL     1       4.971   4.726  18.970  0.00  0.00    +0.000 A 
ATOM      5  N   UNL     1       5.552   5.619  18.060  0.00  0.00    +0.000 N 
ENDROOT
BRANCH   4   6
ATOM      6  C   UNL     1       3.726   3.950  18.797  0.00  0.00    +0.000 A 
ATOM      7  C   UNL     1       2.502   4.497  19.203  0.00  0.00    +0.000 A 
ATOM      8  C   UNL     1       1.295   3.783  19.045  0.00  0.00    +0.000 A 
ATOM      9  C   UNL     1       1.320   2.519  18.467  0.00  0.00    +0.000 A 
ATOM     10  C   UNL     1       2.521   1.942  18.089  0.00  0.00    +0.000 A 
ATOM     11  C   UNL     1       3.715   2.640  18.288  0.00  0.00    +0.000 A 
BRANCH   9  12
ATOM     12  O   UNL     1       0.185   1.793  18.267  0.00  0.00    +0.000 OA
ATOM     13  H   UNL     1       0.334   1.170  17.537  0.00  0.00    +0.000 HD
ENDBRANCH   9  12
ENDBRANCH   4   6
BRANCH   1  14
ATOM     14  S   UNL     1       8.070   6.720  17.767  0.00  0.00    +0.000 S 
BRANCH  14  15
ATOM     15  C   UNL     1       8.551   8.038  18.928  0.00  0.00    +0.000 C 
BRANCH  15  16
ATOM     16  C   UNL     1       8.362   9.417  18.295  0.00  0.00    +0.000 C 
ATOM     17  O   UNL     1       7.573   9.648  17.380  0.00  0.00    +0.000 OA
BRANCH  16  21
ATOM     18  C   UNL     1      10.588  12.768  19.851  0.00  0.00    +0.000 A 
ATOM     19  C   UNL     1      10.083  11.774  20.704  0.00  0.00    +0.000 A 
ATOM     20  C   UNL     1       9.387  10.675  20.192  0.00  0.00    +0.000 A 
ATOM     21  C   UNL     1       9.193  10.549  18.813  0.00  0.00    +0.000 A 
ATOM     22  C   UNL     1       9.750  11.502  17.954  0.00  0.00    +0.000 A 
ATOM     23  C   UNL     1      10.437  12.614  18.463  0.00  0.00    +0.000 A 
BRANCH  18  26
ATOM     24  C   UNL     1      10.401  14.847  21.158  0.00  0.00    +0.000 C 
ATOM     25  O   UNL     1       9.232  14.690  21.494  0.00  0.00    +0.000 OA
ATOM     26  N   UNL     1      11.134  13.948  20.399  0.00  0.00    +0.000 N 
ATOM     27  H   UNL     1      12.141  14.005  20.444  0.00  0.00    +0.000 HD
BRANCH  24  29
ATOM     28  C   UNL     1      10.754  16.615  22.912  0.00  0.00    +0.000 C 
ATOM     29  C   UNL     1      11.210  16.066  21.569  0.00  0.00    +0.000 C 
ENDBRANCH  24  29
ENDBRANCH  18  26
BRANCH  23  30
ATOM     30  O   UNL     1      10.865  13.499  17.508  0.00  0.00    +0.000 OA
ATOM     31  C   UNL     1      10.447  14.853  17.665  0.00  0.00    +0.000 C 
ENDBRANCH  23  30
ENDBRANCH  16  21
ENDBRANCH  15  16
ENDBRANCH  14  15
ENDBRANCH   1  14
BRANCH   5  32
ATOM     32  C   UNL     1       4.860   6.099  16.887  0.00  0.00    +0.000 C 
BRANCH  32  33
ATOM     33  C   UNL     1       5.049   5.559  15.467  0.00  0.00    +0.000 C 
ATOM     34  C   UNL     1       5.065   4.049  15.328  0.00  0.00    +0.000 C 
ATOM     35  C   UNL     1       6.073   3.796  14.235  0.00  0.00    +0.000 C 
ATOM     36  C   UNL     1       7.015   4.972  14.313  0.00  0.00    +0.000 C 
ATOM     37  O   UNL     1       6.364   6.006  15.048  0.00  0.00    +0.000 OA
ENDBRANCH  32  33
ENDBRANCH   5  32
TORSDOF 11
ENDMDL
MODEL 6
REMARK VINA RESULT:      -6.9      2.405     11.449
REMARK  Name = 
REMARK  13 active torsions:
REMARK  status: ('A' for Active; 'I' for Inactive)
REMARK    1  A    between atoms: C_1  and  C_2
REMARK    2  A    between atoms: C_2  and  C_3
REMARK    3  A    between atoms: N_5  and  C_6
REMARK    4  A    between atoms: C_9  and  C_10
REMARK    5  A    between atoms: C_10  and  C_12
REMARK    6  A    between atoms: C_12  and  S_13
REMARK    7  A    between atoms: S_13  and  C_14
REMARK    8  A    between atoms: C_17  and  C_18
REMARK    9  A    between atoms: C_21  and  O_22
REMARK   10  A    between atoms: N_25  and  C_26
REMARK   11  A    between atoms: C_26  and  C_27
REMARK   12  A    between atoms: C_33  and  O_34
REMARK   13  A    between atoms: O_34  and  C_35
REMARK                            x       y       z     vdW  Elec       q    Type
REMARK                         _______ _______ _______ _____ _____    ______ ____
ROOT
ATOM      1  C   UNL     1       2.343   7.349  19.563  0.00  0.00    +0.000 A 
ATOM      2  N   UNL     1       2.384   8.310  18.671  0.00  0.00    +0.000 NA
ATOM      3  N   UNL     1       3.160   7.881  17.624  0.00  0.00    +0.000 NA
ATOM      4  C   UNL     1       3.560   6.645  17.871  0.00  0.00    +0.000 A 
ATOM      5  N   UNL     1       3.176   6.328  19.181  0.00  0.00    +0.000 N 
ENDROOT
BRANCH   4   6
ATOM      6  C   UNL     1       4.312   5.795  16.924  0.00  0.00    +0.000 A 
ATOM      7  C   UNL     1       5.194   6.385  16.010  0.00  0.00    +0.000 A 
ATOM      8  C   UNL     1       5.932   5.600  15.097  0.00  0.00    +0.000 A 
ATOM      9  C   UNL     1       5.787   4.218  15.114  0.00  0.00    +0.000 A 
ATOM     10  C   UNL     1       4.896   3.614  15.985  0.00  0.00    +0.000 A 
ATOM     11  C   UNL     1       4.139   4.403  16.856  0.00  0.00    +0.000 A 
BRANCH   9  12
ATOM     12  O   UNL     1       6.490   3.407  14.273  0.00  0.00    +0.000 OA
ATOM     13  H   UNL     1       7.358   3.222  14.667  0.00  0.00    +0.000 HD
ENDBRANCH   9  12
ENDBRANCH   4   6
BRANCH   1  14
ATOM     14  S   UNL     1       1.312   7.343  20.951  0.00  0.00    +0.000 S 
BRANCH  14  15
ATOM     15  C   UNL     1       0.297   8.836  20.715  0.00  0.00    +0.000 C 
BRANCH  15  16
ATOM     16  C   UNL     1       0.456   9.795  21.894  0.00  0.00    +0.000 C 
ATOM     17  O   UNL     1       1.357   9.711  22.729  0.00  0.00    +0.000 OA
BRANCH  16  21
ATOM     18  C   UNL     1      -2.581  12.832  22.295  0.00  0.00    +0.000 A 
ATOM     19  C   UNL     1      -2.366  11.883  23.307  0.00  0.00    +0.000 A 
ATOM     20  C   UNL     1      -1.361  10.919  23.184  0.00  0.00    +0.000 A 
ATOM     21  C   UNL     1      -0.547  10.896  22.048  0.00  0.00    +0.000 A 
ATOM     22  C   UNL     1      -0.713  11.878  21.067  0.00  0.00    +0.000 A 
ATOM     23  C   UNL     1      -1.729  12.839  21.178  0.00  0.00    +0.000 A 
BRANCH  18  26
ATOM     24  C   UNL     1      -3.683  14.926  22.974  0.00  0.00    +0.000 C 
ATOM     25  O   UNL     1      -2.687  15.452  23.459  0.00  0.00    +0.000 OA
ATOM     26  N   UNL     1      -3.704  13.683  22.361  0.00  0.00    +0.000 N 
ATOM     27  H   UNL     1      -4.465  13.482  21.729  0.00  0.00    +0.000 HD
BRANCH  24  29
ATOM     28  C   UNL     1      -5.319  16.287  21.630  0.00  0.00    +0.000 C 
ATOM     29  C   UNL     1      -5.041  15.608  22.964  0.00  0.00    +0.000 C 
ENDBRANCH  24  29
ENDBRANCH  18  26
BRANCH  23  30
ATOM     30  O   UNL     1      -1.818  13.693  20.109  0.00  0.00    +0.000 OA
ATOM     31  C   UNL     1      -0.636  14.416  19.775  0.00  0.00    +0.000 C 
ENDBRANCH  23  30
ENDBRANCH  16  21
ENDBRANCH  15  16
ENDBRANCH  14  15
ENDBRANCH   1  14
BRANCH   5  32
ATOM     32  C   UNL     1       3.691   5.180  19.889  0.00  0.00    +0.000 C 
BRANCH  32  33
ATOM     33  C   UNL     1       2.988   3.826  20.006  0.00  0.00    +0.000 C 
ATOM     34  C   UNL     1       1.697   3.678  19.223  0.00  0.00    +0.000 C 
ATOM     35  C   UNL     1       0.832   2.816  20.108  0.00  0.00    +0.000 C 
ATOM     36  C   UNL     1       1.323   3.101  21.505  0.00  0.00    +0.000 C 
ATOM     37  O   UNL     1       2.617   3.695  21.402  0.00  0.00    +0.000 OA
ENDBRANCH  32  33
ENDBRANCH   5  32
TORSDOF 11
ENDMDL
MODEL 7
REMARK VINA RESULT:      -6.9      1.869      2.512
REMARK  Name = 
REMARK  13 active torsions:
REMARK  status: ('A' for Active; 'I' for Inactive)
REMARK    1  A    between atoms: C_1  and  C_2
REMARK    2  A    between atoms: C_2  and  C_3
REMARK    3  A    between atoms: N_5  and  C_6
REMARK    4  A    between atoms: C_9  and  C_10
REMARK    5  A    between atoms: C_10  and  C_12
REMARK    6  A    between atoms: C_12  and  S_13
REMARK    7  A    between atoms: S_13  and  C_14
REMARK    8  A    between atoms: C_17  and  C_18
REMARK    9  A    between atoms: C_21  and  O_22
REMARK   10  A    between atoms: N_25  and  C_26
REMARK   11  A    between atoms: C_26  and  C_27
REMARK   12  A    between atoms: C_33  and  O_34
REMARK   13  A    between atoms: O_34  and  C_35
REMARK                            x       y       z     vdW  Elec       q    Type
REMARK                         _______ _______ _______ _____ _____    ______ ____
ROOT
ATOM      1  C   UNL     1       0.972   9.362  20.918  0.00  0.00    +0.000 A 
ATOM      2  N   UNL     1       1.013   9.312  22.228  0.00  0.00    +0.000 NA
ATOM      3  N   UNL     1       0.331  10.398  22.713  0.00  0.00    +0.000 NA
ATOM      4  C   UNL     1      -0.153  11.087  21.693  0.00  0.00    +0.000 A 
ATOM      5  N   UNL     1       0.371  10.529  20.518  0.00  0.00    +0.000 N 
ENDROOT
BRANCH   4   6
ATOM      6  C   UNL     1      -1.048  12.256  21.811  0.00  0.00    +0.000 A 
ATOM      7  C   UNL     1      -0.658  13.357  22.583  0.00  0.00    +0.000 A 
ATOM      8  C   UNL     1      -1.488  14.491  22.710  0.00  0.00    +0.000 A 
ATOM      9  C   UNL     1      -2.711  14.519  22.050  0.00  0.00    +0.000 A 
ATOM     10  C   UNL     1      -3.135  13.430  21.308  0.00  0.00    +0.000 A 
ATOM     11  C   UNL     1      -2.324  12.294  21.223  0.00  0.00    +0.000 A 
BRANCH   9  12
ATOM     12  O   UNL     1      -3.544  15.595  22.116  0.00  0.00    +0.000 OA
ATOM     13  H   UNL     1      -4.463  15.286  22.067  0.00  0.00    +0.000 HD
ENDBRANCH   9  12
ENDBRANCH   4   6
BRANCH   1  14
ATOM     14  S   UNL     1       1.505   8.093  19.870  0.00  0.00    +0.000 S 
BRANCH  14  15
ATOM     15  C   UNL     1       1.927   6.755  21.030  0.00  0.00    +0.000 C 
BRANCH  15  16
ATOM     16  C   UNL     1       1.834   5.391  20.345  0.00  0.00    +0.000 C 
ATOM     17  O   UNL     1       1.091   4.485  20.720  0.00  0.00    +0.000 OA
BRANCH  16  21
ATOM     18  C   UNL     1       4.357   4.476  16.967  0.00  0.00    +0.000 A 
ATOM     19  C   UNL     1       2.999   4.122  16.975  0.00  0.00    +0.000 A 
ATOM     20  C   UNL     1       2.179   4.446  18.061  0.00  0.00    +0.000 A 
ATOM     21  C   UNL     1       2.705   5.141  19.153  0.00  0.00    +0.000 A 
ATOM     22  C   UNL     1       4.041   5.553  19.123  0.00  0.00    +0.000 A 
ATOM     23  C   UNL     1       4.872   5.218  18.043  0.00  0.00    +0.000 A 
BRANCH  18  26
ATOM     24  C   UNL     1       5.717   4.794  14.940  0.00  0.00    +0.000 C 
ATOM     25  O   UNL     1       5.563   6.009  14.864  0.00  0.00    +0.000 OA
ATOM     26  N   UNL     1       5.200   3.992  15.945  0.00  0.00    +0.000 N 
ATOM     27  H   UNL     1       5.631   3.093  16.099  0.00  0.00    +0.000 HD
BRANCH  24  29
ATOM     28  C   UNL     1       5.689   3.540  12.759  0.00  0.00    +0.000 C 
ATOM     29  C   UNL     1       6.540   4.012  13.930  0.00  0.00    +0.000 C 
ENDBRANCH  24  29
ENDBRANCH  18  26
BRANCH  23  30
ATOM     30  O   UNL     1       6.172   5.629  18.182  0.00  0.00    +0.000 OA
ATOM     31  C   UNL     1       6.751   5.474  19.476  0.00  0.00    +0.000 C 
ENDBRANCH  23  30
ENDBRANCH  16  21
ENDBRANCH  15  16
ENDBRANCH  14  15
ENDBRANCH   1  14
BRANCH   5  32
ATOM     32  C   UNL     1       0.295  11.193  19.239  0.00  0.00    +0.000 C 
BRANCH  32  33
ATOM     33  C   UNL     1       1.041  12.476  18.863  0.00  0.00    +0.000 C 
ATOM     34  C   UNL     1       2.008  13.010  19.903  0.00  0.00    +0.000 C 
ATOM     35  C   UNL     1       1.887  14.508  19.776  0.00  0.00    +0.000 C 
ATOM     36  C   UNL     1       0.486  14.729  19.262  0.00  0.00    +0.000 C 
ATOM     37  O   UNL     1       0.019  13.495  18.718  0.00  0.00    +0.000 OA
ENDBRANCH  32  33
ENDBRANCH   5  32
TORSDOF 11
ENDMDL
MODEL 8
REMARK VINA RESULT:      -6.8      2.620     11.606
REMARK  Name = 
REMARK  13 active torsions:
REMARK  status: ('A' for Active; 'I' for Inactive)
REMARK    1  A    between atoms: C_1  and  C_2
REMARK    2  A    between atoms: C_2  and  C_3
REMARK    3  A    between atoms: N_5  and  C_6
REMARK    4  A    between atoms: C_9  and  C_10
REMARK    5  A    between atoms: C_10  and  C_12
REMARK    6  A    between atoms: C_12  and  S_13
REMARK    7  A    between atoms: S_13  and  C_14
REMARK    8  A    between atoms: C_17  and  C_18
REMARK    9  A    between atoms: C_21  and  O_22
REMARK   10  A    between atoms: N_25  and  C_26
REMARK   11  A    between atoms: C_26  and  C_27
REMARK   12  A    between atoms: C_33  and  O_34
REMARK   13  A    between atoms: O_34  and  C_35
REMARK                            x       y       z     vdW  Elec       q    Type
REMARK                         _______ _______ _______ _____ _____    ______ ____
ROOT
ATOM      1  C   UNL     1       1.820   8.373  19.280  0.00  0.00    +0.000 A 
ATOM      2  N   UNL     1       2.126   9.145  18.264  0.00  0.00    +0.000 NA
ATOM      3  N   UNL     1       2.999   8.457  17.460  0.00  0.00    +0.000 NA
ATOM      4  C   UNL     1       3.192   7.254  17.974  0.00  0.00    +0.000 A 
ATOM      5  N   UNL     1       2.566   7.222  19.227  0.00  0.00    +0.000 N 
ENDROOT
BRANCH   4   6
ATOM      6  C   UNL     1       3.971   6.176  17.331  0.00  0.00    +0.000 A 
ATOM      7  C   UNL     1       3.515   4.853  17.395  0.00  0.00    +0.000 A 
ATOM      8  C   UNL     1       4.233   3.802  16.786  0.00  0.00    +0.000 A 
ATOM      9  C   UNL     1       5.408   4.086  16.101  0.00  0.00    +0.000 A 
ATOM     10  C   UNL     1       5.899   5.380  16.052  0.00  0.00    +0.000 A 
ATOM     11  C   UNL     1       5.202   6.408  16.695  0.00  0.00    +0.000 A 
BRANCH   9  12
ATOM     12  O   UNL     1       6.132   3.117  15.473  0.00  0.00    +0.000 OA
ATOM     13  H   UNL     1       6.094   2.303  16.002  0.00  0.00    +0.000 HD
ENDBRANCH   9  12
ENDBRANCH   4   6
BRANCH   1  14
ATOM     14  S   UNL     1       0.587   8.722  20.441  0.00  0.00    +0.000 S 
BRANCH  14  15
ATOM     15  C   UNL     1      -0.237  10.185  19.735  0.00  0.00    +0.000 C 
BRANCH  15  16
ATOM     16  C   UNL     1      -0.307  11.318  20.760  0.00  0.00    +0.000 C 
ATOM     17  O   UNL     1       0.676  11.775  21.343  0.00  0.00    +0.000 OA
BRANCH  16  21
ATOM     18  C   UNL     1      -4.111  13.166  21.608  0.00  0.00    +0.000 A 
ATOM     19  C   UNL     1      -3.751  12.815  20.298  0.00  0.00    +0.000 A 
ATOM     20  C   UNL     1      -2.529  12.191  20.032  0.00  0.00    +0.000 A 
ATOM     21  C   UNL     1      -1.650  11.897  21.078  0.00  0.00    +0.000 A 
ATOM     22  C   UNL     1      -2.030  12.185  22.393  0.00  0.00    +0.000 A 
ATOM     23  C   UNL     1      -3.249  12.825  22.664  0.00  0.00    +0.000 A 
BRANCH  18  26
ATOM     24  C   UNL     1      -6.500  13.403  22.154  0.00  0.00    +0.000 C 
ATOM     25  O   UNL     1      -6.713  12.211  22.347  0.00  0.00    +0.000 OA
ATOM     26  N   UNL     1      -5.266  13.945  21.832  0.00  0.00    +0.000 N 
ATOM     27  H   UNL     1      -5.124  14.930  22.004  0.00  0.00    +0.000 HD
BRANCH  24  29
ATOM     28  C   UNL     1      -7.010  15.862  22.316  0.00  0.00    +0.000 C 
ATOM     29  C   UNL     1      -7.589  14.456  22.275  0.00  0.00    +0.000 C 
ENDBRANCH  24  29
ENDBRANCH  18  26
BRANCH  23  30
ATOM     30  O   UNL     1      -3.456  13.107  23.989  0.00  0.00    +0.000 OA
ATOM     31  C   UNL     1      -2.653  14.142  24.551  0.00  0.00    +0.000 C 
ENDBRANCH  23  30
ENDBRANCH  16  21
ENDBRANCH  15  16
ENDBRANCH  14  15
ENDBRANCH   1  14
BRANCH   5  32
ATOM     32  C   UNL     1       2.810   6.179  20.195  0.00  0.00    +0.000 C 
BRANCH  32  33
ATOM     33  C   UNL     1       1.760   5.194  20.716  0.00  0.00    +0.000 C 
ATOM     34  C   UNL     1       2.292   4.012  21.503  0.00  0.00    +0.000 C 
ATOM     35  C   UNL     1       1.376   2.878  21.119  0.00  0.00    +0.000 C 
ATOM     36  C   UNL     1       0.893   3.237  19.736  0.00  0.00    +0.000 C 
ATOM     37  O   UNL     1       1.132   4.630  19.537  0.00  0.00    +0.000 OA
ENDBRANCH  32  33
ENDBRANCH   5  32
TORSDOF 11
ENDMDL
MODEL 9
REMARK VINA RESULT:      -6.8      7.080      9.679
REMARK  Name = 
REMARK  13 active torsions:
REMARK  status: ('A' for Active; 'I' for Inactive)
REMARK    1  A    between atoms: C_1  and  C_2
REMARK    2  A    between atoms: C_2  and  C_3
REMARK    3  A    between atoms: N_5  and  C_6
REMARK    4  A    between atoms: C_9  and  C_10
REMARK    5  A    between atoms: C_10  and  C_12
REMARK    6  A    between atoms: C_12  and  S_13
REMARK    7  A    between atoms: S_13  and  C_14
REMARK    8  A    between atoms: C_17  and  C_18
REMARK    9  A    between atoms: C_21  and  O_22
REMARK   10  A    between atoms: N_25  and  C_26
REMARK   11  A    between atoms: C_26  and  C_27
REMARK   12  A    between atoms: C_33  and  O_34
REMARK   13  A    between atoms: O_34  and  C_35
REMARK                            x       y       z     vdW  Elec       q    Type
REMARK                         _______ _______ _______ _____ _____    ______ ____
ROOT
ATOM      1  C   UNL     1       8.988  10.735  19.120  0.00  0.00    +0.000 A 
ATOM      2  N   UNL     1       9.423  10.235  20.252  0.00  0.00    +0.000 NA
ATOM      3  N   UNL     1       9.617  11.274  21.126  0.00  0.00    +0.000 NA
ATOM      4  C   UNL     1       9.263  12.401  20.530  0.00  0.00    +0.000 A 
ATOM      5  N   UNL     1       8.997  12.105  19.186  0.00  0.00    +0.000 N 
ENDROOT
BRANCH   4   6
ATOM      6  C   UNL     1       9.212  13.724  21.187  0.00  0.00    +0.000 A 
ATOM      7  C   UNL     1      10.368  14.511  21.259  0.00  0.00    +0.000 A 
ATOM      8  C   UNL     1      10.349  15.782  21.873  0.00  0.00    +0.000 A 
ATOM      9  C   UNL     1       9.160  16.263  22.408  0.00  0.00    +0.000 A 
ATOM     10  C   UNL     1       8.011  15.490  22.380  0.00  0.00    +0.000 A 
ATOM     11  C   UNL     1       8.050  14.216  21.806  0.00  0.00    +0.000 A 
BRANCH   9  12
ATOM     12  O   UNL     1       9.075  17.491  22.992  0.00  0.00    +0.000 OA
ATOM     13  H   UNL     1       8.164  17.633  23.297  0.00  0.00    +0.000 HD
ENDBRANCH   9  12
ENDBRANCH   4   6
BRANCH   1  14
ATOM     14  S   UNL     1       8.397   9.794  17.795  0.00  0.00    +0.000 S 
BRANCH  14  15
ATOM     15  C   UNL     1       8.216   8.134  18.520  0.00  0.00    +0.000 C 
BRANCH  15  16
ATOM     16  C   UNL     1       7.501   7.191  17.551  0.00  0.00    +0.000 C 
ATOM     17  O   UNL     1       7.831   7.039  16.375  0.00  0.00    +0.000 OA
BRANCH  16  21
ATOM     18  C   UNL     1       4.151   4.819  18.875  0.00  0.00    +0.000 A 
ATOM     19  C   UNL     1       5.468   4.458  19.199  0.00  0.00    +0.000 A 
ATOM     20  C   UNL     1       6.549   5.246  18.791  0.00  0.00    +0.000 A 
ATOM     21  C   UNL     1       6.326   6.416  18.060  0.00  0.00    +0.000 A 
ATOM     22  C   UNL     1       5.013   6.815  17.790  0.00  0.00    +0.000 A 
ATOM     23  C   UNL     1       3.926   6.021  18.184  0.00  0.00    +0.000 A 
BRANCH  18  26
ATOM     24  C   UNL     1       2.097   4.184  20.076  0.00  0.00    +0.000 C 
ATOM     25  O   UNL     1       1.981   5.229  20.706  0.00  0.00    +0.000 OA
ATOM     26  N   UNL     1       3.094   3.925  19.147  0.00  0.00    +0.000 N 
ATOM     27  H   UNL     1       2.928   3.196  18.469  0.00  0.00    +0.000 HD
BRANCH  24  29
ATOM     28  C   UNL     1       0.687   2.483  18.871  0.00  0.00    +0.000 C 
ATOM     29  C   UNL     1       1.120   3.030  20.224  0.00  0.00    +0.000 C 
ENDBRANCH  24  29
ENDBRANCH  18  26
BRANCH  23  30
ATOM     30  O   UNL     1       2.704   6.502  17.791  0.00  0.00    +0.000 OA
ATOM     31  C   UNL     1       2.542   7.918  17.813  0.00  0.00    +0.000 C 
ENDBRANCH  23  30
ENDBRANCH  16  21
ENDBRANCH  15  16
ENDBRANCH  14  15
ENDBRANCH   1  14
BRANCH   5  32
ATOM     32  C   UNL     1       8.866  13.126  18.174  0.00  0.00    +0.000 C 
BRANCH  32  33
ATOM     33  C   UNL     1       9.976  13.568  17.216  0.00  0.00    +0.000 C 
ATOM     34  C   UNL     1      11.292  12.824  17.337  0.00  0.00    +0.000 C 
ATOM     35  C   UNL     1      12.333  13.882  17.068  0.00  0.00    +0.000 C 
ATOM     36  C   UNL     1      11.677  15.171  17.495  0.00  0.00    +0.000 C 
ATOM     37  O   UNL     1      10.270  14.945  17.563  0.00  0.00    +0.000 OA
ENDBRANCH  32  33
ENDBRANCH   5  32
TORSDOF 11
ENDMDL
