MODEL 1
REMARK VINA RESULT:      -7.6      0.000      0.000
REMARK  Name = 
REMARK  8 active torsions:
REMARK  status: ('A' for Active; 'I' for Inactive)
REMARK    1  A    between atoms: C_1  and  C_2
REMARK    2  A    between atoms: C_2  and  C_3
REMARK    3  A    between atoms: C_4  and  C_5
REMARK    4  A    between atoms: N_7  and  C_8
REMARK    5  A    between atoms: C_8  and  C_9
REMARK    6  A    between atoms: C_12  and  C_13
REMARK    7  A    between atoms: C_13  and  O_15
REMARK    8  A    between atoms: C_18  and  C_19
REMARK                            x       y       z     vdW  Elec       q    Type
REMARK                         _______ _______ _______ _____ _____    ______ ____
ROOT
ATOM      1  C   UNL     1       1.955   6.289  19.905  0.00  0.00    +0.000 C 
ATOM      2  O   UNL     1       1.358   5.779  20.844  0.00  0.00    +0.000 OA
ATOM      3  N   UNL     1       2.015   7.642  19.673  0.00  0.00    +0.000 N 
ATOM      4  H   UNL     1       2.681   7.981  18.993  0.00  0.00    +0.000 HD
ENDROOT
BRANCH   1   8
ATOM      5  C   UNL     1       3.035   3.447  20.548  0.00  0.00    +0.000 C 
ATOM      6  C   UNL     1       3.177   4.056  19.172  0.00  0.00    +0.000 C 
ATOM      7  C   UNL     1       3.093   3.025  18.064  0.00  0.00    +0.000 C 
ATOM      8  C   UNL     1       2.676   5.469  18.879  0.00  0.00    +0.000 C 
ATOM      9  C   UNL     1       4.168   5.217  19.013  0.00  0.00    +0.000 C 
BRANCH   9  10
ATOM     10  C   UNL     1       5.102   5.225  17.810  0.00  0.00    +0.000 A 
ATOM     11  C   UNL     1       4.734   5.763  16.562  0.00  0.00    +0.000 A 
ATOM     12  C   UNL     1       5.578   5.670  15.449  0.00  0.00    +0.000 A 
ATOM     13  C   UNL     1       6.815   5.059  15.576  0.00  0.00    +0.000 A 
ATOM     14  F   UNL     1       7.613   4.944  14.508  0.00  0.00    +0.000 F 
ATOM     15  C   UNL     1       7.230   4.558  16.803  0.00  0.00    +0.000 A 
ATOM     16  C   UNL     1       6.382   4.647  17.906  0.00  0.00    +0.000 A 
ENDBRANCH   9  10
ENDBRANCH   1   8
BRANCH   3  17
ATOM     17  C   UNL     1       1.326   8.624  20.497  0.00  0.00    +0.000 C 
BRANCH  17  18
ATOM     18  C   UNL     1       1.431  10.027  19.867  0.00  0.00    +0.000 C 
ATOM     19  C   UNL     1       0.986  10.044  18.395  0.00  0.00    +0.000 C 
ATOM     20  C   UNL     1      -0.527   9.914  18.226  0.00  0.00    +0.000 C 
ATOM     21  C   UNL     1      -1.296  10.980  19.007  0.00  0.00    +0.000 C 
ATOM     22  C   UNL     1      -0.847  11.072  20.471  0.00  0.00    +0.000 C 
ATOM     23  C   UNL     1       0.671  11.095  20.665  0.00  0.00    +0.000 C 
BRANCH  21  24
ATOM     24  C   UNL     1      -1.205  12.325  18.297  0.00  0.00    +0.000 C 
ATOM     25  O   UNL     1      -0.779  13.355  18.796  0.00  0.00    +0.000 OA
BRANCH  24  26
ATOM     26  O   UNL     1      -1.619  12.277  17.009  0.00  0.00    +0.000 OA
ATOM     27  H   UNL     1      -0.914  12.074  16.366  0.00  0.00    +0.000 HD
ENDBRANCH  24  26
ENDBRANCH  21  24
ENDBRANCH  17  18
ENDBRANCH   3  17
TORSDOF 6
ENDMDL
MODEL 2
REMARK VINA RESULT:      -7.6      3.903      8.743
REMARK  Name = 
REMARK  8 active torsions:
REMARK  status: ('A' for Active; 'I' for Inactive)
REMARK    1  A    between atoms: C_1  and  C_2
REMARK    2  A    between atoms: C_2  and  C_3
REMARK    3  A    between atoms: C_4  and  C_5
REMARK    4  A    between atoms: N_7  and  C_8
REMARK    5  A    between atoms: C_8  and  C_9
REMARK    6  A    between atoms: C_12  and  C_13
REMARK    7  A    between atoms: C_13  and  O_15
REMARK    8  A    between atoms: C_18  and  C_19
REMARK                            x       y       z     vdW  Elec       q    Type
REMARK                         _______ _______ _______ _____ _____    ______ ____
ROOT
ATOM      1  C   UNL     1       1.635   8.516  19.485  0.00  0.00    +0.000 C 
ATOM      2  O   UNL     1       1.688   8.399  20.702  0.00  0.00    +0.000 OA
ATOM      3  N   UNL     1       2.244   7.660  18.600  0.00  0.00    +0.000 N 
ATOM      4  H   UNL     1       1.990   7.721  17.624  0.00  0.00    +0.000 HD
ENDROOT
BRANCH   1   8
ATOM      5  C   UNL     1       1.226  11.252  20.902  0.00  0.00    +0.000 C 
ATOM      6  C   UNL     1       0.729  11.006  19.495  0.00  0.00    +0.000 C 
ATOM      7  C   UNL     1       0.800  12.246  18.625  0.00  0.00    +0.000 C 
ATOM      8  C   UNL     1       0.903   9.645  18.824  0.00  0.00    +0.000 C 
ATOM      9  C   UNL     1      -0.469  10.063  19.324  0.00  0.00    +0.000 C 
BRANCH   9  10
ATOM     10  C   UNL     1      -1.590  10.465  18.374  0.00  0.00    +0.000 A 
ATOM     11  C   UNL     1      -2.597  11.383  18.726  0.00  0.00    +0.000 A 
ATOM     12  C   UNL     1      -3.666  11.661  17.867  0.00  0.00    +0.000 A 
ATOM     13  C   UNL     1      -3.729  11.040  16.629  0.00  0.00    +0.000 A 
ATOM     14  F   UNL     1      -4.764  11.283  15.816  0.00  0.00    +0.000 F 
ATOM     15  C   UNL     1      -2.729  10.164  16.230  0.00  0.00    +0.000 A 
ATOM     16  C   UNL     1      -1.671   9.886  17.093  0.00  0.00    +0.000 A 
ENDBRANCH   9  10
ENDBRANCH   1   8
BRANCH   3  17
ATOM     17  C   UNL     1       3.070   6.537  19.018  0.00  0.00    +0.000 C 
BRANCH  17  18
ATOM     18  C   UNL     1       3.681   5.831  17.792  0.00  0.00    +0.000 C 
ATOM     19  C   UNL     1       4.529   6.780  16.929  0.00  0.00    +0.000 C 
ATOM     20  C   UNL     1       5.865   7.143  17.576  0.00  0.00    +0.000 C 
ATOM     21  C   UNL     1       6.690   5.911  17.945  0.00  0.00    +0.000 C 
ATOM     22  C   UNL     1       5.880   4.882  18.744  0.00  0.00    +0.000 C 
ATOM     23  C   UNL     1       4.494   4.584  18.169  0.00  0.00    +0.000 C 
BRANCH  21  24
ATOM     24  C   UNL     1       7.317   5.300  16.698  0.00  0.00    +0.000 C 
ATOM     25  O   UNL     1       7.357   5.833  15.600  0.00  0.00    +0.000 OA
BRANCH  24  26
ATOM     26  O   UNL     1       7.875   4.088  16.922  0.00  0.00    +0.000 OA
ATOM     27  H   UNL     1       7.297   3.457  17.390  0.00  0.00    +0.000 HD
ENDBRANCH  24  26
ENDBRANCH  21  24
ENDBRANCH  17  18
ENDBRANCH   3  17
TORSDOF 6
ENDMDL
MODEL 3
REMARK VINA RESULT:      -7.6      3.729      8.752
REMARK  Name = 
REMARK  8 active torsions:
REMARK  status: ('A' for Active; 'I' for Inactive)
REMARK    1  A    between atoms: C_1  and  C_2
REMARK    2  A    between atoms: C_2  and  C_3
REMARK    3  A    between atoms: C_4  and  C_5
REMARK    4  A    between atoms: N_7  and  C_8
REMARK    5  A    between atoms: C_8  and  C_9
REMARK    6  A    between atoms: C_12  and  C_13
REMARK    7  A    between atoms: C_13  and  O_15
REMARK    8  A    between atoms: C_18  and  C_19
REMARK                            x       y       z     vdW  Elec       q    Type
REMARK                         _______ _______ _______ _____ _____    ______ ____
ROOT
ATOM      1  C   UNL     1       1.636   8.586  19.274  0.00  0.00    +0.000 C 
ATOM      2  O   UNL     1       1.607   8.324  20.469  0.00  0.00    +0.000 OA
ATOM      3  N   UNL     1       2.425   7.931  18.360  0.00  0.00    +0.000 N 
ATOM      4  H   UNL     1       2.245   8.083  17.377  0.00  0.00    +0.000 HD
ENDROOT
BRANCH   1   8
ATOM      5  C   UNL     1       1.166  11.268  20.774  0.00  0.00    +0.000 C 
ATOM      6  C   UNL     1       0.607  11.025  19.390  0.00  0.00    +0.000 C 
ATOM      7  C   UNL     1       0.568  12.284  18.546  0.00  0.00    +0.000 C 
ATOM      8  C   UNL     1       0.813   9.689  18.679  0.00  0.00    +0.000 C 
ATOM      9  C   UNL     1      -0.549  10.025  19.261  0.00  0.00    +0.000 C 
BRANCH   9  10
ATOM     10  C   UNL     1      -1.738  10.388  18.381  0.00  0.00    +0.000 A 
ATOM     11  C   UNL     1      -1.876   9.932  17.057  0.00  0.00    +0.000 A 
ATOM     12  C   UNL     1      -2.930  10.359  16.242  0.00  0.00    +0.000 A 
ATOM     13  C   UNL     1      -3.879  11.232  16.751  0.00  0.00    +0.000 A 
ATOM     14  F   UNL     1      -4.873  11.664  15.966  0.00  0.00    +0.000 F 
ATOM     15  C   UNL     1      -3.801  11.667  18.068  0.00  0.00    +0.000 A 
ATOM     16  C   UNL     1      -2.745  11.243  18.872  0.00  0.00    +0.000 A 
ENDBRANCH   9  10
ENDBRANCH   1   8
BRANCH   3  17
ATOM     17  C   UNL     1       3.360   6.877  18.724  0.00  0.00    +0.000 C 
BRANCH  17  18
ATOM     18  C   UNL     1       3.135   5.629  17.847  0.00  0.00    +0.000 C 
ATOM     19  C   UNL     1       4.257   4.590  18.007  0.00  0.00    +0.000 C 
ATOM     20  C   UNL     1       4.202   3.851  19.343  0.00  0.00    +0.000 C 
ATOM     21  C   UNL     1       2.848   3.184  19.587  0.00  0.00    +0.000 C 
ATOM     22  C   UNL     1       1.674   4.147  19.369  0.00  0.00    +0.000 C 
ATOM     23  C   UNL     1       1.767   4.975  18.085  0.00  0.00    +0.000 C 
BRANCH  21  24
ATOM     24  C   UNL     1       2.718   1.924  18.739  0.00  0.00    +0.000 C 
ATOM     25  O   UNL     1       3.653   1.247  18.340  0.00  0.00    +0.000 OA
BRANCH  24  26
ATOM     26  O   UNL     1       1.433   1.584  18.485  0.00  0.00    +0.000 OA
ATOM     27  H   UNL     1       1.206   0.663  18.711  0.00  0.00    +0.000 HD
ENDBRANCH  24  26
ENDBRANCH  21  24
ENDBRANCH  17  18
ENDBRANCH   3  17
TORSDOF 6
ENDMDL
MODEL 4
REMARK VINA RESULT:      -7.6      1.363      1.727
REMARK  Name = 
REMARK  8 active torsions:
REMARK  status: ('A' for Active; 'I' for Inactive)
REMARK    1  A    between atoms: C_1  and  C_2
REMARK    2  A    between atoms: C_2  and  C_3
REMARK    3  A    between atoms: C_4  and  C_5
REMARK    4  A    between atoms: N_7  and  C_8
REMARK    5  A    between atoms: C_8  and  C_9
REMARK    6  A    between atoms: C_12  and  C_13
REMARK    7  A    between atoms: C_13  and  O_15
REMARK    8  A    between atoms: C_18  and  C_19
REMARK                            x       y       z     vdW  Elec       q    Type
REMARK                         _______ _______ _______ _____ _____    ______ ____
ROOT
ATOM      1  C   UNL     1       1.665   4.934  19.971  0.00  0.00    +0.000 C 
ATOM      2  O   UNL     1       0.729   4.321  20.465  0.00  0.00    +0.000 OA
ATOM      3  N   UNL     1       1.956   6.249  20.244  0.00  0.00    +0.000 N 
ATOM      4  H   UNL     1       2.849   6.613  19.943  0.00  0.00    +0.000 HD
ENDROOT
BRANCH   1   8
ATOM      5  C   UNL     1       3.468   2.516  20.723  0.00  0.00    +0.000 C 
ATOM      6  C   UNL     1       3.458   3.093  19.326  0.00  0.00    +0.000 C 
ATOM      7  C   UNL     1       3.671   2.039  18.257  0.00  0.00    +0.000 C 
ATOM      8  C   UNL     1       2.596   4.306  18.978  0.00  0.00    +0.000 C 
ATOM      9  C   UNL     1       4.098   4.473  19.127  0.00  0.00    +0.000 C 
BRANCH   9  10
ATOM     10  C   UNL     1       5.011   4.693  17.927  0.00  0.00    +0.000 A 
ATOM     11  C   UNL     1       4.526   5.041  16.652  0.00  0.00    +0.000 A 
ATOM     12  C   UNL     1       5.379   5.142  15.548  0.00  0.00    +0.000 A 
ATOM     13  C   UNL     1       6.737   4.920  15.709  0.00  0.00    +0.000 A 
ATOM     14  F   UNL     1       7.553   4.989  14.650  0.00  0.00    +0.000 F 
ATOM     15  C   UNL     1       7.258   4.619  16.961  0.00  0.00    +0.000 A 
ATOM     16  C   UNL     1       6.402   4.513  18.056  0.00  0.00    +0.000 A 
ENDBRANCH   9  10
ENDBRANCH   1   8
BRANCH   3  17
ATOM     17  C   UNL     1       1.144   7.079  21.120  0.00  0.00    +0.000 C 
BRANCH  17  18
ATOM     18  C   UNL     1       1.643   8.538  21.097  0.00  0.00    +0.000 C 
ATOM     19  C   UNL     1       1.145   9.309  19.862  0.00  0.00    +0.000 C 
ATOM     20  C   UNL     1      -0.341   9.656  19.934  0.00  0.00    +0.000 C 
ATOM     21  C   UNL     1      -0.700  10.432  21.201  0.00  0.00    +0.000 C 
ATOM     22  C   UNL     1      -0.166   9.758  22.471  0.00  0.00    +0.000 C 
ATOM     23  C   UNL     1       1.294   9.305  22.380  0.00  0.00    +0.000 C 
BRANCH  21  24
ATOM     24  C   UNL     1      -0.237  11.879  21.085  0.00  0.00    +0.000 C 
ATOM     25  O   UNL     1       0.412  12.478  21.929  0.00  0.00    +0.000 OA
BRANCH  24  26
ATOM     26  O   UNL     1      -0.588  12.459  19.913  0.00  0.00    +0.000 OA
ATOM     27  H   UNL     1      -0.490  13.429  19.897  0.00  0.00    +0.000 HD
ENDBRANCH  24  26
ENDBRANCH  21  24
ENDBRANCH  17  18
ENDBRANCH   3  17
TORSDOF 6
ENDMDL
MODEL 5
REMARK VINA RESULT:      -7.6      3.754      8.894
REMARK  Name = 
REMARK  8 active torsions:
REMARK  status: ('A' for Active; 'I' for Inactive)
REMARK    1  A    between atoms: C_1  and  C_2
REMARK    2  A    between atoms: C_2  and  C_3
REMARK    3  A    between atoms: C_4  and  C_5
REMARK    4  A    between atoms: N_7  and  C_8
REMARK    5  A    between atoms: C_8  and  C_9
REMARK    6  A    between atoms: C_12  and  C_13
REMARK    7  A    between atoms: C_13  and  O_15
REMARK    8  A    between atoms: C_18  and  C_19
REMARK                            x       y       z     vdW  Elec       q    Type
REMARK                         _______ _______ _______ _____ _____    ______ ____
ROOT
ATOM      1  C   UNL     1       1.546   8.655  19.109  0.00  0.00    +0.000 C 
ATOM      2  O   UNL     1       1.562   8.327  20.287  0.00  0.00    +0.000 OA
ATOM      3  N   UNL     1       2.263   8.022  18.122  0.00  0.00    +0.000 N 
ATOM      4  H   UNL     1       2.044   8.237  17.160  0.00  0.00    +0.000 HD
ENDROOT
BRANCH   1   8
ATOM      5  C   UNL     1       1.198  11.234  20.808  0.00  0.00    +0.000 C 
ATOM      6  C   UNL     1       0.598  11.109  19.426  0.00  0.00    +0.000 C 
ATOM      7  C   UNL     1       0.578  12.426  18.675  0.00  0.00    +0.000 C 
ATOM      8  C   UNL     1       0.744   9.822  18.616  0.00  0.00    +0.000 C 
ATOM      9  C   UNL     1      -0.592  10.155  19.257  0.00  0.00    +0.000 C 
BRANCH   9  10
ATOM     10  C   UNL     1      -1.791  10.615  18.437  0.00  0.00    +0.000 A 
ATOM     11  C   UNL     1      -2.789  11.463  18.954  0.00  0.00    +0.000 A 
ATOM     12  C   UNL     1      -3.927  11.792  18.209  0.00  0.00    +0.000 A 
ATOM     13  C   UNL     1      -4.070  11.296  16.922  0.00  0.00    +0.000 A 
ATOM     14  F   UNL     1      -5.169  11.586  16.216  0.00  0.00    +0.000 F 
ATOM     15  C   UNL     1      -3.083  10.494  16.363  0.00  0.00    +0.000 A 
ATOM     16  C   UNL     1      -1.956  10.164  17.113  0.00  0.00    +0.000 A 
ENDBRANCH   9  10
ENDBRANCH   1   8
BRANCH   3  17
ATOM     17  C   UNL     1       3.169   6.914  18.382  0.00  0.00    +0.000 C 
BRANCH  17  18
ATOM     18  C   UNL     1       2.488   5.571  18.048  0.00  0.00    +0.000 C 
ATOM     19  C   UNL     1       3.426   4.607  17.303  0.00  0.00    +0.000 C 
ATOM     20  C   UNL     1       4.508   4.010  18.203  0.00  0.00    +0.000 C 
ATOM     21  C   UNL     1       3.927   3.312  19.432  0.00  0.00    +0.000 C 
ATOM     22  C   UNL     1       2.919   4.192  20.183  0.00  0.00    +0.000 C 
ATOM     23  C   UNL     1       1.892   4.884  19.285  0.00  0.00    +0.000 C 
BRANCH  21  24
ATOM     24  C   UNL     1       3.329   1.965  19.043  0.00  0.00    +0.000 C 
ATOM     25  O   UNL     1       2.144   1.678  19.109  0.00  0.00    +0.000 OA
BRANCH  24  26
ATOM     26  O   UNL     1       4.248   1.092  18.570  0.00  0.00    +0.000 OA
ATOM     27  H   UNL     1       4.861   0.745  19.245  0.00  0.00    +0.000 HD
ENDBRANCH  24  26
ENDBRANCH  21  24
ENDBRANCH  17  18
ENDBRANCH   3  17
TORSDOF 6
ENDMDL
MODEL 6
REMARK VINA RESULT:      -7.6      6.404      7.934
REMARK  Name = 
REMARK  8 active torsions:
REMARK  status: ('A' for Active; 'I' for Inactive)
REMARK    1  A    between atoms: C_1  and  C_2
REMARK    2  A    between atoms: C_2  and  C_3
REMARK    3  A    between atoms: C_4  and  C_5
REMARK    4  A    between atoms: N_7  and  C_8
REMARK    5  A    between atoms: C_8  and  C_9
REMARK    6  A    between atoms: C_12  and  C_13
REMARK    7  A    between atoms: C_13  and  O_15
REMARK    8  A    between atoms: C_18  and  C_19
REMARK                            x       y       z     vdW  Elec       q    Type
REMARK                         _______ _______ _______ _____ _____    ______ ____
ROOT
ATOM      1  C   UNL     1       7.985   7.491  18.191  0.00  0.00    +0.000 C 
ATOM      2  O   UNL     1       8.434   6.764  19.067  0.00  0.00    +0.000 OA
ATOM      3  N   UNL     1       8.273   8.830  18.078  0.00  0.00    +0.000 N 
ATOM      4  H   UNL     1       8.013   9.303  17.224  0.00  0.00    +0.000 HD
ENDROOT
BRANCH   1   8
ATOM      5  C   UNL     1       5.469   5.825  18.935  0.00  0.00    +0.000 C 
ATOM      6  C   UNL     1       5.775   6.202  17.504  0.00  0.00    +0.000 C 
ATOM      7  C   UNL     1       4.523   6.447  16.683  0.00  0.00    +0.000 C 
ATOM      8  C   UNL     1       7.035   6.989  17.147  0.00  0.00    +0.000 C 
ATOM      9  C   UNL     1       6.964   5.505  16.829  0.00  0.00    +0.000 C 
BRANCH   9  10
ATOM     10  C   UNL     1       6.800   4.989  15.405  0.00  0.00    +0.000 A 
ATOM     11  C   UNL     1       5.909   3.953  15.066  0.00  0.00    +0.000 A 
ATOM     12  C   UNL     1       5.850   3.436  13.767  0.00  0.00    +0.000 A 
ATOM     13  C   UNL     1       6.666   3.966  12.781  0.00  0.00    +0.000 A 
ATOM     14  F   UNL     1       6.632   3.456  11.544  0.00  0.00    +0.000 F 
ATOM     15  C   UNL     1       7.525   5.019  13.068  0.00  0.00    +0.000 A 
ATOM     16  C   UNL     1       7.585   5.525  14.365  0.00  0.00    +0.000 A 
ENDBRANCH   9  10
ENDBRANCH   1   8
BRANCH   3  17
ATOM     17  C   UNL     1       9.111   9.548  19.025  0.00  0.00    +0.000 C 
BRANCH  17  18
ATOM     18  C   UNL     1       9.182  11.043  18.659  0.00  0.00    +0.000 C 
ATOM     19  C   UNL     1       9.120  11.955  19.895  0.00  0.00    +0.000 C 
ATOM     20  C   UNL     1      10.410  11.937  20.715  0.00  0.00    +0.000 C 
ATOM     21  C   UNL     1      11.640  12.291  19.878  0.00  0.00    +0.000 C 
ATOM     22  C   UNL     1      11.723  11.471  18.585  0.00  0.00    +0.000 C 
ATOM     23  C   UNL     1      10.409  11.388  17.804  0.00  0.00    +0.000 C 
BRANCH  21  24
ATOM     24  C   UNL     1      11.682  13.790  19.607  0.00  0.00    +0.000 C 
ATOM     25  O   UNL     1      12.084  14.306  18.576  0.00  0.00    +0.000 OA
BRANCH  24  26
ATOM     26  O   UNL     1      11.189  14.530  20.628  0.00  0.00    +0.000 OA
ATOM     27  H   UNL     1      10.305  14.908  20.462  0.00  0.00    +0.000 HD
ENDBRANCH  24  26
ENDBRANCH  21  24
ENDBRANCH  17  18
ENDBRANCH   3  17
TORSDOF 6
ENDMDL
MODEL 7
REMARK VINA RESULT:      -7.6      1.417      2.127
REMARK  Name = 
REMARK  8 active torsions:
REMARK  status: ('A' for Active; 'I' for Inactive)
REMARK    1  A    between atoms: C_1  and  C_2
REMARK    2  A    between atoms: C_2  and  C_3
REMARK    3  A    between atoms: C_4  and  C_5
REMARK    4  A    between atoms: N_7  and  C_8
REMARK    5  A    between atoms: C_8  and  C_9
REMARK    6  A    between atoms: C_12  and  C_13
REMARK    7  A    between atoms: C_13  and  O_15
REMARK    8  A    between atoms: C_18  and  C_19
REMARK                            x       y       z     vdW  Elec       q    Type
REMARK                         _______ _______ _______ _____ _____    ______ ____
ROOT
ATOM      1  C   UNL     1       2.023   5.762  20.128  0.00  0.00    +0.000 C 
ATOM      2  O   UNL     1       1.194   5.180  20.813  0.00  0.00    +0.000 OA
ATOM      3  N   UNL     1       2.390   7.074  20.309  0.00  0.00    +0.000 N 
ATOM      4  H   UNL     1       3.211   7.411  19.826  0.00  0.00    +0.000 HD
ENDROOT
BRANCH   1   8
ATOM      5  C   UNL     1       3.176   2.886  20.365  0.00  0.00    +0.000 C 
ATOM      6  C   UNL     1       3.257   3.668  19.074  0.00  0.00    +0.000 C 
ATOM      7  C   UNL     1       3.149   2.783  17.846  0.00  0.00    +0.000 C 
ATOM      8  C   UNL     1       2.720   5.095  18.981  0.00  0.00    +0.000 C 
ATOM      9  C   UNL     1       4.220   4.861  19.030  0.00  0.00    +0.000 C 
BRANCH   9  10
ATOM     10  C   UNL     1       5.109   5.042  17.806  0.00  0.00    +0.000 A 
ATOM     11  C   UNL     1       4.692   5.740  16.657  0.00  0.00    +0.000 A 
ATOM     12  C   UNL     1       5.494   5.807  15.512  0.00  0.00    +0.000 A 
ATOM     13  C   UNL     1       6.739   5.198  15.510  0.00  0.00    +0.000 A 
ATOM     14  F   UNL     1       7.497   5.238  14.408  0.00  0.00    +0.000 F 
ATOM     15  C   UNL     1       7.202   4.540  16.642  0.00  0.00    +0.000 A 
ATOM     16  C   UNL     1       6.396   4.470  17.777  0.00  0.00    +0.000 A 
ENDBRANCH   9  10
ENDBRANCH   1   8
BRANCH   3  17
ATOM     17  C   UNL     1       1.789   7.938  21.314  0.00  0.00    +0.000 C 
BRANCH  17  18
ATOM     18  C   UNL     1       0.461   8.524  20.797  0.00  0.00    +0.000 C 
ATOM     19  C   UNL     1      -0.577   8.706  21.917  0.00  0.00    +0.000 C 
ATOM     20  C   UNL     1      -0.250   9.869  22.852  0.00  0.00    +0.000 C 
ATOM     21  C   UNL     1      -0.069  11.189  22.102  0.00  0.00    +0.000 C 
ATOM     22  C   UNL     1       0.897  11.062  20.918  0.00  0.00    +0.000 C 
ATOM     23  C   UNL     1       0.652   9.840  20.030  0.00  0.00    +0.000 C 
BRANCH  21  24
ATOM     24  C   UNL     1      -1.423  11.746  21.677  0.00  0.00    +0.000 C 
ATOM     25  O   UNL     1      -1.727  12.054  20.535  0.00  0.00    +0.000 OA
BRANCH  24  26
ATOM     26  O   UNL     1      -2.304  11.843  22.699  0.00  0.00    +0.000 OA
ATOM     27  H   UNL     1      -3.228  11.648  22.456  0.00  0.00    +0.000 HD
ENDBRANCH  24  26
ENDBRANCH  21  24
ENDBRANCH  17  18
ENDBRANCH   3  17
TORSDOF 6
ENDMDL
MODEL 8
REMARK VINA RESULT:      -7.5      3.728      8.723
REMARK  Name = 
REMARK  8 active torsions:
REMARK  status: ('A' for Active; 'I' for Inactive)
REMARK    1  A    between atoms: C_1  and  C_2
REMARK    2  A    between atoms: C_2  and  C_3
REMARK    3  A    between atoms: C_4  and  C_5
REMARK    4  A    between atoms: N_7  and  C_8
REMARK    5  A    between atoms: C_8  and  C_9
REMARK    6  A    between atoms: C_12  and  C_13
REMARK    7  A    between atoms: C_13  and  O_15
REMARK    8  A    between atoms: C_18  and  C_19
REMARK                            x       y       z     vdW  Elec       q    Type
REMARK                         _______ _______ _______ _____ _____    ______ ____
ROOT
ATOM      1  C   UNL     1       1.453   8.583  19.810  0.00  0.00    +0.000 C 
ATOM      2  O   UNL     1       1.343   8.460  21.022  0.00  0.00    +0.000 OA
ATOM      3  N   UNL     1       2.219   7.763  19.017  0.00  0.00    +0.000 N 
ATOM      4  H   UNL     1       2.100   7.820  18.016  0.00  0.00    +0.000 HD
ENDROOT
BRANCH   1   8
ATOM      5  C   UNL     1       1.026  11.402  21.048  0.00  0.00    +0.000 C 
ATOM      6  C   UNL     1       0.584  11.080  19.638  0.00  0.00    +0.000 C 
ATOM      7  C   UNL     1       0.710  12.267  18.701  0.00  0.00    +0.000 C 
ATOM      8  C   UNL     1       0.766   9.680  19.054  0.00  0.00    +0.000 C 
ATOM      9  C   UNL     1      -0.620  10.144  19.471  0.00  0.00    +0.000 C 
BRANCH   9  10
ATOM     10  C   UNL     1      -1.693  10.504  18.453  0.00  0.00    +0.000 A 
ATOM     11  C   UNL     1      -2.741  11.401  18.732  0.00  0.00    +0.000 A 
ATOM     12  C   UNL     1      -3.766  11.639  17.810  0.00  0.00    +0.000 A 
ATOM     13  C   UNL     1      -3.743  10.999  16.580  0.00  0.00    +0.000 A 
ATOM     14  F   UNL     1      -4.736  11.204  15.706  0.00  0.00    +0.000 F 
ATOM     15  C   UNL     1      -2.701  10.142  16.252  0.00  0.00    +0.000 A 
ATOM     16  C   UNL     1      -1.687   9.904  17.178  0.00  0.00    +0.000 A 
ENDBRANCH   9  10
ENDBRANCH   1   8
BRANCH   3  17
ATOM     17  C   UNL     1       3.033   6.678  19.545  0.00  0.00    +0.000 C 
BRANCH  17  18
ATOM     18  C   UNL     1       3.309   5.629  18.450  0.00  0.00    +0.000 C 
ATOM     19  C   UNL     1       4.340   4.577  18.892  0.00  0.00    +0.000 C 
ATOM     20  C   UNL     1       3.783   3.588  19.916  0.00  0.00    +0.000 C 
ATOM     21  C   UNL     1       2.516   2.888  19.424  0.00  0.00    +0.000 C 
ATOM     22  C   UNL     1       1.470   3.877  18.893  0.00  0.00    +0.000 C 
ATOM     23  C   UNL     1       2.030   4.943  17.949  0.00  0.00    +0.000 C 
BRANCH  21  24
ATOM     24  C   UNL     1       2.866   1.821  18.393  0.00  0.00    +0.000 C 
ATOM     25  O   UNL     1       3.815   1.057  18.469  0.00  0.00    +0.000 OA
BRANCH  24  26
ATOM     26  O   UNL     1       1.987   1.765  17.366  0.00  0.00    +0.000 OA
ATOM     27  H   UNL     1       1.925   2.585  16.842  0.00  0.00    +0.000 HD
ENDBRANCH  24  26
ENDBRANCH  21  24
ENDBRANCH  17  18
ENDBRANCH   3  17
TORSDOF 6
ENDMDL
MODEL 9
REMARK VINA RESULT:      -7.5      1.542      2.287
REMARK  Name = 
REMARK  8 active torsions:
REMARK  status: ('A' for Active; 'I' for Inactive)
REMARK    1  A    between atoms: C_1  and  C_2
REMARK    2  A    between atoms: C_2  and  C_3
REMARK    3  A    between atoms: C_4  and  C_5
REMARK    4  A    between atoms: N_7  and  C_8
REMARK    5  A    between atoms: C_8  and  C_9
REMARK    6  A    between atoms: C_12  and  C_13
REMARK    7  A    between atoms: C_13  and  O_15
REMARK    8  A    between atoms: C_18  and  C_19
REMARK                            x       y       z     vdW  Elec       q    Type
REMARK                         _______ _______ _______ _____ _____    ______ ____
ROOT
ATOM      1  C   UNL     1       2.041   8.033  19.076  0.00  0.00    +0.000 C 
ATOM      2  O   UNL     1       1.963   7.977  20.296  0.00  0.00    +0.000 OA
ATOM      3  N   UNL     1       1.694   9.134  18.331  0.00  0.00    +0.000 N 
ATOM      4  H   UNL     1       1.967   9.159  17.359  0.00  0.00    +0.000 HD
ENDROOT
BRANCH   1   8
ATOM      5  C   UNL     1       1.931   5.118  20.148  0.00  0.00    +0.000 C 
ATOM      6  C   UNL     1       2.424   5.431  18.754  0.00  0.00    +0.000 C 
ATOM      7  C   UNL     1       2.077   4.346  17.753  0.00  0.00    +0.000 C 
ATOM      8  C   UNL     1       2.509   6.872  18.252  0.00  0.00    +0.000 C 
ATOM      9  C   UNL     1       3.783   6.134  18.626  0.00  0.00    +0.000 C 
BRANCH   9  10
ATOM     10  C   UNL     1       4.769   5.638  17.577  0.00  0.00    +0.000 A 
ATOM     11  C   UNL     1       5.757   4.674  17.853  0.00  0.00    +0.000 A 
ATOM     12  C   UNL     1       6.710   4.309  16.896  0.00  0.00    +0.000 A 
ATOM     13  C   UNL     1       6.671   4.886  15.636  0.00  0.00    +0.000 A 
ATOM     14  F   UNL     1       7.597   4.559  14.726  0.00  0.00    +0.000 F 
ATOM     15  C   UNL     1       5.682   5.806  15.313  0.00  0.00    +0.000 A 
ATOM     16  C   UNL     1       4.741   6.171  16.274  0.00  0.00    +0.000 A 
ENDBRANCH   9  10
ENDBRANCH   1   8
BRANCH   3  17
ATOM     17  C   UNL     1       1.143  10.349  18.913  0.00  0.00    +0.000 C 
BRANCH  17  18
ATOM     18  C   UNL     1      -0.334  10.139  19.301  0.00  0.00    +0.000 C 
ATOM     19  C   UNL     1      -0.673  10.747  20.673  0.00  0.00    +0.000 C 
ATOM     20  C   UNL     1      -0.735  12.274  20.651  0.00  0.00    +0.000 C 
ATOM     21  C   UNL     1      -1.711  12.804  19.601  0.00  0.00    +0.000 C 
ATOM     22  C   UNL     1      -1.481  12.179  18.219  0.00  0.00    +0.000 C 
ATOM     23  C   UNL     1      -1.308  10.658  18.234  0.00  0.00    +0.000 C 
BRANCH  21  24
ATOM     24  C   UNL     1      -3.148  12.625  20.076  0.00  0.00    +0.000 C 
ATOM     25  O   UNL     1      -3.503  12.595  21.244  0.00  0.00    +0.000 OA
BRANCH  24  26
ATOM     26  O   UNL     1      -4.037  12.533  19.059  0.00  0.00    +0.000 OA
ATOM     27  H   UNL     1      -3.889  11.776  18.461  0.00  0.00    +0.000 HD
ENDBRANCH  24  26
ENDBRANCH  21  24
ENDBRANCH  17  18
ENDBRANCH   3  17
TORSDOF 6
ENDMDL
