MODEL 1
REMARK VINA RESULT:      -8.9      0.000      0.000
REMARK  Name = 
REMARK  6 active torsions:
REMARK  status: ('A' for Active; 'I' for Inactive)
REMARK    1  A    between atoms: C_1  and  C_2
REMARK    2  A    between atoms: C_2  and  C_3
REMARK    3  A    between atoms: C_2  and  C_4
REMARK    4  A    between atoms: C_4  and  N_5
REMARK    5  A    between atoms: C_7  and  N_8
REMARK    6  A    between atoms: N_11  and  C_12
REMARK                            x       y       z     vdW  Elec       q    Type
REMARK                         _______ _______ _______ _____ _____    ______ ____
ROOT
ATOM      1  N   UNL     1       4.683   5.697  17.357  0.00  0.00    +0.000 N 
ATOM      2  C   UNL     1       4.081   6.583  18.229  0.00  0.00    +0.000 A 
ATOM      3  C   UNL     1       2.930   6.352  18.908  0.00  0.00    +0.000 A 
ATOM      4  C   UNL     1       2.414   4.950  18.865  0.00  0.00    +0.000 A 
ATOM      5  C   UNL     1       1.270   4.519  19.555  0.00  0.00    +0.000 A 
ATOM      6  C   UNL     1       0.859   3.176  19.511  0.00  0.00    +0.000 A 
ATOM      7  C   UNL     1       1.587   2.230  18.794  0.00  0.00    +0.000 A 
ATOM      8  C   UNL     1       2.711   2.635  18.084  0.00  0.00    +0.000 A 
ATOM      9  C   UNL     1       3.103   3.982  18.095  0.00  0.00    +0.000 A 
ATOM     10  C   UNL     1       4.252   4.382  17.231  0.00  0.00    +0.000 A 
ATOM     11  O   UNL     1       4.748   3.571  16.460  0.00  0.00    +0.000 OA
ENDROOT
BRANCH   3  12
ATOM     12  N   UNL     1       2.269   7.388  19.568  0.00  0.00    +0.000 N 
ATOM     13  C   UNL     1       1.779   8.522  18.905  0.00  0.00    +0.000 C 
ATOM     14  O   UNL     1       1.894   8.711  17.692  0.00  0.00    +0.000 OA
ATOM     15  N   UNL     1       1.137   9.441  19.731  0.00  0.00    +0.000 N 
ATOM     16  H   UNL     1       1.854   7.200  20.466  0.00  0.00    +0.000 HD
ATOM     17  H   UNL     1       1.631   9.601  20.604  0.00  0.00    +0.000 HD
BRANCH  15  18
ATOM     18  C   UNL     1       0.646  10.635  19.106  0.00  0.00    +0.000 A 
ATOM     19  C   UNL     1       1.462  11.765  18.966  0.00  0.00    +0.000 A 
ATOM     20  C   UNL     1       0.908  12.973  18.537  0.00  0.00    +0.000 A 
ATOM     21  F   UNL     1       1.685  14.059  18.447  0.00  0.00    +0.000 F 
ATOM     22  C   UNL     1      -0.444  13.077  18.231  0.00  0.00    +0.000 A 
ATOM     23  C   UNL     1      -1.253  11.944  18.322  0.00  0.00    +0.000 A 
ATOM     24  C   UNL     1      -0.700  10.730  18.738  0.00  0.00    +0.000 A 
ATOM     25  F   UNL     1      -1.504   9.665  18.879  0.00  0.00    +0.000 F 
ENDBRANCH  15  18
ENDBRANCH   3  12
BRANCH   1  26
ATOM     26  C   UNL     1       5.693   6.230  16.416  0.00  0.00    +0.000 C 
BRANCH  26  28
ATOM     27  C   UNL     1       7.555   7.605  17.533  0.00  0.00    +0.000 C 
ATOM     28  C   UNL     1       7.144   6.240  16.978  0.00  0.00    +0.000 C 
ATOM     29  C   UNL     1       7.330   5.206  18.101  0.00  0.00    +0.000 C 
ENDBRANCH  26  28
ENDBRANCH   1  26
TORSDOF 4
ENDMDL
MODEL 2
REMARK VINA RESULT:      -8.5      1.699      4.062
REMARK  Name = 
REMARK  6 active torsions:
REMARK  status: ('A' for Active; 'I' for Inactive)
REMARK    1  A    between atoms: C_1  and  C_2
REMARK    2  A    between atoms: C_2  and  C_3
REMARK    3  A    between atoms: C_2  and  C_4
REMARK    4  A    between atoms: C_4  and  N_5
REMARK    5  A    between atoms: C_7  and  N_8
REMARK    6  A    between atoms: N_11  and  C_12
REMARK                            x       y       z     vdW  Elec       q    Type
REMARK                         _______ _______ _______ _____ _____    ______ ____
ROOT
ATOM      1  N   UNL     1       3.446   4.391  18.648  0.00  0.00    +0.000 N 
ATOM      2  C   UNL     1       2.944   5.516  18.023  0.00  0.00    +0.000 A 
ATOM      3  C   UNL     1       3.666   6.616  17.695  0.00  0.00    +0.000 A 
ATOM      4  C   UNL     1       5.149   6.492  17.829  0.00  0.00    +0.000 A 
ATOM      5  C   UNL     1       6.052   7.509  17.482  0.00  0.00    +0.000 A 
ATOM      6  C   UNL     1       7.440   7.315  17.588  0.00  0.00    +0.000 A 
ATOM      7  C   UNL     1       7.959   6.100  18.027  0.00  0.00    +0.000 A 
ATOM      8  C   UNL     1       7.087   5.085  18.399  0.00  0.00    +0.000 A 
ATOM      9  C   UNL     1       5.700   5.286  18.329  0.00  0.00    +0.000 A 
ATOM     10  C   UNL     1       4.809   4.204  18.840  0.00  0.00    +0.000 A 
ATOM     11  O   UNL     1       5.293   3.230  19.403  0.00  0.00    +0.000 OA
ENDROOT
BRANCH   3  12
ATOM     12  N   UNL     1       3.033   7.793  17.295  0.00  0.00    +0.000 N 
ATOM     13  C   UNL     1       2.192   8.531  18.142  0.00  0.00    +0.000 C 
ATOM     14  O   UNL     1       1.931   8.205  19.301  0.00  0.00    +0.000 OA
ATOM     15  N   UNL     1       1.663   9.683  17.567  0.00  0.00    +0.000 N 
ATOM     16  H   UNL     1       3.411   8.302  16.513  0.00  0.00    +0.000 HD
ATOM     17  H   UNL     1       1.339   9.539  16.616  0.00  0.00    +0.000 HD
BRANCH  15  18
ATOM     18  C   UNL     1       0.770  10.455  18.382  0.00  0.00    +0.000 A 
ATOM     19  C   UNL     1       1.255  11.276  19.408  0.00  0.00    +0.000 A 
ATOM     20  C   UNL     1       0.365  11.861  20.310  0.00  0.00    +0.000 A 
ATOM     21  F   UNL     1       0.839  12.610  21.314  0.00  0.00    +0.000 F 
ATOM     22  C   UNL     1      -1.006  11.656  20.205  0.00  0.00    +0.000 A 
ATOM     23  C   UNL     1      -1.501  10.878  19.157  0.00  0.00    +0.000 A 
ATOM     24  C   UNL     1      -0.614  10.301  18.244  0.00  0.00    +0.000 A 
ATOM     25  F   UNL     1      -1.102   9.507  17.279  0.00  0.00    +0.000 F 
ENDBRANCH  15  18
ENDBRANCH   3  12
BRANCH   1  26
ATOM     26  C   UNL     1       2.483   3.462  19.279  0.00  0.00    +0.000 C 
BRANCH  26  28
ATOM     27  C   UNL     1       1.432   5.116  20.942  0.00  0.00    +0.000 C 
ATOM     28  C   UNL     1       2.168   3.786  20.769  0.00  0.00    +0.000 C 
ATOM     29  C   UNL     1       1.310   2.690  21.424  0.00  0.00    +0.000 C 
ENDBRANCH  26  28
ENDBRANCH   1  26
TORSDOF 4
ENDMDL
MODEL 3
REMARK VINA RESULT:      -8.4      0.919      1.644
REMARK  Name = 
REMARK  6 active torsions:
REMARK  status: ('A' for Active; 'I' for Inactive)
REMARK    1  A    between atoms: C_1  and  C_2
REMARK    2  A    between atoms: C_2  and  C_3
REMARK    3  A    between atoms: C_2  and  C_4
REMARK    4  A    between atoms: C_4  and  N_5
REMARK    5  A    between atoms: C_7  and  N_8
REMARK    6  A    between atoms: N_11  and  C_12
REMARK                            x       y       z     vdW  Elec       q    Type
REMARK                         _______ _______ _______ _____ _____    ______ ____
ROOT
ATOM      1  N   UNL     1       4.813   5.893  17.537  0.00  0.00    +0.000 N 
ATOM      2  C   UNL     1       4.177   6.659  18.493  0.00  0.00    +0.000 A 
ATOM      3  C   UNL     1       3.019   6.330  19.117  0.00  0.00    +0.000 A 
ATOM      4  C   UNL     1       2.531   4.934  18.900  0.00  0.00    +0.000 A 
ATOM      5  C   UNL     1       1.384   4.404  19.510  0.00  0.00    +0.000 A 
ATOM      6  C   UNL     1       1.001   3.068  19.301  0.00  0.00    +0.000 A 
ATOM      7  C   UNL     1       1.761   2.227  18.494  0.00  0.00    +0.000 A 
ATOM      8  C   UNL     1       2.889   2.731  17.860  0.00  0.00    +0.000 A 
ATOM      9  C   UNL     1       3.254   4.075  18.036  0.00  0.00    +0.000 A 
ATOM     10  C   UNL     1       4.411   4.594  17.249  0.00  0.00    +0.000 A 
ATOM     11  O   UNL     1       4.937   3.888  16.398  0.00  0.00    +0.000 OA
ENDROOT
BRANCH   3  12
ATOM     12  N   UNL     1       2.325   7.269  19.880  0.00  0.00    +0.000 N 
ATOM     13  C   UNL     1       1.645   8.357  19.313  0.00  0.00    +0.000 C 
ATOM     14  O   UNL     1       1.607   8.586  18.103  0.00  0.00    +0.000 OA
ATOM     15  N   UNL     1       1.002   9.178  20.235  0.00  0.00    +0.000 N 
ATOM     16  H   UNL     1       2.032   7.014  20.809  0.00  0.00    +0.000 HD
ATOM     17  H   UNL     1       1.567   9.371  21.056  0.00  0.00    +0.000 HD
BRANCH  15  18
ATOM     18  C   UNL     1       0.319  10.325  19.708  0.00  0.00    +0.000 A 
ATOM     19  C   UNL     1      -0.781  10.181  18.853  0.00  0.00    +0.000 A 
ATOM     20  C   UNL     1      -1.304  11.298  18.199  0.00  0.00    +0.000 A 
ATOM     21  F   UNL     1      -2.327  11.146  17.350  0.00  0.00    +0.000 F 
ATOM     22  C   UNL     1      -0.760  12.563  18.388  0.00  0.00    +0.000 A 
ATOM     23  C   UNL     1       0.305  12.723  19.275  0.00  0.00    +0.000 A 
ATOM     24  C   UNL     1       0.823  11.609  19.942  0.00  0.00    +0.000 A 
ATOM     25  F   UNL     1       1.886  11.770  20.745  0.00  0.00    +0.000 F 
ENDBRANCH  15  18
ENDBRANCH   3  12
BRANCH   1  26
ATOM     26  C   UNL     1       5.829   6.551  16.685  0.00  0.00    +0.000 C 
BRANCH  26  28
ATOM     27  C   UNL     1       7.693   8.024  17.668  0.00  0.00    +0.000 C 
ATOM     28  C   UNL     1       7.251   6.601  17.316  0.00  0.00    +0.000 C 
ATOM     29  C   UNL     1       7.340   5.756  18.599  0.00  0.00    +0.000 C 
ENDBRANCH  26  28
ENDBRANCH   1  26
TORSDOF 4
ENDMDL
MODEL 4
REMARK VINA RESULT:      -8.4      1.677      4.066
REMARK  Name = 
REMARK  6 active torsions:
REMARK  status: ('A' for Active; 'I' for Inactive)
REMARK    1  A    between atoms: C_1  and  C_2
REMARK    2  A    between atoms: C_2  and  C_3
REMARK    3  A    between atoms: C_2  and  C_4
REMARK    4  A    between atoms: C_4  and  N_5
REMARK    5  A    between atoms: C_7  and  N_8
REMARK    6  A    between atoms: N_11  and  C_12
REMARK                            x       y       z     vdW  Elec       q    Type
REMARK                         _______ _______ _______ _____ _____    ______ ____
ROOT
ATOM      1  N   UNL     1       3.405   4.416  19.097  0.00  0.00    +0.000 N 
ATOM      2  C   UNL     1       2.853   5.479  18.408  0.00  0.00    +0.000 A 
ATOM      3  C   UNL     1       3.546   6.530  17.906  0.00  0.00    +0.000 A 
ATOM      4  C   UNL     1       5.035   6.400  17.918  0.00  0.00    +0.000 A 
ATOM      5  C   UNL     1       5.907   7.364  17.388  0.00  0.00    +0.000 A 
ATOM      6  C   UNL     1       7.298   7.163  17.389  0.00  0.00    +0.000 A 
ATOM      7  C   UNL     1       7.849   5.992  17.900  0.00  0.00    +0.000 A 
ATOM      8  C   UNL     1       7.011   5.031  18.451  0.00  0.00    +0.000 A 
ATOM      9  C   UNL     1       5.624   5.244  18.486  0.00  0.00    +0.000 A 
ATOM     10  C   UNL     1       4.779   4.231  19.183  0.00  0.00    +0.000 A 
ATOM     11  O   UNL     1       5.307   3.312  19.797  0.00  0.00    +0.000 OA
ENDROOT
BRANCH   3  12
ATOM     12  N   UNL     1       2.885   7.670  17.447  0.00  0.00    +0.000 N 
ATOM     13  C   UNL     1       2.075   8.464  18.272  0.00  0.00    +0.000 C 
ATOM     14  O   UNL     1       1.868   8.226  19.463  0.00  0.00    +0.000 OA
ATOM     15  N   UNL     1       1.509   9.566  17.636  0.00  0.00    +0.000 N 
ATOM     16  H   UNL     1       3.223   8.120  16.612  0.00  0.00    +0.000 HD
ATOM     17  H   UNL     1       1.145   9.347  16.714  0.00  0.00    +0.000 HD
BRANCH  15  18
ATOM     18  C   UNL     1       0.645  10.392  18.429  0.00  0.00    +0.000 A 
ATOM     19  C   UNL     1       1.155  11.184  19.466  0.00  0.00    +0.000 A 
ATOM     20  C   UNL     1       0.280  11.824  20.346  0.00  0.00    +0.000 A 
ATOM     21  F   UNL     1       0.776  12.544  21.360  0.00  0.00    +0.000 F 
ATOM     22  C   UNL     1      -1.097  11.700  20.209  0.00  0.00    +0.000 A 
ATOM     23  C   UNL     1      -1.614  10.952  19.150  0.00  0.00    +0.000 A 
ATOM     24  C   UNL     1      -0.741  10.321  18.259  0.00  0.00    +0.000 A 
ATOM     25  F   UNL     1      -1.253   9.556  17.283  0.00  0.00    +0.000 F 
ENDBRANCH  15  18
ENDBRANCH   3  12
BRANCH   1  26
ATOM     26  C   UNL     1       2.498   3.569  19.904  0.00  0.00    +0.000 C 
BRANCH  26  28
ATOM     27  C   UNL     1       0.440   2.581  18.723  0.00  0.00    +0.000 C 
ATOM     28  C   UNL     1       1.899   2.360  19.128  0.00  0.00    +0.000 C 
ATOM     29  C   UNL     1       2.695   2.049  17.848  0.00  0.00    +0.000 C 
ENDBRANCH  26  28
ENDBRANCH   1  26
TORSDOF 4
ENDMDL
MODEL 5
REMARK VINA RESULT:      -8.4      1.901      2.070
REMARK  Name = 
REMARK  6 active torsions:
REMARK  status: ('A' for Active; 'I' for Inactive)
REMARK    1  A    between atoms: C_1  and  C_2
REMARK    2  A    between atoms: C_2  and  C_3
REMARK    3  A    between atoms: C_2  and  C_4
REMARK    4  A    between atoms: C_4  and  N_5
REMARK    5  A    between atoms: C_7  and  N_8
REMARK    6  A    between atoms: N_11  and  C_12
REMARK                            x       y       z     vdW  Elec       q    Type
REMARK                         _______ _______ _______ _____ _____    ______ ____
ROOT
ATOM      1  N   UNL     1       4.174   5.793  17.942  0.00  0.00    +0.000 N 
ATOM      2  C   UNL     1       3.739   6.385  19.112  0.00  0.00    +0.000 A 
ATOM      3  C   UNL     1       2.662   5.991  19.835  0.00  0.00    +0.000 A 
ATOM      4  C   UNL     1       2.049   4.686  19.440  0.00  0.00    +0.000 A 
ATOM      5  C   UNL     1       0.966   4.097  20.112  0.00  0.00    +0.000 A 
ATOM      6  C   UNL     1       0.463   2.845  19.720  0.00  0.00    +0.000 A 
ATOM      7  C   UNL     1       1.036   2.145  18.663  0.00  0.00    +0.000 A 
ATOM      8  C   UNL     1       2.094   2.715  17.966  0.00  0.00    +0.000 A 
ATOM      9  C   UNL     1       2.577   3.981  18.331  0.00  0.00    +0.000 A 
ATOM     10  C   UNL     1       3.643   4.593  17.485  0.00  0.00    +0.000 A 
ATOM     11  O   UNL     1       3.989   4.044  16.447  0.00  0.00    +0.000 OA
ENDROOT
BRANCH   3  12
ATOM     12  N   UNL     1       2.154   6.793  20.857  0.00  0.00    +0.000 N 
ATOM     13  C   UNL     1       1.549   8.036  20.620  0.00  0.00    +0.000 C 
ATOM     14  O   UNL     1       1.420   8.533  19.499  0.00  0.00    +0.000 OA
ATOM     15  N   UNL     1       1.093   8.683  21.765  0.00  0.00    +0.000 N 
ATOM     16  H   UNL     1       1.925   6.363  21.738  0.00  0.00    +0.000 HD
ATOM     17  H   UNL     1       1.752   8.637  22.536  0.00  0.00    +0.000 HD
BRANCH  15  18
ATOM     18  C   UNL     1       0.495   9.974  21.579  0.00  0.00    +0.000 A 
ATOM     19  C   UNL     1       0.932  10.833  20.562  0.00  0.00    +0.000 A 
ATOM     20  C   UNL     1       0.477  12.152  20.524  0.00  0.00    +0.000 A 
ATOM     21  F   UNL     1       0.933  12.979  19.575  0.00  0.00    +0.000 F 
ATOM     22  C   UNL     1      -0.418  12.633  21.473  0.00  0.00    +0.000 A 
ATOM     23  C   UNL     1      -0.895  11.770  22.460  0.00  0.00    +0.000 A 
ATOM     24  C   UNL     1      -0.452  10.446  22.495  0.00  0.00    +0.000 A 
ATOM     25  F   UNL     1      -0.874   9.646  23.486  0.00  0.00    +0.000 F 
ENDBRANCH  15  18
ENDBRANCH   3  12
BRANCH   1  26
ATOM     26  C   UNL     1       5.102   6.559  17.081  0.00  0.00    +0.000 C 
BRANCH  26  28
ATOM     27  C   UNL     1       7.171   5.376  16.120  0.00  0.00    +0.000 C 
ATOM     28  C   UNL     1       6.602   6.195  17.280  0.00  0.00    +0.000 C 
ATOM     29  C   UNL     1       7.479   7.449  17.439  0.00  0.00    +0.000 C 
ENDBRANCH  26  28
ENDBRANCH   1  26
TORSDOF 4
ENDMDL
MODEL 6
REMARK VINA RESULT:      -8.4      1.769      3.890
REMARK  Name = 
REMARK  6 active torsions:
REMARK  status: ('A' for Active; 'I' for Inactive)
REMARK    1  A    between atoms: C_1  and  C_2
REMARK    2  A    between atoms: C_2  and  C_3
REMARK    3  A    between atoms: C_2  and  C_4
REMARK    4  A    between atoms: C_4  and  N_5
REMARK    5  A    between atoms: C_7  and  N_8
REMARK    6  A    between atoms: N_11  and  C_12
REMARK                            x       y       z     vdW  Elec       q    Type
REMARK                         _______ _______ _______ _____ _____    ______ ____
ROOT
ATOM      1  N   UNL     1       3.042   4.992  19.518  0.00  0.00    +0.000 N 
ATOM      2  C   UNL     1       2.565   6.153  18.942  0.00  0.00    +0.000 A 
ATOM      3  C   UNL     1       3.150   6.812  17.911  0.00  0.00    +0.000 A 
ATOM      4  C   UNL     1       4.265   6.094  17.222  0.00  0.00    +0.000 A 
ATOM      5  C   UNL     1       4.945   6.599  16.103  0.00  0.00    +0.000 A 
ATOM      6  C   UNL     1       5.956   5.856  15.471  0.00  0.00    +0.000 A 
ATOM      7  C   UNL     1       6.301   4.587  15.928  0.00  0.00    +0.000 A 
ATOM      8  C   UNL     1       5.659   4.072  17.048  0.00  0.00    +0.000 A 
ATOM      9  C   UNL     1       4.675   4.826  17.704  0.00  0.00    +0.000 A 
ATOM     10  C   UNL     1       4.093   4.273  18.962  0.00  0.00    +0.000 A 
ATOM     11  O   UNL     1       4.555   3.250  19.450  0.00  0.00    +0.000 OA
ENDROOT
BRANCH   3  12
ATOM     12  N   UNL     1       2.739   8.098  17.559  0.00  0.00    +0.000 N 
ATOM     13  C   UNL     1       1.944   8.897  18.393  0.00  0.00    +0.000 C 
ATOM     14  O   UNL     1       1.531   8.537  19.498  0.00  0.00    +0.000 OA
ATOM     15  N   UNL     1       1.647  10.154  17.875  0.00  0.00    +0.000 N 
ATOM     16  H   UNL     1       3.259   8.594  16.854  0.00  0.00    +0.000 HD
ATOM     17  H   UNL     1       1.394  10.128  16.892  0.00  0.00    +0.000 HD
BRANCH  15  18
ATOM     18  C   UNL     1       0.808  10.999  18.676  0.00  0.00    +0.000 A 
ATOM     19  C   UNL     1       1.358  11.893  19.603  0.00  0.00    +0.000 A 
ATOM     20  C   UNL     1       0.526  12.557  20.505  0.00  0.00    +0.000 A 
ATOM     21  F   UNL     1       1.063  13.378  21.417  0.00  0.00    +0.000 F 
ATOM     22  C   UNL     1      -0.850  12.358  20.497  0.00  0.00    +0.000 A 
ATOM     23  C   UNL     1      -1.411  11.506  19.546  0.00  0.00    +0.000 A 
ATOM     24  C   UNL     1      -0.582  10.849  18.632  0.00  0.00    +0.000 A 
ATOM     25  F   UNL     1      -1.131   9.986  17.763  0.00  0.00    +0.000 F 
ENDBRANCH  15  18
ENDBRANCH   3  12
BRANCH   1  26
ATOM     26  C   UNL     1       2.526   4.619  20.854  0.00  0.00    +0.000 C 
BRANCH  26  28
ATOM     27  C   UNL     1       0.989   3.143  19.417  0.00  0.00    +0.000 C 
ATOM     28  C   UNL     1       1.280   3.687  20.818  0.00  0.00    +0.000 C 
ATOM     29  C   UNL     1       1.439   2.482  21.761  0.00  0.00    +0.000 C 
ENDBRANCH  26  28
ENDBRANCH   1  26
TORSDOF 4
ENDMDL
MODEL 7
REMARK VINA RESULT:      -8.4      1.594      1.820
REMARK  Name = 
REMARK  6 active torsions:
REMARK  status: ('A' for Active; 'I' for Inactive)
REMARK    1  A    between atoms: C_1  and  C_2
REMARK    2  A    between atoms: C_2  and  C_3
REMARK    3  A    between atoms: C_2  and  C_4
REMARK    4  A    between atoms: C_4  and  N_5
REMARK    5  A    between atoms: C_7  and  N_8
REMARK    6  A    between atoms: N_11  and  C_12
REMARK                            x       y       z     vdW  Elec       q    Type
REMARK                         _______ _______ _______ _____ _____    ______ ____
ROOT
ATOM      1  N   UNL     1       5.377   5.266  19.241  0.00  0.00    +0.000 N 
ATOM      2  C   UNL     1       4.633   6.363  18.855  0.00  0.00    +0.000 A 
ATOM      3  C   UNL     1       3.393   6.314  18.310  0.00  0.00    +0.000 A 
ATOM      4  C   UNL     1       2.713   4.983  18.344  0.00  0.00    +0.000 A 
ATOM      5  C   UNL     1       1.408   4.762  17.877  0.00  0.00    +0.000 A 
ATOM      6  C   UNL     1       0.807   3.495  17.977  0.00  0.00    +0.000 A 
ATOM      7  C   UNL     1       1.485   2.427  18.558  0.00  0.00    +0.000 A 
ATOM      8  C   UNL     1       2.786   2.614  19.008  0.00  0.00    +0.000 A 
ATOM      9  C   UNL     1       3.404   3.867  18.877  0.00  0.00    +0.000 A 
ATOM     10  C   UNL     1       4.836   3.986  19.277  0.00  0.00    +0.000 A 
ATOM     11  O   UNL     1       5.466   2.987  19.598  0.00  0.00    +0.000 OA
ENDROOT
BRANCH   3  12
ATOM     12  N   UNL     1       2.823   7.446  17.727  0.00  0.00    +0.000 N 
ATOM     13  C   UNL     1       2.021   8.348  18.441  0.00  0.00    +0.000 C 
ATOM     14  O   UNL     1       1.742   8.221  19.635  0.00  0.00    +0.000 OA
ATOM     15  N   UNL     1       1.553   9.423  17.690  0.00  0.00    +0.000 N 
ATOM     16  H   UNL     1       3.228   7.807  16.878  0.00  0.00    +0.000 HD
ATOM     17  H   UNL     1       1.223   9.150  16.770  0.00  0.00    +0.000 HD
BRANCH  15  18
ATOM     18  C   UNL     1       0.701  10.358  18.368  0.00  0.00    +0.000 A 
ATOM     19  C   UNL     1       1.215  11.243  19.324  0.00  0.00    +0.000 A 
ATOM     20  C   UNL     1       0.344  12.002  20.107  0.00  0.00    +0.000 A 
ATOM     21  F   UNL     1       0.842  12.813  21.049  0.00  0.00    +0.000 F 
ATOM     22  C   UNL     1      -1.034  11.906  19.951  0.00  0.00    +0.000 A 
ATOM     23  C   UNL     1      -1.553  11.063  18.968  0.00  0.00    +0.000 A 
ATOM     24  C   UNL     1      -0.684  10.311  18.173  0.00  0.00    +0.000 A 
ATOM     25  F   UNL     1      -1.200   9.460  17.273  0.00  0.00    +0.000 F 
ENDBRANCH  15  18
ENDBRANCH   3  12
BRANCH   1  26
ATOM     26  C   UNL     1       6.831   5.452  19.447  0.00  0.00    +0.000 C 
BRANCH  26  28
ATOM     27  C   UNL     1       7.170   4.701  17.012  0.00  0.00    +0.000 C 
ATOM     28  C   UNL     1       7.642   5.634  18.130  0.00  0.00    +0.000 C 
ATOM     29  C   UNL     1       7.558   7.075  17.600  0.00  0.00    +0.000 C 
ENDBRANCH  26  28
ENDBRANCH   1  26
TORSDOF 4
ENDMDL
MODEL 8
REMARK VINA RESULT:      -8.3      1.040      1.857
REMARK  Name = 
REMARK  6 active torsions:
REMARK  status: ('A' for Active; 'I' for Inactive)
REMARK    1  A    between atoms: C_1  and  C_2
REMARK    2  A    between atoms: C_2  and  C_3
REMARK    3  A    between atoms: C_2  and  C_4
REMARK    4  A    between atoms: C_4  and  N_5
REMARK    5  A    between atoms: C_7  and  N_8
REMARK    6  A    between atoms: N_11  and  C_12
REMARK                            x       y       z     vdW  Elec       q    Type
REMARK                         _______ _______ _______ _____ _____    ______ ____
ROOT
ATOM      1  N   UNL     1       4.238   5.785  17.769  0.00  0.00    +0.000 N 
ATOM      2  C   UNL     1       3.719   6.695  18.669  0.00  0.00    +0.000 A 
ATOM      3  C   UNL     1       2.662   6.470  19.488  0.00  0.00    +0.000 A 
ATOM      4  C   UNL     1       2.182   5.056  19.564  0.00  0.00    +0.000 A 
ATOM      5  C   UNL     1       1.138   4.631  20.401  0.00  0.00    +0.000 A 
ATOM      6  C   UNL     1       0.761   3.278  20.460  0.00  0.00    +0.000 A 
ATOM      7  C   UNL     1       1.425   2.319  19.702  0.00  0.00    +0.000 A 
ATOM      8  C   UNL     1       2.447   2.716  18.848  0.00  0.00    +0.000 A 
ATOM      9  C   UNL     1       2.802   4.070  18.757  0.00  0.00    +0.000 A 
ATOM     10  C   UNL     1       3.831   4.457  17.749  0.00  0.00    +0.000 A 
ATOM     11  O   UNL     1       4.255   3.624  16.958  0.00  0.00    +0.000 OA
ENDROOT
BRANCH   3  12
ATOM     12  N   UNL     1       2.056   7.519  20.179  0.00  0.00    +0.000 N 
ATOM     13  C   UNL     1       1.450   8.606  19.532  0.00  0.00    +0.000 C 
ATOM     14  O   UNL     1       1.407   8.737  18.307  0.00  0.00    +0.000 OA
ATOM     15  N   UNL     1       0.888   9.547  20.390  0.00  0.00    +0.000 N 
ATOM     16  H   UNL     1       1.762   7.364  21.129  0.00  0.00    +0.000 HD
ATOM     17  H   UNL     1       1.481   9.762  21.186  0.00  0.00    +0.000 HD
BRANCH  15  18
ATOM     18  C   UNL     1       0.284  10.696  19.778  0.00  0.00    +0.000 A 
ATOM     19  C   UNL     1      -0.897  10.581  19.034  0.00  0.00    +0.000 A 
ATOM     20  C   UNL     1      -1.356  11.667  18.288  0.00  0.00    +0.000 A 
ATOM     21  F   UNL     1      -2.462  11.536  17.544  0.00  0.00    +0.000 F 
ATOM     22  C   UNL     1      -0.668  12.875  18.276  0.00  0.00    +0.000 A 
ATOM     23  C   UNL     1       0.483  13.013  19.053  0.00  0.00    +0.000 A 
ATOM     24  C   UNL     1       0.938  11.932  19.812  0.00  0.00    +0.000 A 
ATOM     25  F   UNL     1       2.080  12.061  20.506  0.00  0.00    +0.000 F 
ENDBRANCH  15  18
ENDBRANCH   3  12
BRANCH   1  26
ATOM     26  C   UNL     1       5.117   6.299  16.694  0.00  0.00    +0.000 C 
BRANCH  26  28
ATOM     27  C   UNL     1       7.230   5.289  15.635  0.00  0.00    +0.000 C 
ATOM     28  C   UNL     1       6.621   5.943  16.877  0.00  0.00    +0.000 C 
ATOM     29  C   UNL     1       7.466   7.185  17.211  0.00  0.00    +0.000 C 
ENDBRANCH  26  28
ENDBRANCH   1  26
TORSDOF 4
ENDMDL
MODEL 9
REMARK VINA RESULT:      -8.3      1.623      4.222
REMARK  Name = 
REMARK  6 active torsions:
REMARK  status: ('A' for Active; 'I' for Inactive)
REMARK    1  A    between atoms: C_1  and  C_2
REMARK    2  A    between atoms: C_2  and  C_3
REMARK    3  A    between atoms: C_2  and  C_4
REMARK    4  A    between atoms: C_4  and  N_5
REMARK    5  A    between atoms: C_7  and  N_8
REMARK    6  A    between atoms: N_11  and  C_12
REMARK                            x       y       z     vdW  Elec       q    Type
REMARK                         _______ _______ _______ _____ _____    ______ ____
ROOT
ATOM      1  N   UNL     1       3.036   4.113  18.627  0.00  0.00    +0.000 N 
ATOM      2  C   UNL     1       2.575   5.247  17.988  0.00  0.00    +0.000 A 
ATOM      3  C   UNL     1       3.331   6.324  17.663  0.00  0.00    +0.000 A 
ATOM      4  C   UNL     1       4.809   6.158  17.818  0.00  0.00    +0.000 A 
ATOM      5  C   UNL     1       5.745   7.147  17.475  0.00  0.00    +0.000 A 
ATOM      6  C   UNL     1       7.125   6.915  17.602  0.00  0.00    +0.000 A 
ATOM      7  C   UNL     1       7.604   5.689  18.056  0.00  0.00    +0.000 A 
ATOM      8  C   UNL     1       6.698   4.701  18.422  0.00  0.00    +0.000 A 
ATOM      9  C   UNL     1       5.319   4.941  18.333  0.00  0.00    +0.000 A 
ATOM     10  C   UNL     1       4.391   3.888  18.839  0.00  0.00    +0.000 A 
ATOM     11  O   UNL     1       4.839   2.905  19.415  0.00  0.00    +0.000 OA
ENDROOT
BRANCH   3  12
ATOM     12  N   UNL     1       2.738   7.516  17.246  0.00  0.00    +0.000 N 
ATOM     13  C   UNL     1       2.220   8.461  18.143  0.00  0.00    +0.000 C 
ATOM     14  O   UNL     1       2.232   8.324  19.368  0.00  0.00    +0.000 OA
ATOM     15  N   UNL     1       1.678   9.593  17.539  0.00  0.00    +0.000 N 
ATOM     16  H   UNL     1       2.952   7.865  16.326  0.00  0.00    +0.000 HD
ATOM     17  H   UNL     1       1.109   9.375  16.727  0.00  0.00    +0.000 HD
BRANCH  15  18
ATOM     18  C   UNL     1       1.105  10.576  18.412  0.00  0.00    +0.000 A 
ATOM     19  C   UNL     1      -0.171  10.397  18.963  0.00  0.00    +0.000 A 
ATOM     20  C   UNL     1      -0.786  11.448  19.645  0.00  0.00    +0.000 A 
ATOM     21  F   UNL     1      -2.023  11.283  20.131  0.00  0.00    +0.000 F 
ATOM     22  C   UNL     1      -0.151  12.674  19.802  0.00  0.00    +0.000 A 
ATOM     23  C   UNL     1       1.138  12.845  19.298  0.00  0.00    +0.000 A 
ATOM     24  C   UNL     1       1.763  11.792  18.626  0.00  0.00    +0.000 A 
ATOM     25  F   UNL     1       2.979  11.992  18.095  0.00  0.00    +0.000 F 
ENDBRANCH  15  18
ENDBRANCH   3  12
BRANCH   1  26
ATOM     26  C   UNL     1       2.038   3.216  19.251  0.00  0.00    +0.000 C 
BRANCH  26  28
ATOM     27  C   UNL     1       1.948   2.797  21.786  0.00  0.00    +0.000 C 
ATOM     28  C   UNL     1       1.517   3.707  20.633  0.00  0.00    +0.000 C 
ATOM     29  C   UNL     1       2.005   5.130  20.957  0.00  0.00    +0.000 C 
ENDBRANCH  26  28
ENDBRANCH   1  26
TORSDOF 4
ENDMDL
