MODEL 1
REMARK VINA RESULT:      -7.6      0.000      0.000
REMARK  Name = 
REMARK  10 active torsions:
REMARK  status: ('A' for Active; 'I' for Inactive)
REMARK    1  A    between atoms: C_1  and  C_2
REMARK    2  A    between atoms: C_3  and  N_4
REMARK    3  A    between atoms: C_5  and  C_7
REMARK    4  A    between atoms: C_10  and  C_11
REMARK    5  A    between atoms: C_11  and  N_12
REMARK    6  A    between atoms: N_12  and  C_13
REMARK    7  A    between atoms: N_12  and  C_14
REMARK    8  A    between atoms: C_14  and  C_15
REMARK    9  A    between atoms: C_15  and  O_16
REMARK   10  A    between atoms: C_25  and  C_26
REMARK                            x       y       z     vdW  Elec       q    Type
REMARK                         _______ _______ _______ _____ _____    ______ ____
ROOT
ATOM      1  N   UNL     1       0.992   7.844  20.327  0.00  0.00    +0.000 N 
ATOM      2  C   UNL     1       1.138   8.692  21.408  0.00  0.00    +0.000 C 
ATOM      3  O   UNL     1       2.044   8.636  22.234  0.00  0.00    +0.000 OA
ATOM      4  H   UNL     1       0.066   7.793  19.910  0.00  0.00    +0.000 HD
ENDROOT
BRANCH   2   5
ATOM      5  C   UNL     1       0.049   9.715  21.542  0.00  0.00    +0.000 A 
ATOM      6  C   UNL     1      -0.433   9.988  22.775  0.00  0.00    +0.000 A 
ATOM      7  C   UNL     1      -1.323  11.113  23.015  0.00  0.00    +0.000 A 
ATOM      8  C   UNL     1      -1.653  11.934  21.995  0.00  0.00    +0.000 A 
ATOM      9  N   UNL     1      -1.210  11.590  20.708  0.00  0.00    +0.000 N 
ATOM     10  C   UNL     1      -1.413  12.163  19.480  0.00  0.00    +0.000 A 
ATOM     11  N   UNL     1      -0.839  11.450  18.541  0.00  0.00    +0.000 NA
ATOM     12  N   UNL     1      -0.217  10.389  19.140  0.00  0.00    +0.000 NA
ATOM     13  C   UNL     1      -0.410  10.488  20.439  0.00  0.00    +0.000 A 
BRANCH   8  14
ATOM     14  C   UNL     1      -2.389  13.228  22.230  0.00  0.00    +0.000 C 
BRANCH  14  15
ATOM     15  N   UNL     1      -2.455  13.678  23.629  0.00  0.00    +0.000 NA
ATOM     16  C   UNL     1      -1.826  14.997  23.789  0.00  0.00    +0.000 C 
BRANCH  15  17
ATOM     17  C   UNL     1      -3.861  13.761  24.086  0.00  0.00    +0.000 C 
BRANCH  17  18
ATOM     18  C   UNL     1      -4.393  12.505  24.800  0.00  0.00    +0.000 C 
BRANCH  18  19
ATOM     19  O   UNL     1      -5.660  12.130  24.270  0.00  0.00    +0.000 OA
ATOM     20  H   UNL     1      -6.213  11.834  25.013  0.00  0.00    +0.000 HD
ENDBRANCH  18  19
ENDBRANCH  17  18
ENDBRANCH  15  17
ENDBRANCH  14  15
ENDBRANCH   8  14
ENDBRANCH   2   5
BRANCH   1  23
ATOM     21  C   UNL     1       2.777   7.999  18.010  0.00  0.00    +0.000 C 
ATOM     22  C   UNL     1       2.827   6.841  18.983  0.00  0.00    +0.000 A 
ATOM     23  C   UNL     1       1.876   6.790  20.034  0.00  0.00    +0.000 A 
ATOM     24  C   UNL     1       1.722   5.641  20.807  0.00  0.00    +0.000 A 
ATOM     25  C   UNL     1       2.582   4.570  20.630  0.00  0.00    +0.000 A 
ATOM     26  C   UNL     1       3.587   4.641  19.664  0.00  0.00    +0.000 A 
ATOM     27  C   UNL     1       3.741   5.757  18.808  0.00  0.00    +0.000 A 
BRANCH  27  28
ATOM     28  C   UNL     1       4.798   5.714  17.748  0.00  0.00    +0.000 A 
ATOM     29  C   UNL     1       6.073   6.281  17.956  0.00  0.00    +0.000 A 
ATOM     30  C   UNL     1       7.090   6.186  16.997  0.00  0.00    +0.000 A 
ATOM     31  C   UNL     1       6.870   5.490  15.814  0.00  0.00    +0.000 A 
ATOM     32  C   UNL     1       5.615   4.949  15.564  0.00  0.00    +0.000 A 
ATOM     33  C   UNL     1       4.587   5.101  16.501  0.00  0.00    +0.000 A 
ENDBRANCH  27  28
ENDBRANCH   1  23
TORSDOF 8
ENDMDL
MODEL 2
REMARK VINA RESULT:      -7.5      0.921      1.076
REMARK  Name = 
REMARK  10 active torsions:
REMARK  status: ('A' for Active; 'I' for Inactive)
REMARK    1  A    between atoms: C_1  and  C_2
REMARK    2  A    between atoms: C_3  and  N_4
REMARK    3  A    between atoms: C_5  and  C_7
REMARK    4  A    between atoms: C_10  and  C_11
REMARK    5  A    between atoms: C_11  and  N_12
REMARK    6  A    between atoms: N_12  and  C_13
REMARK    7  A    between atoms: N_12  and  C_14
REMARK    8  A    between atoms: C_14  and  C_15
REMARK    9  A    between atoms: C_15  and  O_16
REMARK   10  A    between atoms: C_25  and  C_26
REMARK                            x       y       z     vdW  Elec       q    Type
REMARK                         _______ _______ _______ _____ _____    ______ ____
ROOT
ATOM      1  N   UNL     1       1.007   7.863  20.309  0.00  0.00    +0.000 N 
ATOM      2  C   UNL     1       1.135   8.693  21.405  0.00  0.00    +0.000 C 
ATOM      3  O   UNL     1       2.013   8.609  22.259  0.00  0.00    +0.000 OA
ATOM      4  H   UNL     1       0.094   7.837  19.862  0.00  0.00    +0.000 HD
ENDROOT
BRANCH   2   5
ATOM      5  C   UNL     1       0.065   9.738  21.518  0.00  0.00    +0.000 A 
ATOM      6  C   UNL     1      -0.364  10.094  22.749  0.00  0.00    +0.000 A 
ATOM      7  C   UNL     1      -1.231  11.244  22.953  0.00  0.00    +0.000 A 
ATOM      8  C   UNL     1      -1.593  12.004  21.898  0.00  0.00    +0.000 A 
ATOM      9  N   UNL     1      -1.206  11.574  20.618  0.00  0.00    +0.000 N 
ATOM     10  C   UNL     1      -1.453  12.072  19.365  0.00  0.00    +0.000 A 
ATOM     11  N   UNL     1      -0.926  11.293  18.451  0.00  0.00    +0.000 NA
ATOM     12  N   UNL     1      -0.291  10.263  19.090  0.00  0.00    +0.000 NA
ATOM     13  C   UNL     1      -0.431  10.446  20.387  0.00  0.00    +0.000 A 
BRANCH   8  14
ATOM     14  C   UNL     1      -2.305  13.320  22.080  0.00  0.00    +0.000 C 
BRANCH  14  15
ATOM     15  N   UNL     1      -3.617  13.249  22.739  0.00  0.00    +0.000 NA
ATOM     16  C   UNL     1      -3.652  14.099  23.937  0.00  0.00    +0.000 C 
BRANCH  15  17
ATOM     17  C   UNL     1      -4.691  13.680  21.815  0.00  0.00    +0.000 C 
BRANCH  17  18
ATOM     18  C   UNL     1      -5.267  12.571  20.917  0.00  0.00    +0.000 C 
BRANCH  18  19
ATOM     19  O   UNL     1      -6.225  11.797  21.633  0.00  0.00    +0.000 OA
ATOM     20  H   UNL     1      -7.093  12.215  21.504  0.00  0.00    +0.000 HD
ENDBRANCH  18  19
ENDBRANCH  17  18
ENDBRANCH  15  17
ENDBRANCH  14  15
ENDBRANCH   8  14
ENDBRANCH   2   5
BRANCH   1  23
ATOM     21  C   UNL     1       2.787   7.959  17.985  0.00  0.00    +0.000 C 
ATOM     22  C   UNL     1       2.826   6.816  18.977  0.00  0.00    +0.000 A 
ATOM     23  C   UNL     1       1.877   6.793  20.031  0.00  0.00    +0.000 A 
ATOM     24  C   UNL     1       1.713   5.659  20.823  0.00  0.00    +0.000 A 
ATOM     25  C   UNL     1       2.559   4.576  20.661  0.00  0.00    +0.000 A 
ATOM     26  C   UNL     1       3.562   4.619  19.691  0.00  0.00    +0.000 A 
ATOM     27  C   UNL     1       3.726   5.719  18.816  0.00  0.00    +0.000 A 
BRANCH  27  28
ATOM     28  C   UNL     1       4.780   5.647  17.755  0.00  0.00    +0.000 A 
ATOM     29  C   UNL     1       6.035   6.271  17.917  0.00  0.00    +0.000 A 
ATOM     30  C   UNL     1       7.050   6.151  16.959  0.00  0.00    +0.000 A 
ATOM     31  C   UNL     1       6.850   5.374  15.824  0.00  0.00    +0.000 A 
ATOM     32  C   UNL     1       5.615   4.773  15.618  0.00  0.00    +0.000 A 
ATOM     33  C   UNL     1       4.585   4.948  16.550  0.00  0.00    +0.000 A 
ENDBRANCH  27  28
ENDBRANCH   1  23
TORSDOF 8
ENDMDL
MODEL 3
REMARK VINA RESULT:      -7.4      2.779     10.311
REMARK  Name = 
REMARK  10 active torsions:
REMARK  status: ('A' for Active; 'I' for Inactive)
REMARK    1  A    between atoms: C_1  and  C_2
REMARK    2  A    between atoms: C_3  and  N_4
REMARK    3  A    between atoms: C_5  and  C_7
REMARK    4  A    between atoms: C_10  and  C_11
REMARK    5  A    between atoms: C_11  and  N_12
REMARK    6  A    between atoms: N_12  and  C_13
REMARK    7  A    between atoms: N_12  and  C_14
REMARK    8  A    between atoms: C_14  and  C_15
REMARK    9  A    between atoms: C_15  and  O_16
REMARK   10  A    between atoms: C_25  and  C_26
REMARK                            x       y       z     vdW  Elec       q    Type
REMARK                         _______ _______ _______ _____ _____    ______ ____
ROOT
ATOM      1  N   UNL     1       0.443   9.162  19.024  0.00  0.00    +0.000 N 
ATOM      2  C   UNL     1       1.723   9.319  18.531  0.00  0.00    +0.000 C 
ATOM      3  O   UNL     1       2.242  10.392  18.234  0.00  0.00    +0.000 OA
ATOM      4  H   UNL     1       0.033   8.236  18.939  0.00  0.00    +0.000 HD
ENDROOT
BRANCH   2   5
ATOM      5  C   UNL     1       2.473   8.034  18.335  0.00  0.00    +0.000 A 
ATOM      6  C   UNL     1       3.358   7.951  17.318  0.00  0.00    +0.000 A 
ATOM      7  C   UNL     1       4.277   6.829  17.195  0.00  0.00    +0.000 A 
ATOM      8  C   UNL     1       4.279   5.860  18.135  0.00  0.00    +0.000 A 
ATOM      9  N   UNL     1       3.299   5.921  19.139  0.00  0.00    +0.000 N 
ATOM     10  C   UNL     1       2.997   5.086  20.183  0.00  0.00    +0.000 A 
ATOM     11  N   UNL     1       1.948   5.528  20.835  0.00  0.00    +0.000 NA
ATOM     12  N   UNL     1       1.544   6.692  20.241  0.00  0.00    +0.000 NA
ATOM     13  C   UNL     1       2.369   6.946  19.246  0.00  0.00    +0.000 A 
BRANCH   8  14
ATOM     14  C   UNL     1       5.349   4.799  18.173  0.00  0.00    +0.000 C 
BRANCH  14  15
ATOM     15  N   UNL     1       6.308   4.823  17.059  0.00  0.00    +0.000 NA
ATOM     16  C   UNL     1       7.670   4.535  17.531  0.00  0.00    +0.000 C 
BRANCH  15  17
ATOM     17  C   UNL     1       5.939   3.827  16.028  0.00  0.00    +0.000 C 
BRANCH  17  18
ATOM     18  C   UNL     1       5.876   4.367  14.588  0.00  0.00    +0.000 C 
BRANCH  18  19
ATOM     19  O   UNL     1       6.332   3.382  13.666  0.00  0.00    +0.000 OA
ATOM     20  H   UNL     1       6.618   2.609  14.182  0.00  0.00    +0.000 HD
ENDBRANCH  18  19
ENDBRANCH  17  18
ENDBRANCH  15  17
ENDBRANCH  14  15
ENDBRANCH   8  14
ENDBRANCH   2   5
BRANCH   1  23
ATOM     21  C   UNL     1      -0.004  10.184  21.732  0.00  0.00    +0.000 C 
ATOM     22  C   UNL     1      -0.639  10.828  20.518  0.00  0.00    +0.000 A 
ATOM     23  C   UNL     1      -0.446  10.229  19.247  0.00  0.00    +0.000 A 
ATOM     24  C   UNL     1      -1.192  10.634  18.143  0.00  0.00    +0.000 A 
ATOM     25  C   UNL     1      -2.054  11.712  18.251  0.00  0.00    +0.000 A 
ATOM     26  C   UNL     1      -2.185  12.376  19.472  0.00  0.00    +0.000 A 
ATOM     27  C   UNL     1      -1.502  11.961  20.639  0.00  0.00    +0.000 A 
BRANCH  27  28
ATOM     28  C   UNL     1      -1.760  12.685  21.924  0.00  0.00    +0.000 A 
ATOM     29  C   UNL     1      -0.875  13.671  22.406  0.00  0.00    +0.000 A 
ATOM     30  C   UNL     1      -1.144  14.401  23.571  0.00  0.00    +0.000 A 
ATOM     31  C   UNL     1      -2.327  14.188  24.271  0.00  0.00    +0.000 A 
ATOM     32  C   UNL     1      -3.204  13.200  23.841  0.00  0.00    +0.000 A 
ATOM     33  C   UNL     1      -2.898  12.433  22.711  0.00  0.00    +0.000 A 
ENDBRANCH  27  28
ENDBRANCH   1  23
TORSDOF 8
ENDMDL
MODEL 4
REMARK VINA RESULT:      -7.4      2.083      3.078
REMARK  Name = 
REMARK  10 active torsions:
REMARK  status: ('A' for Active; 'I' for Inactive)
REMARK    1  A    between atoms: C_1  and  C_2
REMARK    2  A    between atoms: C_3  and  N_4
REMARK    3  A    between atoms: C_5  and  C_7
REMARK    4  A    between atoms: C_10  and  C_11
REMARK    5  A    between atoms: C_11  and  N_12
REMARK    6  A    between atoms: N_12  and  C_13
REMARK    7  A    between atoms: N_12  and  C_14
REMARK    8  A    between atoms: C_14  and  C_15
REMARK    9  A    between atoms: C_15  and  O_16
REMARK   10  A    between atoms: C_25  and  C_26
REMARK                            x       y       z     vdW  Elec       q    Type
REMARK                         _______ _______ _______ _____ _____    ______ ____
ROOT
ATOM      1  N   UNL     1       1.195   8.006  19.728  0.00  0.00    +0.000 N 
ATOM      2  C   UNL     1       1.062   8.883  20.786  0.00  0.00    +0.000 C 
ATOM      3  O   UNL     1       1.598   8.755  21.884  0.00  0.00    +0.000 OA
ATOM      4  H   UNL     1       0.481   8.052  19.005  0.00  0.00    +0.000 HD
ENDROOT
BRANCH   2   5
ATOM      5  C   UNL     1       0.151  10.043  20.517  0.00  0.00    +0.000 A 
ATOM      6  C   UNL     1      -0.186  10.317  19.237  0.00  0.00    +0.000 A 
ATOM      7  C   UNL     1      -1.230  11.277  18.911  0.00  0.00    +0.000 A 
ATOM      8  C   UNL     1      -1.910  11.888  19.903  0.00  0.00    +0.000 A 
ATOM      9  N   UNL     1      -1.494  11.653  21.224  0.00  0.00    +0.000 N 
ATOM     10  C   UNL     1      -1.922  12.149  22.427  0.00  0.00    +0.000 A 
ATOM     11  N   UNL     1      -1.187  11.678  23.406  0.00  0.00    +0.000 NA
ATOM     12  N   UNL     1      -0.259  10.831  22.864  0.00  0.00    +0.000 NA
ATOM     13  C   UNL     1      -0.461  10.790  21.562  0.00  0.00    +0.000 A 
BRANCH   8  14
ATOM     14  C   UNL     1      -3.137  12.719  19.625  0.00  0.00    +0.000 C 
BRANCH  14  15
ATOM     15  N   UNL     1      -4.421  12.012  19.731  0.00  0.00    +0.000 NA
ATOM     16  C   UNL     1      -5.314  12.681  20.688  0.00  0.00    +0.000 C 
BRANCH  15  17
ATOM     17  C   UNL     1      -5.095  11.949  18.413  0.00  0.00    +0.000 C 
BRANCH  17  18
ATOM     18  C   UNL     1      -6.631  11.873  18.465  0.00  0.00    +0.000 C 
BRANCH  18  19
ATOM     19  O   UNL     1      -7.061  10.516  18.509  0.00  0.00    +0.000 OA
ATOM     20  H   UNL     1      -6.265   9.956  18.500  0.00  0.00    +0.000 HD
ENDBRANCH  18  19
ENDBRANCH  17  18
ENDBRANCH  15  17
ENDBRANCH  14  15
ENDBRANCH   8  14
ENDBRANCH   2   5
BRANCH   1  23
ATOM     21  C   UNL     1       3.319   7.544  17.764  0.00  0.00    +0.000 C 
ATOM     22  C   UNL     1       3.070   6.591  18.913  0.00  0.00    +0.000 A 
ATOM     23  C   UNL     1       1.970   6.833  19.776  0.00  0.00    +0.000 A 
ATOM     24  C   UNL     1       1.553   5.871  20.694  0.00  0.00    +0.000 A 
ATOM     25  C   UNL     1       2.285   4.706  20.852  0.00  0.00    +0.000 A 
ATOM     26  C   UNL     1       3.426   4.493  20.078  0.00  0.00    +0.000 A 
ATOM     27  C   UNL     1       3.852   5.407  19.085  0.00  0.00    +0.000 A 
BRANCH  27  28
ATOM     28  C   UNL     1       5.045   5.062  18.248  0.00  0.00    +0.000 A 
ATOM     29  C   UNL     1       4.909   4.423  16.998  0.00  0.00    +0.000 A 
ATOM     30  C   UNL     1       6.014   4.158  16.178  0.00  0.00    +0.000 A 
ATOM     31  C   UNL     1       7.286   4.557  16.573  0.00  0.00    +0.000 A 
ATOM     32  C   UNL     1       7.459   5.158  17.813  0.00  0.00    +0.000 A 
ATOM     33  C   UNL     1       6.358   5.364  18.652  0.00  0.00    +0.000 A 
ENDBRANCH  27  28
ENDBRANCH   1  23
TORSDOF 8
ENDMDL
MODEL 5
REMARK VINA RESULT:      -7.3      2.109      3.572
REMARK  Name = 
REMARK  10 active torsions:
REMARK  status: ('A' for Active; 'I' for Inactive)
REMARK    1  A    between atoms: C_1  and  C_2
REMARK    2  A    between atoms: C_3  and  N_4
REMARK    3  A    between atoms: C_5  and  C_7
REMARK    4  A    between atoms: C_10  and  C_11
REMARK    5  A    between atoms: C_11  and  N_12
REMARK    6  A    between atoms: N_12  and  C_13
REMARK    7  A    between atoms: N_12  and  C_14
REMARK    8  A    between atoms: C_14  and  C_15
REMARK    9  A    between atoms: C_15  and  O_16
REMARK   10  A    between atoms: C_25  and  C_26
REMARK                            x       y       z     vdW  Elec       q    Type
REMARK                         _______ _______ _______ _____ _____    ______ ____
ROOT
ATOM      1  N   UNL     1       1.377   9.104  19.510  0.00  0.00    +0.000 N 
ATOM      2  C   UNL     1       0.318   9.772  18.927  0.00  0.00    +0.000 C 
ATOM      3  O   UNL     1      -0.075   9.610  17.775  0.00  0.00    +0.000 OA
ATOM      4  H   UNL     1       1.789   9.534  20.334  0.00  0.00    +0.000 HD
ENDROOT
BRANCH   2   5
ATOM      5  C   UNL     1      -0.338  10.787  19.817  0.00  0.00    +0.000 A 
ATOM      6  C   UNL     1      -1.007  11.812  19.245  0.00  0.00    +0.000 A 
ATOM      7  C   UNL     1      -1.848  12.705  20.026  0.00  0.00    +0.000 A 
ATOM      8  C   UNL     1      -2.000  12.493  21.351  0.00  0.00    +0.000 A 
ATOM      9  N   UNL     1      -1.235  11.475  21.942  0.00  0.00    +0.000 N 
ATOM     10  C   UNL     1      -1.113  11.050  23.239  0.00  0.00    +0.000 A 
ATOM     11  N   UNL     1      -0.224  10.089  23.325  0.00  0.00    +0.000 NA
ATOM     12  N   UNL     1       0.249   9.840  22.066  0.00  0.00    +0.000 NA
ATOM     13  C   UNL     1      -0.377  10.646  21.232  0.00  0.00    +0.000 A 
BRANCH   8  14
ATOM     14  C   UNL     1      -3.022  13.250  22.159  0.00  0.00    +0.000 C 
BRANCH  14  15
ATOM     15  N   UNL     1      -4.285  12.540  22.413  0.00  0.00    +0.000 NA
ATOM     16  C   UNL     1      -4.695  12.680  23.817  0.00  0.00    +0.000 C 
BRANCH  15  17
ATOM     17  C   UNL     1      -5.364  13.065  21.545  0.00  0.00    +0.000 C 
BRANCH  17  18
ATOM     18  C   UNL     1      -6.030  12.025  20.627  0.00  0.00    +0.000 C 
BRANCH  18  19
ATOM     19  O   UNL     1      -6.884  11.170  21.381  0.00  0.00    +0.000 OA
ATOM     20  H   UNL     1      -6.928  11.524  22.285  0.00  0.00    +0.000 HD
ENDBRANCH  18  19
ENDBRANCH  17  18
ENDBRANCH  15  17
ENDBRANCH  14  15
ENDBRANCH   8  14
ENDBRANCH   2   5
BRANCH   1  23
ATOM     21  C   UNL     1       1.498   6.349  20.496  0.00  0.00    +0.000 C 
ATOM     22  C   UNL     1       2.186   6.772  19.216  0.00  0.00    +0.000 A 
ATOM     23  C   UNL     1       2.156   8.140  18.844  0.00  0.00    +0.000 A 
ATOM     24  C   UNL     1       2.964   8.622  17.816  0.00  0.00    +0.000 A 
ATOM     25  C   UNL     1       3.724   7.741  17.067  0.00  0.00    +0.000 A 
ATOM     26  C   UNL     1       3.692   6.376  17.358  0.00  0.00    +0.000 A 
ATOM     27  C   UNL     1       2.942   5.846  18.434  0.00  0.00    +0.000 A 
BRANCH  27  28
ATOM     28  C   UNL     1       3.027   4.379  18.721  0.00  0.00    +0.000 A 
ATOM     29  C   UNL     1       2.042   3.479  18.262  0.00  0.00    +0.000 A 
ATOM     30  C   UNL     1       2.148   2.097  18.467  0.00  0.00    +0.000 A 
ATOM     31  C   UNL     1       3.264   1.572  19.109  0.00  0.00    +0.000 A 
ATOM     32  C   UNL     1       4.236   2.433  19.603  0.00  0.00    +0.000 A 
ATOM     33  C   UNL     1       4.091   3.816  19.448  0.00  0.00    +0.000 A 
ENDBRANCH  27  28
ENDBRANCH   1  23
TORSDOF 8
ENDMDL
MODEL 6
REMARK VINA RESULT:      -7.3      1.304      1.703
REMARK  Name = 
REMARK  10 active torsions:
REMARK  status: ('A' for Active; 'I' for Inactive)
REMARK    1  A    between atoms: C_1  and  C_2
REMARK    2  A    between atoms: C_3  and  N_4
REMARK    3  A    between atoms: C_5  and  C_7
REMARK    4  A    between atoms: C_10  and  C_11
REMARK    5  A    between atoms: C_11  and  N_12
REMARK    6  A    between atoms: N_12  and  C_13
REMARK    7  A    between atoms: N_12  and  C_14
REMARK    8  A    between atoms: C_14  and  C_15
REMARK    9  A    between atoms: C_15  and  O_16
REMARK   10  A    between atoms: C_25  and  C_26
REMARK                            x       y       z     vdW  Elec       q    Type
REMARK                         _______ _______ _______ _____ _____    ______ ____
ROOT
ATOM      1  N   UNL     1       0.953   8.002  20.304  0.00  0.00    +0.000 N 
ATOM      2  C   UNL     1       1.069   8.844  21.393  0.00  0.00    +0.000 C 
ATOM      3  O   UNL     1       1.910   8.742  22.282  0.00  0.00    +0.000 OA
ATOM      4  H   UNL     1       0.058   8.001  19.823  0.00  0.00    +0.000 HD
ENDROOT
BRANCH   2   5
ATOM      5  C   UNL     1       0.032   9.926  21.451  0.00  0.00    +0.000 A 
ATOM      6  C   UNL     1      -0.385  10.358  22.662  0.00  0.00    +0.000 A 
ATOM      7  C   UNL     1      -1.215  11.544  22.806  0.00  0.00    +0.000 A 
ATOM      8  C   UNL     1      -1.554  12.260  21.712  0.00  0.00    +0.000 A 
ATOM      9  N   UNL     1      -1.181  11.753  20.457  0.00  0.00    +0.000 N 
ATOM     10  C   UNL     1      -1.413  12.193  19.180  0.00  0.00    +0.000 A 
ATOM     11  N   UNL     1      -0.911  11.352  18.307  0.00  0.00    +0.000 NA
ATOM     12  N   UNL     1      -0.309  10.337  18.999  0.00  0.00    +0.000 NA
ATOM     13  C   UNL     1      -0.442  10.591  20.285  0.00  0.00    +0.000 A 
BRANCH   8  14
ATOM     14  C   UNL     1      -2.223  13.605  21.826  0.00  0.00    +0.000 C 
BRANCH  14  15
ATOM     15  N   UNL     1      -3.577  13.596  22.398  0.00  0.00    +0.000 NA
ATOM     16  C   UNL     1      -4.130  14.957  22.467  0.00  0.00    +0.000 C 
BRANCH  15  17
ATOM     17  C   UNL     1      -4.484  12.753  21.585  0.00  0.00    +0.000 C 
BRANCH  17  18
ATOM     18  C   UNL     1      -5.292  13.504  20.513  0.00  0.00    +0.000 C 
BRANCH  18  19
ATOM     19  O   UNL     1      -4.830  13.162  19.210  0.00  0.00    +0.000 OA
ATOM     20  H   UNL     1      -4.029  12.620  19.317  0.00  0.00    +0.000 HD
ENDBRANCH  18  19
ENDBRANCH  17  18
ENDBRANCH  15  17
ENDBRANCH  14  15
ENDBRANCH   8  14
ENDBRANCH   2   5
BRANCH   1  23
ATOM     21  C   UNL     1       2.755   7.964  17.995  0.00  0.00    +0.000 C 
ATOM     22  C   UNL     1       2.754   6.858  19.029  0.00  0.00    +0.000 A 
ATOM     23  C   UNL     1       1.796   6.900  20.074  0.00  0.00    +0.000 A 
ATOM     24  C   UNL     1       1.593   5.800  20.905  0.00  0.00    +0.000 A 
ATOM     25  C   UNL     1       2.410   4.689  20.791  0.00  0.00    +0.000 A 
ATOM     26  C   UNL     1       3.422   4.669  19.829  0.00  0.00    +0.000 A 
ATOM     27  C   UNL     1       3.625   5.731  18.917  0.00  0.00    +0.000 A 
BRANCH  27  28
ATOM     28  C   UNL     1       4.685   5.591  17.869  0.00  0.00    +0.000 A 
ATOM     29  C   UNL     1       4.460   4.859  16.684  0.00  0.00    +0.000 A 
ATOM     30  C   UNL     1       5.422   4.780  15.669  0.00  0.00    +0.000 A 
ATOM     31  C   UNL     1       6.627   5.462  15.795  0.00  0.00    +0.000 A 
ATOM     32  C   UNL     1       6.894   6.164  16.964  0.00  0.00    +0.000 A 
ATOM     33  C   UNL     1       5.952   6.187  17.999  0.00  0.00    +0.000 A 
ENDBRANCH  27  28
ENDBRANCH   1  23
TORSDOF 8
ENDMDL
MODEL 7
REMARK VINA RESULT:      -7.3      1.314      1.609
REMARK  Name = 
REMARK  10 active torsions:
REMARK  status: ('A' for Active; 'I' for Inactive)
REMARK    1  A    between atoms: C_1  and  C_2
REMARK    2  A    between atoms: C_3  and  N_4
REMARK    3  A    between atoms: C_5  and  C_7
REMARK    4  A    between atoms: C_10  and  C_11
REMARK    5  A    between atoms: C_11  and  N_12
REMARK    6  A    between atoms: N_12  and  C_13
REMARK    7  A    between atoms: N_12  and  C_14
REMARK    8  A    between atoms: C_14  and  C_15
REMARK    9  A    between atoms: C_15  and  O_16
REMARK   10  A    between atoms: C_25  and  C_26
REMARK                            x       y       z     vdW  Elec       q    Type
REMARK                         _______ _______ _______ _____ _____    ______ ____
ROOT
ATOM      1  N   UNL     1       0.991   7.769  20.358  0.00  0.00    +0.000 N 
ATOM      2  C   UNL     1       1.157   8.632  21.423  0.00  0.00    +0.000 C 
ATOM      3  O   UNL     1       2.080   8.591  22.232  0.00  0.00    +0.000 OA
ATOM      4  H   UNL     1       0.057   7.711  19.961  0.00  0.00    +0.000 HD
ENDROOT
BRANCH   2   5
ATOM      5  C   UNL     1       0.070   9.656  21.565  0.00  0.00    +0.000 A 
ATOM      6  C   UNL     1      -0.395   9.939  22.802  0.00  0.00    +0.000 A 
ATOM      7  C   UNL     1      -1.282  11.065  23.045  0.00  0.00    +0.000 A 
ATOM      8  C   UNL     1      -1.629  11.877  22.024  0.00  0.00    +0.000 A 
ATOM      9  N   UNL     1      -1.204  11.523  20.733  0.00  0.00    +0.000 N 
ATOM     10  C   UNL     1      -1.425  12.085  19.504  0.00  0.00    +0.000 A 
ATOM     11  N   UNL     1      -0.864  11.364  18.562  0.00  0.00    +0.000 NA
ATOM     12  N   UNL     1      -0.232  10.309  19.161  0.00  0.00    +0.000 NA
ATOM     13  C   UNL     1      -0.407  10.419  20.462  0.00  0.00    +0.000 A 
BRANCH   8  14
ATOM     14  C   UNL     1      -2.363  13.172  22.259  0.00  0.00    +0.000 C 
BRANCH  14  15
ATOM     15  N   UNL     1      -3.830  13.078  22.280  0.00  0.00    +0.000 NA
ATOM     16  C   UNL     1      -4.355  13.326  23.630  0.00  0.00    +0.000 C 
BRANCH  15  17
ATOM     17  C   UNL     1      -4.431  14.057  21.345  0.00  0.00    +0.000 C 
BRANCH  17  18
ATOM     18  C   UNL     1      -3.537  15.258  20.991  0.00  0.00    +0.000 C 
BRANCH  18  19
ATOM     19  O   UNL     1      -4.160  16.067  19.998  0.00  0.00    +0.000 OA
ATOM     20  H   UNL     1      -3.456  16.449  19.447  0.00  0.00    +0.000 HD
ENDBRANCH  18  19
ENDBRANCH  17  18
ENDBRANCH  15  17
ENDBRANCH  14  15
ENDBRANCH   8  14
ENDBRANCH   2   5
BRANCH   1  23
ATOM     21  C   UNL     1       2.761   7.913  18.029  0.00  0.00    +0.000 C 
ATOM     22  C   UNL     1       2.815   6.758  19.005  0.00  0.00    +0.000 A 
ATOM     23  C   UNL     1       1.871   6.712  20.062  0.00  0.00    +0.000 A 
ATOM     24  C   UNL     1       1.721   5.566  20.841  0.00  0.00    +0.000 A 
ATOM     25  C   UNL     1       2.577   4.493  20.661  0.00  0.00    +0.000 A 
ATOM     26  C   UNL     1       3.575   4.559  19.688  0.00  0.00    +0.000 A 
ATOM     27  C   UNL     1       3.726   5.671  18.827  0.00  0.00    +0.000 A 
BRANCH  27  28
ATOM     28  C   UNL     1       4.776   5.624  17.760  0.00  0.00    +0.000 A 
ATOM     29  C   UNL     1       6.038   6.227  17.941  0.00  0.00    +0.000 A 
ATOM     30  C   UNL     1       7.050   6.129  16.976  0.00  0.00    +0.000 A 
ATOM     31  C   UNL     1       6.838   5.392  15.816  0.00  0.00    +0.000 A 
ATOM     32  C   UNL     1       5.595   4.814  15.593  0.00  0.00    +0.000 A 
ATOM     33  C   UNL     1       4.570   4.968  16.533  0.00  0.00    +0.000 A 
ENDBRANCH  27  28
ENDBRANCH   1  23
TORSDOF 8
ENDMDL
MODEL 8
REMARK VINA RESULT:      -7.3      2.742     10.226
REMARK  Name = 
REMARK  10 active torsions:
REMARK  status: ('A' for Active; 'I' for Inactive)
REMARK    1  A    between atoms: C_1  and  C_2
REMARK    2  A    between atoms: C_3  and  N_4
REMARK    3  A    between atoms: C_5  and  C_7
REMARK    4  A    between atoms: C_10  and  C_11
REMARK    5  A    between atoms: C_11  and  N_12
REMARK    6  A    between atoms: N_12  and  C_13
REMARK    7  A    between atoms: N_12  and  C_14
REMARK    8  A    between atoms: C_14  and  C_15
REMARK    9  A    between atoms: C_15  and  O_16
REMARK   10  A    between atoms: C_25  and  C_26
REMARK                            x       y       z     vdW  Elec       q    Type
REMARK                         _______ _______ _______ _____ _____    ______ ____
ROOT
ATOM      1  N   UNL     1       0.436   9.148  18.989  0.00  0.00    +0.000 N 
ATOM      2  C   UNL     1       1.682   9.331  18.421  0.00  0.00    +0.000 C 
ATOM      3  O   UNL     1       2.131  10.403  18.026  0.00  0.00    +0.000 OA
ATOM      4  H   UNL     1       0.069   8.200  18.987  0.00  0.00    +0.000 HD
ENDROOT
BRANCH   2   5
ATOM      5  C   UNL     1       2.484   8.071  18.272  0.00  0.00    +0.000 A 
ATOM      6  C   UNL     1       3.401   8.002  17.281  0.00  0.00    +0.000 A 
ATOM      7  C   UNL     1       4.363   6.914  17.207  0.00  0.00    +0.000 A 
ATOM      8  C   UNL     1       4.375   5.964  18.166  0.00  0.00    +0.000 A 
ATOM      9  N   UNL     1       3.365   6.006  19.141  0.00  0.00    +0.000 N 
ATOM     10  C   UNL     1       3.065   5.181  20.193  0.00  0.00    +0.000 A 
ATOM     11  N   UNL     1       1.982   5.595  20.806  0.00  0.00    +0.000 NA
ATOM     12  N   UNL     1       1.552   6.732  20.178  0.00  0.00    +0.000 NA
ATOM     13  C   UNL     1       2.395   6.998  19.202  0.00  0.00    +0.000 A 
BRANCH   8  14
ATOM     14  C   UNL     1       5.482   4.945  18.255  0.00  0.00    +0.000 C 
BRANCH  14  15
ATOM     15  N   UNL     1       6.794   5.387  17.761  0.00  0.00    +0.000 NA
ATOM     16  C   UNL     1       7.755   5.522  18.865  0.00  0.00    +0.000 C 
BRANCH  15  17
ATOM     17  C   UNL     1       7.333   4.424  16.773  0.00  0.00    +0.000 C 
BRANCH  17  18
ATOM     18  C   UNL     1       6.901   4.668  15.317  0.00  0.00    +0.000 C 
BRANCH  18  19
ATOM     19  O   UNL     1       6.350   3.481  14.755  0.00  0.00    +0.000 OA
ATOM     20  H   UNL     1       6.222   2.847  15.481  0.00  0.00    +0.000 HD
ENDBRANCH  18  19
ENDBRANCH  17  18
ENDBRANCH  15  17
ENDBRANCH  14  15
ENDBRANCH   8  14
ENDBRANCH   2   5
BRANCH   1  23
ATOM     21  C   UNL     1       0.091  10.351  21.637  0.00  0.00    +0.000 C 
ATOM     22  C   UNL     1      -0.644  10.870  20.420  0.00  0.00    +0.000 A 
ATOM     23  C   UNL     1      -0.493  10.185  19.187  0.00  0.00    +0.000 A 
ATOM     24  C   UNL     1      -1.321  10.470  18.103  0.00  0.00    +0.000 A 
ATOM     25  C   UNL     1      -2.230  11.510  18.184  0.00  0.00    +0.000 A 
ATOM     26  C   UNL     1      -2.326  12.258  19.359  0.00  0.00    +0.000 A 
ATOM     27  C   UNL     1      -1.556  11.966  20.510  0.00  0.00    +0.000 A 
BRANCH  27  28
ATOM     28  C   UNL     1      -1.779  12.773  21.752  0.00  0.00    +0.000 A 
ATOM     29  C   UNL     1      -2.907  12.566  22.573  0.00  0.00    +0.000 A 
ATOM     30  C   UNL     1      -3.088  13.269  23.772  0.00  0.00    +0.000 A 
ATOM     31  C   UNL     1      -2.125  14.175  24.201  0.00  0.00    +0.000 A 
ATOM     32  C   UNL     1      -1.019  14.426  23.399  0.00  0.00    +0.000 A 
ATOM     33  C   UNL     1      -0.876  13.766  22.173  0.00  0.00    +0.000 A 
ENDBRANCH  27  28
ENDBRANCH   1  23
TORSDOF 8
ENDMDL
MODEL 9
REMARK VINA RESULT:      -7.2      3.174     10.279
REMARK  Name = 
REMARK  10 active torsions:
REMARK  status: ('A' for Active; 'I' for Inactive)
REMARK    1  A    between atoms: C_1  and  C_2
REMARK    2  A    between atoms: C_3  and  N_4
REMARK    3  A    between atoms: C_5  and  C_7
REMARK    4  A    between atoms: C_10  and  C_11
REMARK    5  A    between atoms: C_11  and  N_12
REMARK    6  A    between atoms: N_12  and  C_13
REMARK    7  A    between atoms: N_12  and  C_14
REMARK    8  A    between atoms: C_14  and  C_15
REMARK    9  A    between atoms: C_15  and  O_16
REMARK   10  A    between atoms: C_25  and  C_26
REMARK                            x       y       z     vdW  Elec       q    Type
REMARK                         _______ _______ _______ _____ _____    ______ ____
ROOT
ATOM      1  N   UNL     1       0.978   9.595  18.472  0.00  0.00    +0.000 N 
ATOM      2  C   UNL     1       1.452   8.748  19.453  0.00  0.00    +0.000 C 
ATOM      3  O   UNL     1       1.268   8.887  20.659  0.00  0.00    +0.000 OA
ATOM      4  H   UNL     1       1.442   9.551  17.569  0.00  0.00    +0.000 HD
ENDROOT
BRANCH   2   5
ATOM      5  C   UNL     1       2.280   7.607  18.938  0.00  0.00    +0.000 A 
ATOM      6  C   UNL     1       3.048   7.808  17.845  0.00  0.00    +0.000 A 
ATOM      7  C   UNL     1       4.037   6.831  17.417  0.00  0.00    +0.000 A 
ATOM      8  C   UNL     1       4.227   5.709  18.144  0.00  0.00    +0.000 A 
ATOM      9  N   UNL     1       3.367   5.479  19.229  0.00  0.00    +0.000 N 
ATOM     10  C   UNL     1       3.256   4.437  20.112  0.00  0.00    +0.000 A 
ATOM     11  N   UNL     1       2.255   4.638  20.935  0.00  0.00    +0.000 NA
ATOM     12  N   UNL     1       1.689   5.844  20.624  0.00  0.00    +0.000 NA
ATOM     13  C   UNL     1       2.372   6.363  19.624  0.00  0.00    +0.000 A 
BRANCH   8  14
ATOM     14  C   UNL     1       5.380   4.777  17.870  0.00  0.00    +0.000 C 
BRANCH  14  15
ATOM     15  N   UNL     1       6.594   5.408  17.333  0.00  0.00    +0.000 NA
ATOM     16  C   UNL     1       7.635   5.513  18.365  0.00  0.00    +0.000 C 
BRANCH  15  17
ATOM     17  C   UNL     1       7.129   4.628  16.193  0.00  0.00    +0.000 C 
BRANCH  17  18
ATOM     18  C   UNL     1       6.300   4.707  14.898  0.00  0.00    +0.000 C 
BRANCH  18  19
ATOM     19  O   UNL     1       6.354   3.470  14.196  0.00  0.00    +0.000 OA
ATOM     20  H   UNL     1       7.279   3.169  14.203  0.00  0.00    +0.000 HD
ENDBRANCH  18  19
ENDBRANCH  17  18
ENDBRANCH  15  17
ENDBRANCH  14  15
ENDBRANCH   8  14
ENDBRANCH   2   5
BRANCH   1  23
ATOM     21  C   UNL     1      -1.917   9.594  18.027  0.00  0.00    +0.000 C 
ATOM     22  C   UNL     1      -1.200  10.784  18.626  0.00  0.00    +0.000 A 
ATOM     23  C   UNL     1       0.214  10.747  18.734  0.00  0.00    +0.000 A 
ATOM     24  C   UNL     1       0.940  11.893  19.052  0.00  0.00    +0.000 A 
ATOM     25  C   UNL     1       0.274  13.062  19.379  0.00  0.00    +0.000 A 
ATOM     26  C   UNL     1      -1.121  13.091  19.371  0.00  0.00    +0.000 A 
ATOM     27  C   UNL     1      -1.902  11.974  18.990  0.00  0.00    +0.000 A 
BRANCH  27  28
ATOM     28  C   UNL     1      -3.392  12.118  18.937  0.00  0.00    +0.000 A 
ATOM     29  C   UNL     1      -4.126  11.775  17.782  0.00  0.00    +0.000 A 
ATOM     30  C   UNL     1      -5.525  11.842  17.747  0.00  0.00    +0.000 A 
ATOM     31  C   UNL     1      -6.233  12.222  18.882  0.00  0.00    +0.000 A 
ATOM     32  C   UNL     1      -5.539  12.598  20.025  0.00  0.00    +0.000 A 
ATOM     33  C   UNL     1      -4.140  12.587  20.032  0.00  0.00    +0.000 A 
ENDBRANCH  27  28
ENDBRANCH   1  23
TORSDOF 8
ENDMDL
