MODEL 1
REMARK VINA RESULT:      -7.8      0.000      0.000
REMARK  Name = 
REMARK  2 active torsions:
REMARK  status: ('A' for Active; 'I' for Inactive)
REMARK    1  A    between atoms: N_8  and  C_9
REMARK    2  A    between atoms: C_12  and  N_13
REMARK                            x       y       z     vdW  Elec       q    Type
REMARK                         _______ _______ _______ _____ _____    ______ ____
ROOT
ATOM      1  C   UNL     1       2.100   8.120  19.010  0.00  0.00    +0.000 A 
ATOM      2  C   UNL     1       1.838   7.806  20.346  0.00  0.00    +0.000 A 
ATOM      3  C   UNL     1       0.940   8.561  21.113  0.00  0.00    +0.000 A 
ATOM      4  C   UNL     1       0.271   9.635  20.549  0.00  0.00    +0.000 A 
ATOM      5  C   UNL     1       0.506   9.958  19.210  0.00  0.00    +0.000 A 
ATOM      6  C   UNL     1       1.436   9.218  18.452  0.00  0.00    +0.000 A 
ENDROOT
BRANCH   1  14
ATOM      7  N   UNL     1       6.471   5.471  14.931  0.00  0.00    +0.000 N 
ATOM      8  C   UNL     1       5.568   5.319  15.899  0.00  0.00    +0.000 A 
ATOM      9  N   UNL     1       5.338   4.051  16.319  0.00  0.00    +0.000 NA
ATOM     10  C   UNL     1       4.336   4.200  17.148  0.00  0.00    +0.000 A 
ATOM     11  N   UNL     1       3.981   5.522  17.226  0.00  0.00    +0.000 N 
ATOM     12  C   UNL     1       2.879   6.029  17.929  0.00  0.00    +0.000 C 
ATOM     13  O   UNL     1       1.995   5.240  18.232  0.00  0.00    +0.000 OA
ATOM     14  N   UNL     1       3.004   7.378  18.215  0.00  0.00    +0.000 N 
ATOM     15  N   UNL     1       4.819   6.271  16.458  0.00  0.00    +0.000 NA
ATOM     16  H   UNL     1       6.748   4.613  14.466  0.00  0.00    +0.000 HD
ATOM     17  H   UNL     1       6.335   6.243  14.291  0.00  0.00    +0.000 HD
ATOM     18  H   UNL     1       3.850   7.837  17.877  0.00  0.00    +0.000 HD
ENDBRANCH   1  14
BRANCH   4  19
ATOM     19  N   UNL     1      -0.660  10.393  21.294  0.00  0.00    +0.000 N 
ATOM     20  C   UNL     1      -0.367  11.628  21.852  0.00  0.00    +0.000 C 
ATOM     21  O   UNL     1       0.652  12.298  21.764  0.00  0.00    +0.000 OA
ATOM     22  N   UNL     1      -1.477  12.173  22.501  0.00  0.00    +0.000 N 
ATOM     23  C   UNL     1      -1.739  13.501  22.699  0.00  0.00    +0.000 A 
ATOM     24  N   UNL     1      -2.825  13.640  23.422  0.00  0.00    +0.000 NA
ATOM     25  C   UNL     1      -3.186  12.355  23.673  0.00  0.00    +0.000 A 
ATOM     26  N   UNL     1      -4.204  12.154  24.494  0.00  0.00    +0.000 N 
ATOM     27  N   UNL     1      -2.468  11.419  23.054  0.00  0.00    +0.000 NA
ATOM     28  H   UNL     1      -1.641  10.125  21.278  0.00  0.00    +0.000 HD
ATOM     29  H   UNL     1      -4.766  12.936  24.801  0.00  0.00    +0.000 HD
ATOM     30  H   UNL     1      -4.518  11.227  24.740  0.00  0.00    +0.000 HD
ENDBRANCH   4  19
TORSDOF 2
ENDMDL
MODEL 2
REMARK VINA RESULT:      -7.8      0.295      1.023
REMARK  Name = 
REMARK  2 active torsions:
REMARK  status: ('A' for Active; 'I' for Inactive)
REMARK    1  A    between atoms: N_8  and  C_9
REMARK    2  A    between atoms: C_12  and  N_13
REMARK                            x       y       z     vdW  Elec       q    Type
REMARK                         _______ _______ _______ _____ _____    ______ ____
ROOT
ATOM      1  C   UNL     1       2.208   8.169  18.693  0.00  0.00    +0.000 A 
ATOM      2  C   UNL     1       1.519   9.251  18.138  0.00  0.00    +0.000 A 
ATOM      3  C   UNL     1       0.610  10.004  18.892  0.00  0.00    +0.000 A 
ATOM      4  C   UNL     1       0.388   9.700  20.226  0.00  0.00    +0.000 A 
ATOM      5  C   UNL     1       1.078   8.632  20.806  0.00  0.00    +0.000 A 
ATOM      6  C   UNL     1       1.965   7.855  20.035  0.00  0.00    +0.000 A 
ENDROOT
BRANCH   1  14
ATOM      7  N   UNL     1       6.636   5.319  14.815  0.00  0.00    +0.000 N 
ATOM      8  C   UNL     1       5.733   5.218  15.789  0.00  0.00    +0.000 A 
ATOM      9  N   UNL     1       5.523   3.979  16.296  0.00  0.00    +0.000 NA
ATOM     10  C   UNL     1       4.517   4.168  17.112  0.00  0.00    +0.000 A 
ATOM     11  N   UNL     1       4.139   5.486  17.097  0.00  0.00    +0.000 N 
ATOM     12  C   UNL     1       3.026   6.021  17.761  0.00  0.00    +0.000 C 
ATOM     13  O   UNL     1       2.156   5.240  18.117  0.00  0.00    +0.000 OA
ATOM     14  N   UNL     1       3.128   7.389  17.953  0.00  0.00    +0.000 N 
ATOM     15  N   UNL     1       4.966   6.194  16.279  0.00  0.00    +0.000 NA
ATOM     16  H   UNL     1       6.929   4.435  14.411  0.00  0.00    +0.000 HD
ATOM     17  H   UNL     1       6.488   6.042  14.121  0.00  0.00    +0.000 HD
ATOM     18  H   UNL     1       3.966   7.838  17.584  0.00  0.00    +0.000 HD
ENDBRANCH   1  14
BRANCH   4  19
ATOM     19  N   UNL     1      -0.502  10.463  21.014  0.00  0.00    +0.000 N 
ATOM     20  C   UNL     1      -0.138  11.635  21.660  0.00  0.00    +0.000 C 
ATOM     21  O   UNL     1       0.923  12.241  21.628  0.00  0.00    +0.000 OA
ATOM     22  N   UNL     1      -1.220  12.205  22.334  0.00  0.00    +0.000 N 
ATOM     23  C   UNL     1      -1.399  13.530  22.623  0.00  0.00    +0.000 A 
ATOM     24  N   UNL     1      -2.484  13.690  23.343  0.00  0.00    +0.000 NA
ATOM     25  C   UNL     1      -2.930  12.417  23.500  0.00  0.00    +0.000 A 
ATOM     26  N   UNL     1      -3.970  12.225  24.296  0.00  0.00    +0.000 N 
ATOM     27  N   UNL     1      -2.265  11.481  22.824  0.00  0.00    +0.000 NA
ATOM     28  H   UNL     1      -1.498  10.262  20.969  0.00  0.00    +0.000 HD
ATOM     29  H   UNL     1      -4.485  13.019  24.651  0.00  0.00    +0.000 HD
ATOM     30  H   UNL     1      -4.346  11.306  24.473  0.00  0.00    +0.000 HD
ENDBRANCH   4  19
TORSDOF 2
ENDMDL
MODEL 3
REMARK VINA RESULT:      -7.7      1.315      9.889
REMARK  Name = 
REMARK  2 active torsions:
REMARK  status: ('A' for Active; 'I' for Inactive)
REMARK    1  A    between atoms: N_8  and  C_9
REMARK    2  A    between atoms: C_12  and  N_13
REMARK                            x       y       z     vdW  Elec       q    Type
REMARK                         _______ _______ _______ _____ _____    ______ ____
ROOT
ATOM      1  C   UNL     1       0.617   9.516  19.644  0.00  0.00    +0.000 A 
ATOM      2  C   UNL     1       1.155   8.475  20.405  0.00  0.00    +0.000 A 
ATOM      3  C   UNL     1       2.129   7.614  19.883  0.00  0.00    +0.000 A 
ATOM      4  C   UNL     1       2.600   7.792  18.592  0.00  0.00    +0.000 A 
ATOM      5  C   UNL     1       2.087   8.836  17.818  0.00  0.00    +0.000 A 
ATOM      6  C   UNL     1       1.082   9.679  18.334  0.00  0.00    +0.000 A 
ENDROOT
BRANCH   1  14
ATOM      7  N   UNL     1      -4.088  13.819  21.099  0.00  0.00    +0.000 N 
ATOM      8  C   UNL     1      -3.168  12.946  21.507  0.00  0.00    +0.000 A 
ATOM      9  N   UNL     1      -3.026  12.796  22.846  0.00  0.00    +0.000 NA
ATOM     10  C   UNL     1      -1.988  12.003  22.940  0.00  0.00    +0.000 A 
ATOM     11  N   UNL     1      -1.526  11.684  21.689  0.00  0.00    +0.000 N 
ATOM     12  C   UNL     1      -0.363  10.950  21.414  0.00  0.00    +0.000 C 
ATOM     13  O   UNL     1       0.464  10.852  22.309  0.00  0.00    +0.000 OA
ATOM     14  N   UNL     1      -0.370  10.397  20.144  0.00  0.00    +0.000 N 
ATOM     15  N   UNL     1      -2.326  12.247  20.743  0.00  0.00    +0.000 NA
ATOM     16  H   UNL     1      -4.448  14.430  21.824  0.00  0.00    +0.000 HD
ATOM     17  H   UNL     1      -3.912  14.300  20.226  0.00  0.00    +0.000 HD
ATOM     18  H   UNL     1      -1.187  10.596  19.567  0.00  0.00    +0.000 HD
ENDBRANCH   1  14
BRANCH   4  19
ATOM     19  N   UNL     1       3.602   6.954  18.055  0.00  0.00    +0.000 N 
ATOM     20  C   UNL     1       3.385   5.629  17.710  0.00  0.00    +0.000 C 
ATOM     21  O   UNL     1       2.349   4.981  17.729  0.00  0.00    +0.000 OA
ATOM     22  N   UNL     1       4.533   5.047  17.166  0.00  0.00    +0.000 N 
ATOM     23  C   UNL     1       4.582   4.007  16.279  0.00  0.00    +0.000 A 
ATOM     24  N   UNL     1       5.830   3.667  16.056  0.00  0.00    +0.000 NA
ATOM     25  C   UNL     1       6.521   4.516  16.860  0.00  0.00    +0.000 A 
ATOM     26  N   UNL     1       7.830   4.345  16.951  0.00  0.00    +0.000 N 
ATOM     27  N   UNL     1       5.797   5.447  17.480  0.00  0.00    +0.000 NA
ATOM     28  H   UNL     1       4.472   7.369  17.732  0.00  0.00    +0.000 HD
ATOM     29  H   UNL     1       8.297   3.697  16.332  0.00  0.00    +0.000 HD
ATOM     30  H   UNL     1       8.406   4.926  17.540  0.00  0.00    +0.000 HD
ENDBRANCH   4  19
TORSDOF 2
ENDMDL
MODEL 4
REMARK VINA RESULT:      -7.7      1.483      1.595
REMARK  Name = 
REMARK  2 active torsions:
REMARK  status: ('A' for Active; 'I' for Inactive)
REMARK    1  A    between atoms: N_8  and  C_9
REMARK    2  A    between atoms: C_12  and  N_13
REMARK                            x       y       z     vdW  Elec       q    Type
REMARK                         _______ _______ _______ _____ _____    ______ ____
ROOT
ATOM      1  C   UNL     1       2.873   7.448  18.400  0.00  0.00    +0.000 A 
ATOM      2  C   UNL     1       2.468   7.100  19.691  0.00  0.00    +0.000 A 
ATOM      3  C   UNL     1       1.604   7.918  20.432  0.00  0.00    +0.000 A 
ATOM      4  C   UNL     1       1.112   9.092  19.885  0.00  0.00    +0.000 A 
ATOM      5  C   UNL     1       1.493   9.452  18.589  0.00  0.00    +0.000 A 
ATOM      6  C   UNL     1       2.389   8.645  17.860  0.00  0.00    +0.000 A 
ENDROOT
BRANCH   1  14
ATOM      7  N   UNL     1       6.229   3.642  14.274  0.00  0.00    +0.000 N 
ATOM      8  C   UNL     1       6.174   4.320  15.420  0.00  0.00    +0.000 A 
ATOM      9  N   UNL     1       7.271   4.260  16.213  0.00  0.00    +0.000 NA
ATOM     10  C   UNL     1       6.881   4.888  17.294  0.00  0.00    +0.000 A 
ATOM     11  N   UNL     1       5.587   5.316  17.148  0.00  0.00    +0.000 N 
ATOM     12  C   UNL     1       4.812   5.922  18.147  0.00  0.00    +0.000 C 
ATOM     13  O   UNL     1       5.180   5.783  19.304  0.00  0.00    +0.000 OA
ATOM     14  N   UNL     1       3.747   6.644  17.632  0.00  0.00    +0.000 N 
ATOM     15  N   UNL     1       5.134   5.002  15.903  0.00  0.00    +0.000 NA
ATOM     16  H   UNL     1       7.001   2.988  14.201  0.00  0.00    +0.000 HD
ATOM     17  H   UNL     1       5.359   3.269  13.916  0.00  0.00    +0.000 HD
ATOM     18  H   UNL     1       3.644   6.637  16.617  0.00  0.00    +0.000 HD
ENDBRANCH   1  14
BRANCH   4  19
ATOM     19  N   UNL     1       0.218   9.917  20.602  0.00  0.00    +0.000 N 
ATOM     20  C   UNL     1       0.588  11.120  21.183  0.00  0.00    +0.000 C 
ATOM     21  O   UNL     1       1.660  11.706  21.140  0.00  0.00    +0.000 OA
ATOM     22  N   UNL     1      -0.498  11.749  21.795  0.00  0.00    +0.000 N 
ATOM     23  C   UNL     1      -0.660  13.092  21.997  0.00  0.00    +0.000 A 
ATOM     24  N   UNL     1      -1.758  13.314  22.680  0.00  0.00    +0.000 NA
ATOM     25  C   UNL     1      -2.231  12.061  22.904  0.00  0.00    +0.000 A 
ATOM     26  N   UNL     1      -3.292  11.936  23.684  0.00  0.00    +0.000 N 
ATOM     27  N   UNL     1      -1.568  11.074  22.303  0.00  0.00    +0.000 NA
ATOM     28  H   UNL     1      -0.780   9.730  20.546  0.00  0.00    +0.000 HD
ATOM     29  H   UNL     1      -3.801  12.759  23.977  0.00  0.00    +0.000 HD
ATOM     30  H   UNL     1      -3.689  11.037  23.909  0.00  0.00    +0.000 HD
ENDBRANCH   4  19
TORSDOF 2
ENDMDL
MODEL 5
REMARK VINA RESULT:      -7.6      1.896     10.050
REMARK  Name = 
REMARK  2 active torsions:
REMARK  status: ('A' for Active; 'I' for Inactive)
REMARK    1  A    between atoms: N_8  and  C_9
REMARK    2  A    between atoms: C_12  and  N_13
REMARK                            x       y       z     vdW  Elec       q    Type
REMARK                         _______ _______ _______ _____ _____    ______ ____
ROOT
ATOM      1  C   UNL     1      -0.150  10.127  21.749  0.00  0.00    +0.000 A 
ATOM      2  C   UNL     1      -0.065   9.955  20.365  0.00  0.00    +0.000 A 
ATOM      3  C   UNL     1       0.788   8.998  19.798  0.00  0.00    +0.000 A 
ATOM      4  C   UNL     1       1.557   8.180  20.609  0.00  0.00    +0.000 A 
ATOM      5  C   UNL     1       1.476   8.324  21.996  0.00  0.00    +0.000 A 
ATOM      6  C   UNL     1       0.645   9.311  22.562  0.00  0.00    +0.000 A 
ENDROOT
BRANCH   1  14
ATOM      7  N   UNL     1      -4.747  14.026  24.285  0.00  0.00    +0.000 N 
ATOM      8  C   UNL     1      -3.465  13.800  24.003  0.00  0.00    +0.000 A 
ATOM      9  N   UNL     1      -2.590  14.780  24.334  0.00  0.00    +0.000 NA
ATOM     10  C   UNL     1      -1.464  14.346  23.825  0.00  0.00    +0.000 A 
ATOM     11  N   UNL     1      -1.661  13.136  23.211  0.00  0.00    +0.000 N 
ATOM     12  C   UNL     1      -0.702  12.437  22.465  0.00  0.00    +0.000 C 
ATOM     13  O   UNL     1       0.265  13.067  22.062  0.00  0.00    +0.000 OA
ATOM     14  N   UNL     1      -0.998  11.089  22.347  0.00  0.00    +0.000 N 
ATOM     15  N   UNL     1      -2.954  12.741  23.373  0.00  0.00    +0.000 NA
ATOM     16  H   UNL     1      -4.968  14.984  24.533  0.00  0.00    +0.000 HD
ATOM     17  H   UNL     1      -5.436  13.606  23.673  0.00  0.00    +0.000 HD
ATOM     18  H   UNL     1      -1.861  10.774  22.789  0.00  0.00    +0.000 HD
ENDBRANCH   1  14
BRANCH   4  19
ATOM     19  N   UNL     1       2.402   7.189  20.061  0.00  0.00    +0.000 N 
ATOM     20  C   UNL     1       2.155   5.829  20.171  0.00  0.00    +0.000 C 
ATOM     21  O   UNL     1       1.198   5.250  20.665  0.00  0.00    +0.000 OA
ATOM     22  N   UNL     1       3.126   5.076  19.506  0.00  0.00    +0.000 N 
ATOM     23  C   UNL     1       2.967   3.830  18.964  0.00  0.00    +0.000 A 
ATOM     24  N   UNL     1       4.114   3.396  18.497  0.00  0.00    +0.000 NA
ATOM     25  C   UNL     1       4.966   4.408  18.802  0.00  0.00    +0.000 A 
ATOM     26  N   UNL     1       6.253   4.221  18.558  0.00  0.00    +0.000 N 
ATOM     27  N   UNL     1       4.408   5.501  19.321  0.00  0.00    +0.000 NA
ATOM     28  H   UNL     1       3.124   7.465  19.400  0.00  0.00    +0.000 HD
ATOM     29  H   UNL     1       6.554   3.409  18.036  0.00  0.00    +0.000 HD
ATOM     30  H   UNL     1       6.946   4.920  18.774  0.00  0.00    +0.000 HD
ENDBRANCH   4  19
TORSDOF 2
ENDMDL
MODEL 6
REMARK VINA RESULT:      -7.6      1.755      9.922
REMARK  Name = 
REMARK  2 active torsions:
REMARK  status: ('A' for Active; 'I' for Inactive)
REMARK    1  A    between atoms: N_8  and  C_9
REMARK    2  A    between atoms: C_12  and  N_13
REMARK                            x       y       z     vdW  Elec       q    Type
REMARK                         _______ _______ _______ _____ _____    ______ ____
ROOT
ATOM      1  C   UNL     1       1.221   8.969  19.472  0.00  0.00    +0.000 A 
ATOM      2  C   UNL     1       1.726   7.810  20.066  0.00  0.00    +0.000 A 
ATOM      3  C   UNL     1       2.602   6.958  19.379  0.00  0.00    +0.000 A 
ATOM      4  C   UNL     1       3.005   7.263  18.089  0.00  0.00    +0.000 A 
ATOM      5  C   UNL     1       2.524   8.426  17.481  0.00  0.00    +0.000 A 
ATOM      6  C   UNL     1       1.616   9.262  18.162  0.00  0.00    +0.000 A 
ENDROOT
BRANCH   1  14
ATOM      7  N   UNL     1      -2.964  13.436  21.775  0.00  0.00    +0.000 N 
ATOM      8  C   UNL     1      -2.174  12.386  21.995  0.00  0.00    +0.000 A 
ATOM      9  N   UNL     1      -2.100  11.939  23.272  0.00  0.00    +0.000 NA
ATOM     10  C   UNL     1      -1.172  11.018  23.202  0.00  0.00    +0.000 A 
ATOM     11  N   UNL     1      -0.709  10.913  21.916  0.00  0.00    +0.000 N 
ATOM     12  C   UNL     1       0.363  10.110  21.501  0.00  0.00    +0.000 C 
ATOM     13  O   UNL     1       1.139   9.720  22.361  0.00  0.00    +0.000 OA
ATOM     14  N   UNL     1       0.333   9.844  20.141  0.00  0.00    +0.000 N 
ATOM     15  N   UNL     1      -1.398  11.762  21.106  0.00  0.00    +0.000 NA
ATOM     16  H   UNL     1      -3.272  13.921  22.611  0.00  0.00    +0.000 HD
ATOM     17  H   UNL     1      -2.698  14.064  21.027  0.00  0.00    +0.000 HD
ATOM     18  H   UNL     1      -0.432  10.264  19.614  0.00  0.00    +0.000 HD
ENDBRANCH   1  14
BRANCH   4  19
ATOM     19  N   UNL     1       3.908   6.434  17.387  0.00  0.00    +0.000 N 
ATOM     20  C   UNL     1       5.258   6.721  17.249  0.00  0.00    +0.000 C 
ATOM     21  O   UNL     1       5.910   7.639  17.726  0.00  0.00    +0.000 OA
ATOM     22  N   UNL     1       5.926   5.717  16.545  0.00  0.00    +0.000 N 
ATOM     23  C   UNL     1       7.248   5.382  16.651  0.00  0.00    +0.000 A 
ATOM     24  N   UNL     1       7.546   4.452  15.775  0.00  0.00    +0.000 NA
ATOM     25  C   UNL     1       6.369   4.263  15.124  0.00  0.00    +0.000 A 
ATOM     26  N   UNL     1       6.370   3.449  14.081  0.00  0.00    +0.000 N 
ATOM     27  N   UNL     1       5.322   4.925  15.614  0.00  0.00    +0.000 NA
ATOM     28  H   UNL     1       3.616   5.497  17.122  0.00  0.00    +0.000 HD
ATOM     29  H   UNL     1       7.188   2.892  13.877  0.00  0.00    +0.000 HD
ATOM     30  H   UNL     1       5.538   3.274  13.538  0.00  0.00    +0.000 HD
ENDBRANCH   4  19
TORSDOF 2
ENDMDL
MODEL 7
REMARK VINA RESULT:      -7.6      1.317      1.682
REMARK  Name = 
REMARK  2 active torsions:
REMARK  status: ('A' for Active; 'I' for Inactive)
REMARK    1  A    between atoms: N_8  and  C_9
REMARK    2  A    between atoms: C_12  and  N_13
REMARK                            x       y       z     vdW  Elec       q    Type
REMARK                         _______ _______ _______ _____ _____    ______ ____
ROOT
ATOM      1  C   UNL     1       2.726   7.694  18.356  0.00  0.00    +0.000 A 
ATOM      2  C   UNL     1       2.205   8.881  17.833  0.00  0.00    +0.000 A 
ATOM      3  C   UNL     1       1.316   9.676  18.568  0.00  0.00    +0.000 A 
ATOM      4  C   UNL     1       0.947   9.308  19.852  0.00  0.00    +0.000 A 
ATOM      5  C   UNL     1       1.468   8.133  20.401  0.00  0.00    +0.000 A 
ATOM      6  C   UNL     1       2.334   7.318  19.645  0.00  0.00    +0.000 A 
ENDROOT
BRANCH   1  14
ATOM      7  N   UNL     1       6.269   3.939  14.342  0.00  0.00    +0.000 N 
ATOM      8  C   UNL     1       6.107   4.501  15.539  0.00  0.00    +0.000 A 
ATOM      9  N   UNL     1       7.053   4.229  16.470  0.00  0.00    +0.000 NA
ATOM     10  C   UNL     1       6.566   4.789  17.549  0.00  0.00    +0.000 A 
ATOM     11  N   UNL     1       5.363   5.384  17.268  0.00  0.00    +0.000 N 
ATOM     12  C   UNL     1       4.509   5.977  18.209  0.00  0.00    +0.000 C 
ATOM     13  O   UNL     1       4.674   5.679  19.383  0.00  0.00    +0.000 OA
ATOM     14  N   UNL     1       3.620   6.870  17.633  0.00  0.00    +0.000 N 
ATOM     15  N   UNL     1       5.081   5.253  15.942  0.00  0.00    +0.000 NA
ATOM     16  H   UNL     1       6.970   3.206  14.305  0.00  0.00    +0.000 HD
ATOM     17  H   UNL     1       5.431   3.712  13.821  0.00  0.00    +0.000 HD
ATOM     18  H   UNL     1       3.677   6.977  16.621  0.00  0.00    +0.000 HD
ENDBRANCH   1  14
BRANCH   4  19
ATOM     19  N   UNL     1       0.076  10.109  20.623  0.00  0.00    +0.000 N 
ATOM     20  C   UNL     1       0.481  11.254  21.292  0.00  0.00    +0.000 C 
ATOM     21  O   UNL     1       1.573  11.804  21.298  0.00  0.00    +0.000 OA
ATOM     22  N   UNL     1      -0.588  11.873  21.942  0.00  0.00    +0.000 N 
ATOM     23  C   UNL     1      -0.706  13.203  22.240  0.00  0.00    +0.000 A 
ATOM     24  N   UNL     1      -1.802  13.412  22.932  0.00  0.00    +0.000 NA
ATOM     25  C   UNL     1      -2.318  12.162  23.061  0.00  0.00    +0.000 A 
ATOM     26  N   UNL     1      -3.389  12.018  23.825  0.00  0.00    +0.000 N 
ATOM     27  N   UNL     1      -1.684  11.200  22.394  0.00  0.00    +0.000 NA
ATOM     28  H   UNL     1      -0.928   9.961  20.548  0.00  0.00    +0.000 HD
ATOM     29  H   UNL     1      -3.872  12.834  24.174  0.00  0.00    +0.000 HD
ATOM     30  H   UNL     1      -3.818  11.118  23.982  0.00  0.00    +0.000 HD
ENDBRANCH   4  19
TORSDOF 2
ENDMDL
MODEL 8
REMARK VINA RESULT:      -7.5      2.903      9.406
REMARK  Name = 
REMARK  2 active torsions:
REMARK  status: ('A' for Active; 'I' for Inactive)
REMARK    1  A    between atoms: N_8  and  C_9
REMARK    2  A    between atoms: C_12  and  N_13
REMARK                            x       y       z     vdW  Elec       q    Type
REMARK                         _______ _______ _______ _____ _____    ______ ____
ROOT
ATOM      1  C   UNL     1       1.386   9.647  19.257  0.00  0.00    +0.000 A 
ATOM      2  C   UNL     1       1.250   8.792  20.353  0.00  0.00    +0.000 A 
ATOM      3  C   UNL     1       1.746   7.482  20.324  0.00  0.00    +0.000 A 
ATOM      4  C   UNL     1       2.406   7.009  19.202  0.00  0.00    +0.000 A 
ATOM      5  C   UNL     1       2.567   7.852  18.099  0.00  0.00    +0.000 A 
ATOM      6  C   UNL     1       2.036   9.157  18.118  0.00  0.00    +0.000 A 
ENDROOT
BRANCH   1  14
ATOM      7  N   UNL     1      -0.616  15.815  18.406  0.00  0.00    +0.000 N 
ATOM      8  C   UNL     1      -0.465  14.760  19.205  0.00  0.00    +0.000 A 
ATOM      9  N   UNL     1      -0.862  14.911  20.491  0.00  0.00    +0.000 NA
ATOM     10  C   UNL     1      -0.474  13.791  21.047  0.00  0.00    +0.000 A 
ATOM     11  N   UNL     1       0.134  12.989  20.116  0.00  0.00    +0.000 N 
ATOM     12  C   UNL     1       0.770  11.769  20.384  0.00  0.00    +0.000 C 
ATOM     13  O   UNL     1       1.088  11.544  21.543  0.00  0.00    +0.000 OA
ATOM     14  N   UNL     1       0.891  10.973  19.257  0.00  0.00    +0.000 N 
ATOM     15  N   UNL     1       0.093  13.588  18.894  0.00  0.00    +0.000 NA
ATOM     16  H   UNL     1      -0.823  16.686  18.883  0.00  0.00    +0.000 HD
ATOM     17  H   UNL     1       0.053  15.924  17.654  0.00  0.00    +0.000 HD
ATOM     18  H   UNL     1       0.531  11.362  18.386  0.00  0.00    +0.000 HD
ENDBRANCH   1  14
BRANCH   4  19
ATOM     19  N   UNL     1       2.939   5.701  19.161  0.00  0.00    +0.000 N 
ATOM     20  C   UNL     1       2.257   4.615  18.635  0.00  0.00    +0.000 C 
ATOM     21  O   UNL     1       1.170   4.576  18.078  0.00  0.00    +0.000 OA
ATOM     22  N   UNL     1       3.030   3.452  18.685  0.00  0.00    +0.000 N 
ATOM     23  C   UNL     1       2.940   2.372  17.850  0.00  0.00    +0.000 A 
ATOM     24  N   UNL     1       3.760   1.429  18.247  0.00  0.00    +0.000 NA
ATOM     25  C   UNL     1       4.319   1.967  19.362  0.00  0.00    +0.000 A 
ATOM     26  N   UNL     1       5.125   1.197  20.076  0.00  0.00    +0.000 N 
ATOM     27  N   UNL     1       3.996   3.233  19.621  0.00  0.00    +0.000 NA
ATOM     28  H   UNL     1       3.929   5.564  19.353  0.00  0.00    +0.000 HD
ATOM     29  H   UNL     1       5.412   0.297  19.716  0.00  0.00    +0.000 HD
ATOM     30  H   UNL     1       5.564   1.522  20.924  0.00  0.00    +0.000 HD
ENDBRANCH   4  19
TORSDOF 2
ENDMDL
MODEL 9
REMARK VINA RESULT:      -7.5      3.233      3.722
REMARK  Name = 
REMARK  2 active torsions:
REMARK  status: ('A' for Active; 'I' for Inactive)
REMARK    1  A    between atoms: N_8  and  C_9
REMARK    2  A    between atoms: C_12  and  N_13
REMARK                            x       y       z     vdW  Elec       q    Type
REMARK                         _______ _______ _______ _____ _____    ______ ____
ROOT
ATOM      1  C   UNL     1       2.084   7.472  19.378  0.00  0.00    +0.000 A 
ATOM      2  C   UNL     1       2.190   8.268  18.235  0.00  0.00    +0.000 A 
ATOM      3  C   UNL     1       1.666   9.567  18.197  0.00  0.00    +0.000 A 
ATOM      4  C   UNL     1       1.042  10.102  19.313  0.00  0.00    +0.000 A 
ATOM      5  C   UNL     1       0.938   9.328  20.472  0.00  0.00    +0.000 A 
ATOM      6  C   UNL     1       1.434   8.010  20.495  0.00  0.00    +0.000 A 
ENDROOT
BRANCH   1  14
ATOM      7  N   UNL     1       5.192   1.759  20.058  0.00  0.00    +0.000 N 
ATOM      8  C   UNL     1       4.136   2.443  19.622  0.00  0.00    +0.000 A 
ATOM      9  N   UNL     1       3.179   1.734  18.974  0.00  0.00    +0.000 NA
ATOM     10  C   UNL     1       2.362   2.667  18.556  0.00  0.00    +0.000 A 
ATOM     11  N   UNL     1       2.815   3.900  18.949  0.00  0.00    +0.000 N 
ATOM     12  C   UNL     1       2.251   5.130  18.580  0.00  0.00    +0.000 C 
ATOM     13  O   UNL     1       1.513   5.139  17.605  0.00  0.00    +0.000 OA
ATOM     14  N   UNL     1       2.599   6.156  19.442  0.00  0.00    +0.000 N 
ATOM     15  N   UNL     1       3.944   3.761  19.697  0.00  0.00    +0.000 NA
ATOM     16  H   UNL     1       5.274   0.817  19.689  0.00  0.00    +0.000 HD
ATOM     17  H   UNL     1       6.077   2.249  20.093  0.00  0.00    +0.000 HD
ATOM     18  H   UNL     1       3.221   5.909  20.213  0.00  0.00    +0.000 HD
ENDBRANCH   1  14
BRANCH   4  19
ATOM     19  N   UNL     1       0.532  11.419  19.307  0.00  0.00    +0.000 N 
ATOM     20  C   UNL     1       1.333  12.549  19.365  0.00  0.00    +0.000 C 
ATOM     21  O   UNL     1       2.552  12.637  19.362  0.00  0.00    +0.000 OA
ATOM     22  N   UNL     1       0.574  13.719  19.303  0.00  0.00    +0.000 N 
ATOM     23  C   UNL     1       0.981  14.936  18.829  0.00  0.00    +0.000 A 
ATOM     24  N   UNL     1       0.034  15.826  19.008  0.00  0.00    +0.000 NA
ATOM     25  C   UNL     1      -0.938  15.110  19.629  0.00  0.00    +0.000 A 
ATOM     26  N   UNL     1      -2.005  15.767  20.055  0.00  0.00    +0.000 N 
ATOM     27  N   UNL     1      -0.714  13.802  19.742  0.00  0.00    +0.000 NA
ATOM     28  H   UNL     1      -0.445  11.570  19.067  0.00  0.00    +0.000 HD
ATOM     29  H   UNL     1      -2.138  16.735  19.796  0.00  0.00    +0.000 HD
ATOM     30  H   UNL     1      -2.760  15.305  20.539  0.00  0.00    +0.000 HD
ENDBRANCH   4  19
TORSDOF 2
ENDMDL
