MODEL 1
REMARK VINA RESULT:      -6.7      0.000      0.000
REMARK  Name = 
REMARK  12 active torsions:
REMARK  status: ('A' for Active; 'I' for Inactive)
REMARK    1  A    between atoms: C_1  and  C_2
REMARK    2  A    between atoms: C_5  and  C_6
REMARK    3  A    between atoms: C_9  and  N_10
REMARK    4  A    between atoms: C_15  and  C_16
REMARK    5  A    between atoms: C_16  and  C_18
REMARK    6  A    between atoms: C_18  and  C_19
REMARK    7  A    between atoms: C_18  and  C_20
REMARK    8  A    between atoms: C_21  and  C_22
REMARK    9  A    between atoms: C_27  and  O_28
REMARK   10  A    between atoms: O_28  and  C_29
REMARK   11  A    between atoms: C_29  and  C_30
REMARK   12  A    between atoms: C_29  and  C_31
REMARK                            x       y       z     vdW  Elec       q    Type
REMARK                         _______ _______ _______ _____ _____    ______ ____
ROOT
ATOM      1  N   UNL     1       9.727  13.242  18.357  0.00  0.00    +0.000 N 
ATOM      2  C   UNL     1      10.839  13.695  17.633  0.00  0.00    +0.000 C 
ATOM      3  O   UNL     1      11.599  13.107  16.893  0.00  0.00    +0.000 OA
ATOM      4  C   UNL     1      10.987  15.190  17.913  0.00  0.00    +0.000 C 
ATOM      5  O   UNL     1      11.814  15.885  17.347  0.00  0.00    +0.000 OA
ATOM      6  C   UNL     1       9.934  15.673  18.868  0.00  0.00    +0.000 C 
ATOM      7  C   UNL     1       9.102  14.376  19.048  0.00  0.00    +0.000 C 
ENDROOT
BRANCH   1  11
ATOM      8  C   UNL     1       8.299   9.147  18.097  0.00  0.00    +0.000 A 
ATOM      9  C   UNL     1       7.654  10.192  17.424  0.00  0.00    +0.000 A 
ATOM     10  C   UNL     1       8.099  11.534  17.529  0.00  0.00    +0.000 A 
ATOM     11  C   UNL     1       9.205  11.888  18.307  0.00  0.00    +0.000 A 
ATOM     12  C   UNL     1       9.780  10.837  19.032  0.00  0.00    +0.000 A 
ATOM     13  C   UNL     1       9.369   9.500  18.909  0.00  0.00    +0.000 A 
BRANCH   8  18
ATOM     14  C   UNL     1       6.281   5.464  15.713  0.00  0.00    +0.000 C 
ATOM     15  C   UNL     1       6.951   6.063  16.885  0.00  0.00    +0.000 A 
ATOM     16  C   UNL     1       7.377   5.560  18.098  0.00  0.00    +0.000 A 
ATOM     17  C   UNL     1       7.955   6.642  18.802  0.00  0.00    +0.000 A 
ATOM     18  C   UNL     1       7.870   7.752  17.980  0.00  0.00    +0.000 A 
ATOM     19  O   UNL     1       7.248   7.393  16.813  0.00  0.00    +0.000 OA
ENDBRANCH   8  18
ENDBRANCH   1  11
BRANCH   7  20
ATOM     20  C   UNL     1       8.474  14.139  20.412  0.00  0.00    +0.000 A 
ATOM     21  C   UNL     1       9.271  13.293  21.252  0.00  0.00    +0.000 A 
ATOM     22  C   UNL     1       8.914  12.960  22.552  0.00  0.00    +0.000 A 
ATOM     23  C   UNL     1       7.692  13.383  23.032  0.00  0.00    +0.000 A 
ATOM     24  C   UNL     1       6.878  14.183  22.228  0.00  0.00    +0.000 A 
ATOM     25  C   UNL     1       7.261  14.618  20.940  0.00  0.00    +0.000 A 
BRANCH  25  26
ATOM     26  O   UNL     1       6.277  15.403  20.411  0.00  0.00    +0.000 OA
BRANCH  26  27
ATOM     27  C   UNL     1       5.214  14.918  19.596  0.00  0.00    +0.000 C 
ATOM     28  C   UNL     1       3.974  15.762  19.889  0.00  0.00    +0.000 C 
ATOM     29  C   UNL     1       5.551  14.968  18.105  0.00  0.00    +0.000 C 
ENDBRANCH  26  27
ENDBRANCH  25  26
ENDBRANCH   7  20
BRANCH   6  30
ATOM     30  C   UNL     1      10.489  16.429  20.076  0.00  0.00    +0.000 C 
ATOM     31  O   UNL     1      11.560  16.092  20.586  0.00  0.00    +0.000 OA
BRANCH  30  32
ATOM     32  C   UNL     1       9.742  17.676  20.605  0.00  0.00    +0.000 C 
ATOM     33  C   UNL     1       8.561  18.026  19.690  0.00  0.00    +0.000 C 
ATOM     34  C   UNL     1       9.223  17.526  22.033  0.00  0.00    +0.000 C 
ENDBRANCH  30  32
ENDBRANCH   6  30
TORSDOF 7
ENDMDL
MODEL 2
REMARK VINA RESULT:      -6.5      7.636     10.218
REMARK  Name = 
REMARK  12 active torsions:
REMARK  status: ('A' for Active; 'I' for Inactive)
REMARK    1  A    between atoms: C_1  and  C_2
REMARK    2  A    between atoms: C_5  and  C_6
REMARK    3  A    between atoms: C_9  and  N_10
REMARK    4  A    between atoms: C_15  and  C_16
REMARK    5  A    between atoms: C_16  and  C_18
REMARK    6  A    between atoms: C_18  and  C_19
REMARK    7  A    between atoms: C_18  and  C_20
REMARK    8  A    between atoms: C_21  and  C_22
REMARK    9  A    between atoms: C_27  and  O_28
REMARK   10  A    between atoms: O_28  and  C_29
REMARK   11  A    between atoms: C_29  and  C_30
REMARK   12  A    between atoms: C_29  and  C_31
REMARK                            x       y       z     vdW  Elec       q    Type
REMARK                         _______ _______ _______ _____ _____    ______ ____
ROOT
ATOM      1  N   UNL     1      -0.111  10.481  21.180  0.00  0.00    +0.000 N 
ATOM      2  C   UNL     1      -0.305  10.565  22.566  0.00  0.00    +0.000 C 
ATOM      3  O   UNL     1       0.096   9.863  23.469  0.00  0.00    +0.000 OA
ATOM      4  C   UNL     1      -1.172  11.796  22.830  0.00  0.00    +0.000 C 
ATOM      5  O   UNL     1      -1.434  12.185  23.956  0.00  0.00    +0.000 OA
ATOM      6  C   UNL     1      -1.547  12.484  21.550  0.00  0.00    +0.000 C 
ATOM      7  C   UNL     1      -0.755  11.627  20.528  0.00  0.00    +0.000 C 
ENDROOT
BRANCH   1  11
ATOM      8  C   UNL     1       2.227   7.457  19.114  0.00  0.00    +0.000 A 
ATOM      9  C   UNL     1       1.794   7.274  20.433  0.00  0.00    +0.000 A 
ATOM     10  C   UNL     1       1.056   8.270  21.120  0.00  0.00    +0.000 A 
ATOM     11  C   UNL     1       0.718   9.487  20.521  0.00  0.00    +0.000 A 
ATOM     12  C   UNL     1       1.232   9.676  19.233  0.00  0.00    +0.000 A 
ATOM     13  C   UNL     1       1.935   8.683  18.530  0.00  0.00    +0.000 A 
BRANCH   8  18
ATOM     14  C   UNL     1       2.795   2.982  17.392  0.00  0.00    +0.000 C 
ATOM     15  C   UNL     1       3.225   4.381  17.584  0.00  0.00    +0.000 A 
ATOM     16  C   UNL     1       4.318   5.109  17.156  0.00  0.00    +0.000 A 
ATOM     17  C   UNL     1       4.158   6.415  17.673  0.00  0.00    +0.000 A 
ATOM     18  C   UNL     1       2.968   6.431  18.379  0.00  0.00    +0.000 A 
ATOM     19  O   UNL     1       2.406   5.182  18.327  0.00  0.00    +0.000 OA
ENDBRANCH   8  18
ENDBRANCH   1  11
BRANCH   7  20
ATOM     20  C   UNL     1      -1.384  11.426  19.158  0.00  0.00    +0.000 A 
ATOM     21  C   UNL     1      -2.159  10.221  19.074  0.00  0.00    +0.000 A 
ATOM     22  C   UNL     1      -2.850   9.842  17.931  0.00  0.00    +0.000 A 
ATOM     23  C   UNL     1      -2.714  10.605  16.790  0.00  0.00    +0.000 A 
ATOM     24  C   UNL     1      -1.941  11.767  16.830  0.00  0.00    +0.000 A 
ATOM     25  C   UNL     1      -1.309  12.229  18.006  0.00  0.00    +0.000 A 
BRANCH  25  26
ATOM     26  O   UNL     1      -0.651  13.397  17.744  0.00  0.00    +0.000 OA
BRANCH  26  27
ATOM     27  C   UNL     1       0.082  14.139  18.713  0.00  0.00    +0.000 C 
ATOM     28  C   UNL     1       1.568  13.846  18.504  0.00  0.00    +0.000 C 
ATOM     29  C   UNL     1      -0.181  15.643  18.620  0.00  0.00    +0.000 C 
ENDBRANCH  26  27
ENDBRANCH  25  26
ENDBRANCH   7  20
BRANCH   6  30
ATOM     30  C   UNL     1      -3.049  12.722  21.387  0.00  0.00    +0.000 C 
ATOM     31  O   UNL     1      -3.860  12.067  22.046  0.00  0.00    +0.000 OA
BRANCH  30  32
ATOM     32  C   UNL     1      -3.547  13.849  20.452  0.00  0.00    +0.000 C 
ATOM     33  C   UNL     1      -5.052  13.706  20.190  0.00  0.00    +0.000 C 
ATOM     34  C   UNL     1      -3.277  15.256  20.982  0.00  0.00    +0.000 C 
ENDBRANCH  30  32
ENDBRANCH   6  30
TORSDOF 7
ENDMDL
MODEL 3
REMARK VINA RESULT:      -6.5      0.952      1.402
REMARK  Name = 
REMARK  12 active torsions:
REMARK  status: ('A' for Active; 'I' for Inactive)
REMARK    1  A    between atoms: C_1  and  C_2
REMARK    2  A    between atoms: C_5  and  C_6
REMARK    3  A    between atoms: C_9  and  N_10
REMARK    4  A    between atoms: C_15  and  C_16
REMARK    5  A    between atoms: C_16  and  C_18
REMARK    6  A    between atoms: C_18  and  C_19
REMARK    7  A    between atoms: C_18  and  C_20
REMARK    8  A    between atoms: C_21  and  C_22
REMARK    9  A    between atoms: C_27  and  O_28
REMARK   10  A    between atoms: O_28  and  C_29
REMARK   11  A    between atoms: C_29  and  C_30
REMARK   12  A    between atoms: C_29  and  C_31
REMARK                            x       y       z     vdW  Elec       q    Type
REMARK                         _______ _______ _______ _____ _____    ______ ____
ROOT
ATOM      1  N   UNL     1       9.762  13.708  18.529  0.00  0.00    +0.000 N 
ATOM      2  C   UNL     1      10.926  14.268  17.986  0.00  0.00    +0.000 C 
ATOM      3  O   UNL     1      11.832  13.765  17.357  0.00  0.00    +0.000 OA
ATOM      4  C   UNL     1      10.907  15.762  18.309  0.00  0.00    +0.000 C 
ATOM      5  O   UNL     1      11.748  16.537  17.885  0.00  0.00    +0.000 OA
ATOM      6  C   UNL     1       9.691  16.132  19.106  0.00  0.00    +0.000 C 
ATOM      7  C   UNL     1       8.951  14.768  19.139  0.00  0.00    +0.000 C 
ENDROOT
BRANCH   1  11
ATOM      8  C   UNL     1       8.445   9.581  18.192  0.00  0.00    +0.000 A 
ATOM      9  C   UNL     1       9.560   9.934  18.962  0.00  0.00    +0.000 A 
ATOM     10  C   UNL     1      10.010  11.275  19.051  0.00  0.00    +0.000 A 
ATOM     11  C   UNL     1       9.367  12.318  18.379  0.00  0.00    +0.000 A 
ATOM     12  C   UNL     1       8.306  11.926  17.554  0.00  0.00    +0.000 A 
ATOM     13  C   UNL     1       7.831  10.607  17.485  0.00  0.00    +0.000 A 
BRANCH   8  18
ATOM     14  C   UNL     1       5.740   6.110  16.204  0.00  0.00    +0.000 C 
ATOM     15  C   UNL     1       6.714   6.614  17.193  0.00  0.00    +0.000 A 
ATOM     16  C   UNL     1       7.424   6.021  18.219  0.00  0.00    +0.000 A 
ATOM     17  C   UNL     1       8.204   7.041  18.810  0.00  0.00    +0.000 A 
ATOM     18  C   UNL     1       7.949   8.206  18.109  0.00  0.00    +0.000 A 
ATOM     19  O   UNL     1       7.031   7.940  17.126  0.00  0.00    +0.000 OA
ENDBRANCH   8  18
ENDBRANCH   1  11
BRANCH   7  20
ATOM     20  C   UNL     1       8.152  14.442  20.390  0.00  0.00    +0.000 A 
ATOM     21  C   UNL     1       8.881  13.629  21.320  0.00  0.00    +0.000 A 
ATOM     22  C   UNL     1       8.366  13.229  22.546  0.00  0.00    +0.000 A 
ATOM     23  C   UNL     1       7.058  13.547  22.851  0.00  0.00    +0.000 A 
ATOM     24  C   UNL     1       6.311  14.312  21.953  0.00  0.00    +0.000 A 
ATOM     25  C   UNL     1       6.842  14.815  20.745  0.00  0.00    +0.000 A 
BRANCH  25  26
ATOM     26  O   UNL     1       5.888  15.544  20.094  0.00  0.00    +0.000 OA
BRANCH  26  27
ATOM     27  C   UNL     1       4.808  14.977  19.360  0.00  0.00    +0.000 C 
ATOM     28  C   UNL     1       3.587  15.877  19.551  0.00  0.00    +0.000 C 
ATOM     29  C   UNL     1       5.127  14.823  17.873  0.00  0.00    +0.000 C 
ENDBRANCH  26  27
ENDBRANCH  25  26
ENDBRANCH   7  20
BRANCH   6  30
ATOM     30  C   UNL     1       9.998  16.894  20.396  0.00  0.00    +0.000 C 
ATOM     31  O   UNL     1       9.304  17.857  20.732  0.00  0.00    +0.000 OA
BRANCH  30  32
ATOM     32  C   UNL     1      11.133  16.401  21.323  0.00  0.00    +0.000 C 
ATOM     33  C   UNL     1      12.332  17.356  21.263  0.00  0.00    +0.000 C 
ATOM     34  C   UNL     1      10.712  16.240  22.783  0.00  0.00    +0.000 C 
ENDBRANCH  30  32
ENDBRANCH   6  30
TORSDOF 7
ENDMDL
MODEL 4
REMARK VINA RESULT:      -6.4      1.034      1.373
REMARK  Name = 
REMARK  12 active torsions:
REMARK  status: ('A' for Active; 'I' for Inactive)
REMARK    1  A    between atoms: C_1  and  C_2
REMARK    2  A    between atoms: C_5  and  C_6
REMARK    3  A    between atoms: C_9  and  N_10
REMARK    4  A    between atoms: C_15  and  C_16
REMARK    5  A    between atoms: C_16  and  C_18
REMARK    6  A    between atoms: C_18  and  C_19
REMARK    7  A    between atoms: C_18  and  C_20
REMARK    8  A    between atoms: C_21  and  C_22
REMARK    9  A    between atoms: C_27  and  O_28
REMARK   10  A    between atoms: O_28  and  C_29
REMARK   11  A    between atoms: C_29  and  C_30
REMARK   12  A    between atoms: C_29  and  C_31
REMARK                            x       y       z     vdW  Elec       q    Type
REMARK                         _______ _______ _______ _____ _____    ______ ____
ROOT
ATOM      1  N   UNL     1      10.059  13.570  19.172  0.00  0.00    +0.000 N 
ATOM      2  C   UNL     1      11.292  14.098  18.764  0.00  0.00    +0.000 C 
ATOM      3  O   UNL     1      12.217  13.589  18.168  0.00  0.00    +0.000 OA
ATOM      4  C   UNL     1      11.328  15.563  19.200  0.00  0.00    +0.000 C 
ATOM      5  O   UNL     1      12.240  16.315  18.902  0.00  0.00    +0.000 OA
ATOM      6  C   UNL     1      10.073  15.945  19.929  0.00  0.00    +0.000 C 
ATOM      7  C   UNL     1       9.261  14.629  19.799  0.00  0.00    +0.000 C 
ENDROOT
BRANCH   1  11
ATOM      8  C   UNL     1       8.536   9.578  18.383  0.00  0.00    +0.000 A 
ATOM      9  C   UNL     1       9.413   9.831  19.444  0.00  0.00    +0.000 A 
ATOM     10  C   UNL     1       9.936  11.127  19.688  0.00  0.00    +0.000 A 
ATOM     11  C   UNL     1       9.603  12.222  18.885  0.00  0.00    +0.000 A 
ATOM     12  C   UNL     1       8.789  11.924  17.785  0.00  0.00    +0.000 A 
ATOM     13  C   UNL     1       8.240  10.653  17.555  0.00  0.00    +0.000 A 
BRANCH   8  18
ATOM     14  C   UNL     1       5.461   6.580  16.176  0.00  0.00    +0.000 C 
ATOM     15  C   UNL     1       6.561   6.878  17.115  0.00  0.00    +0.000 A 
ATOM     16  C   UNL     1       7.348   6.098  17.940  0.00  0.00    +0.000 A 
ATOM     17  C   UNL     1       8.238   6.979  18.596  0.00  0.00    +0.000 A 
ATOM     18  C   UNL     1       7.966   8.253  18.131  0.00  0.00    +0.000 A 
ATOM     19  O   UNL     1       6.935   8.186  17.231  0.00  0.00    +0.000 OA
ENDBRANCH   8  18
ENDBRANCH   1  11
BRANCH   7  20
ATOM     20  C   UNL     1       8.347  14.262  20.957  0.00  0.00    +0.000 A 
ATOM     21  C   UNL     1       9.033  13.568  22.009  0.00  0.00    +0.000 A 
ATOM     22  C   UNL     1       8.412  13.158  23.180  0.00  0.00    +0.000 A 
ATOM     23  C   UNL     1       7.049  13.338  23.306  0.00  0.00    +0.000 A 
ATOM     24  C   UNL     1       6.346  13.983  22.286  0.00  0.00    +0.000 A 
ATOM     25  C   UNL     1       6.971  14.499  21.129  0.00  0.00    +0.000 A 
BRANCH  25  26
ATOM     26  O   UNL     1       6.036  15.094  20.331  0.00  0.00    +0.000 OA
BRANCH  26  27
ATOM     27  C   UNL     1       4.814  15.650  20.805  0.00  0.00    +0.000 C 
ATOM     28  C   UNL     1       5.004  17.162  20.930  0.00  0.00    +0.000 C 
ATOM     29  C   UNL     1       3.633  15.338  19.885  0.00  0.00    +0.000 C 
ENDBRANCH  26  27
ENDBRANCH  25  26
ENDBRANCH   7  20
BRANCH   6  30
ATOM     30  C   UNL     1      10.316  16.591  21.293  0.00  0.00    +0.000 C 
ATOM     31  O   UNL     1      11.278  16.247  21.984  0.00  0.00    +0.000 OA
BRANCH  30  32
ATOM     32  C   UNL     1       9.398  17.743  21.767  0.00  0.00    +0.000 C 
ATOM     33  C   UNL     1       8.538  18.260  20.607  0.00  0.00    +0.000 C 
ATOM     34  C   UNL     1       8.476  17.361  22.924  0.00  0.00    +0.000 C 
ENDBRANCH  30  32
ENDBRANCH   6  30
TORSDOF 7
ENDMDL
MODEL 5
REMARK VINA RESULT:      -6.3      7.354     10.124
REMARK  Name = 
REMARK  12 active torsions:
REMARK  status: ('A' for Active; 'I' for Inactive)
REMARK    1  A    between atoms: C_1  and  C_2
REMARK    2  A    between atoms: C_5  and  C_6
REMARK    3  A    between atoms: C_9  and  N_10
REMARK    4  A    between atoms: C_15  and  C_16
REMARK    5  A    between atoms: C_16  and  C_18
REMARK    6  A    between atoms: C_18  and  C_19
REMARK    7  A    between atoms: C_18  and  C_20
REMARK    8  A    between atoms: C_21  and  C_22
REMARK    9  A    between atoms: C_27  and  O_28
REMARK   10  A    between atoms: O_28  and  C_29
REMARK   11  A    between atoms: C_29  and  C_30
REMARK   12  A    between atoms: C_29  and  C_31
REMARK                            x       y       z     vdW  Elec       q    Type
REMARK                         _______ _______ _______ _____ _____    ______ ____
ROOT
ATOM      1  N   UNL     1      -0.127  10.555  21.205  0.00  0.00    +0.000 N 
ATOM      2  C   UNL     1      -0.339  10.649  22.588  0.00  0.00    +0.000 C 
ATOM      3  O   UNL     1       0.038   9.945  23.500  0.00  0.00    +0.000 OA
ATOM      4  C   UNL     1      -1.191  11.894  22.834  0.00  0.00    +0.000 C 
ATOM      5  O   UNL     1      -1.463  12.292  23.954  0.00  0.00    +0.000 OA
ATOM      6  C   UNL     1      -1.537  12.581  21.546  0.00  0.00    +0.000 C 
ATOM      7  C   UNL     1      -0.745  11.707  20.539  0.00  0.00    +0.000 C 
ENDROOT
BRANCH   1  11
ATOM      8  C   UNL     1       2.195   7.488  19.185  0.00  0.00    +0.000 A 
ATOM      9  C   UNL     1       1.723   7.308  20.491  0.00  0.00    +0.000 A 
ATOM     10  C   UNL     1       0.989   8.318  21.164  0.00  0.00    +0.000 A 
ATOM     11  C   UNL     1       0.696   9.545  20.563  0.00  0.00    +0.000 A 
ATOM     12  C   UNL     1       1.249   9.728  19.290  0.00  0.00    +0.000 A 
ATOM     13  C   UNL     1       1.947   8.723  18.601  0.00  0.00    +0.000 A 
BRANCH   8  18
ATOM     14  C   UNL     1       5.511   6.002  16.005  0.00  0.00    +0.000 C 
ATOM     15  C   UNL     1       4.456   5.768  17.011  0.00  0.00    +0.000 A 
ATOM     16  C   UNL     1       3.905   4.629  17.566  0.00  0.00    +0.000 A 
ATOM     17  C   UNL     1       2.924   5.065  18.486  0.00  0.00    +0.000 A 
ATOM     18  C   UNL     1       2.931   6.448  18.464  0.00  0.00    +0.000 A 
ATOM     19  O   UNL     1       3.865   6.872  17.553  0.00  0.00    +0.000 OA
ENDBRANCH   8  18
ENDBRANCH   1  11
BRANCH   7  20
ATOM     20  C   UNL     1      -1.357  11.508  19.161  0.00  0.00    +0.000 A 
ATOM     21  C   UNL     1      -2.152  10.317  19.072  0.00  0.00    +0.000 A 
ATOM     22  C   UNL     1      -2.833   9.943  17.922  0.00  0.00    +0.000 A 
ATOM     23  C   UNL     1      -2.666  10.697  16.778  0.00  0.00    +0.000 A 
ATOM     24  C   UNL     1      -1.874  11.845  16.823  0.00  0.00    +0.000 A 
ATOM     25  C   UNL     1      -1.251  12.303  18.006  0.00  0.00    +0.000 A 
BRANCH  25  26
ATOM     26  O   UNL     1      -0.569  13.458  17.746  0.00  0.00    +0.000 OA
BRANCH  26  27
ATOM     27  C   UNL     1       0.043  14.269  18.744  0.00  0.00    +0.000 C 
ATOM     28  C   UNL     1       1.556  14.071  18.646  0.00  0.00    +0.000 C 
ATOM     29  C   UNL     1      -0.310  15.749  18.593  0.00  0.00    +0.000 C 
ENDBRANCH  26  27
ENDBRANCH  25  26
ENDBRANCH   7  20
BRANCH   6  30
ATOM     30  C   UNL     1      -3.033  12.841  21.360  0.00  0.00    +0.000 C 
ATOM     31  O   UNL     1      -3.862  12.005  21.728  0.00  0.00    +0.000 OA
BRANCH  30  32
ATOM     32  C   UNL     1      -3.508  14.196  20.786  0.00  0.00    +0.000 C 
ATOM     33  C   UNL     1      -4.999  14.412  21.076  0.00  0.00    +0.000 C 
ATOM     34  C   UNL     1      -2.730  15.399  21.316  0.00  0.00    +0.000 C 
ENDBRANCH  30  32
ENDBRANCH   6  30
TORSDOF 7
ENDMDL
MODEL 6
REMARK VINA RESULT:      -6.3      7.251      9.503
REMARK  Name = 
REMARK  12 active torsions:
REMARK  status: ('A' for Active; 'I' for Inactive)
REMARK    1  A    between atoms: C_1  and  C_2
REMARK    2  A    between atoms: C_5  and  C_6
REMARK    3  A    between atoms: C_9  and  N_10
REMARK    4  A    between atoms: C_15  and  C_16
REMARK    5  A    between atoms: C_16  and  C_18
REMARK    6  A    between atoms: C_18  and  C_19
REMARK    7  A    between atoms: C_18  and  C_20
REMARK    8  A    between atoms: C_21  and  C_22
REMARK    9  A    between atoms: C_27  and  O_28
REMARK   10  A    between atoms: O_28  and  C_29
REMARK   11  A    between atoms: C_29  and  C_30
REMARK   12  A    between atoms: C_29  and  C_31
REMARK                            x       y       z     vdW  Elec       q    Type
REMARK                         _______ _______ _______ _____ _____    ______ ____
ROOT
ATOM      1  N   UNL     1      -0.363  11.986  22.170  0.00  0.00    +0.000 N 
ATOM      2  C   UNL     1      -1.503  12.069  22.982  0.00  0.00    +0.000 C 
ATOM      3  O   UNL     1      -2.224  11.204  23.431  0.00  0.00    +0.000 OA
ATOM      4  C   UNL     1      -1.748  13.549  23.273  0.00  0.00    +0.000 C 
ATOM      5  O   UNL     1      -2.619  13.933  24.035  0.00  0.00    +0.000 OA
ATOM      6  C   UNL     1      -0.728  14.415  22.592  0.00  0.00    +0.000 C 
ATOM      7  C   UNL     1       0.187  13.330  21.965  0.00  0.00    +0.000 C 
ENDROOT
BRANCH   1  11
ATOM      8  C   UNL     1       1.296   8.211  20.798  0.00  0.00    +0.000 A 
ATOM      9  C   UNL     1       1.157   8.498  22.162  0.00  0.00    +0.000 A 
ATOM     10  C   UNL     1       0.643   9.740  22.614  0.00  0.00    +0.000 A 
ATOM     11  C   UNL     1       0.246  10.744  21.726  0.00  0.00    +0.000 A 
ATOM     12  C   UNL     1       0.471  10.461  20.374  0.00  0.00    +0.000 A 
ATOM     13  C   UNL     1       0.947   9.223  19.914  0.00  0.00    +0.000 A 
BRANCH   8  18
ATOM     14  C   UNL     1       1.378   3.384  20.730  0.00  0.00    +0.000 C 
ATOM     15  C   UNL     1       1.833   4.713  20.276  0.00  0.00    +0.000 A 
ATOM     16  C   UNL     1       2.747   5.136  19.330  0.00  0.00    +0.000 A 
ATOM     17  C   UNL     1       2.732   6.549  19.361  0.00  0.00    +0.000 A 
ATOM     18  C   UNL     1       1.800   6.926  20.312  0.00  0.00    +0.000 A 
ATOM     19  O   UNL     1       1.259   5.798  20.873  0.00  0.00    +0.000 OA
ENDBRANCH   8  18
ENDBRANCH   1  11
BRANCH   7  20
ATOM     20  C   UNL     1       0.831  13.656  20.627  0.00  0.00    +0.000 A 
ATOM     21  C   UNL     1       2.227  13.967  20.742  0.00  0.00    +0.000 A 
ATOM     22  C   UNL     1       3.031  14.268  19.652  0.00  0.00    +0.000 A 
ATOM     23  C   UNL     1       2.447  14.367  18.405  0.00  0.00    +0.000 A 
ATOM     24  C   UNL     1       1.084  14.101  18.263  0.00  0.00    +0.000 A 
ATOM     25  C   UNL     1       0.264  13.696  19.340  0.00  0.00    +0.000 A 
BRANCH  25  26
ATOM     26  O   UNL     1      -1.009  13.484  18.892  0.00  0.00    +0.000 OA
BRANCH  26  27
ATOM     27  C   UNL     1      -1.656  12.216  18.885  0.00  0.00    +0.000 C 
ATOM     28  C   UNL     1      -2.978  12.359  19.640  0.00  0.00    +0.000 C 
ATOM     29  C   UNL     1      -1.906  11.694  17.470  0.00  0.00    +0.000 C 
ENDBRANCH  26  27
ENDBRANCH  25  26
ENDBRANCH   7  20
BRANCH   6  30
ATOM     30  C   UNL     1      -1.329  15.531  21.738  0.00  0.00    +0.000 C 
ATOM     31  O   UNL     1      -2.420  15.375  21.183  0.00  0.00    +0.000 OA
BRANCH  30  32
ATOM     32  C   UNL     1      -0.604  16.894  21.641  0.00  0.00    +0.000 C 
ATOM     33  C   UNL     1       0.606  16.929  22.584  0.00  0.00    +0.000 C 
ATOM     34  C   UNL     1      -0.132  17.244  20.231  0.00  0.00    +0.000 C 
ENDBRANCH  30  32
ENDBRANCH   6  30
TORSDOF 7
ENDMDL
MODEL 7
REMARK VINA RESULT:      -6.3      7.692     10.169
REMARK  Name = 
REMARK  12 active torsions:
REMARK  status: ('A' for Active; 'I' for Inactive)
REMARK    1  A    between atoms: C_1  and  C_2
REMARK    2  A    between atoms: C_5  and  C_6
REMARK    3  A    between atoms: C_9  and  N_10
REMARK    4  A    between atoms: C_15  and  C_16
REMARK    5  A    between atoms: C_16  and  C_18
REMARK    6  A    between atoms: C_18  and  C_19
REMARK    7  A    between atoms: C_18  and  C_20
REMARK    8  A    between atoms: C_21  and  C_22
REMARK    9  A    between atoms: C_27  and  O_28
REMARK   10  A    between atoms: O_28  and  C_29
REMARK   11  A    between atoms: C_29  and  C_30
REMARK   12  A    between atoms: C_29  and  C_31
REMARK                            x       y       z     vdW  Elec       q    Type
REMARK                         _______ _______ _______ _____ _____    ______ ____
ROOT
ATOM      1  N   UNL     1      -0.206  10.465  21.220  0.00  0.00    +0.000 N 
ATOM      2  C   UNL     1      -0.407  10.600  22.601  0.00  0.00    +0.000 C 
ATOM      3  O   UNL     1      -0.054   9.903  23.527  0.00  0.00    +0.000 OA
ATOM      4  C   UNL     1      -1.207  11.884  22.822  0.00  0.00    +0.000 C 
ATOM      5  O   UNL     1      -1.458  12.319  23.933  0.00  0.00    +0.000 OA
ATOM      6  C   UNL     1      -1.532  12.555  21.519  0.00  0.00    +0.000 C 
ATOM      7  C   UNL     1      -0.779  11.626  20.530  0.00  0.00    +0.000 C 
ENDROOT
BRANCH   1  11
ATOM      8  C   UNL     1       2.262   7.348  19.467  0.00  0.00    +0.000 A 
ATOM      9  C   UNL     1       1.999   8.544  18.787  0.00  0.00    +0.000 A 
ATOM     10  C   UNL     1       1.171   9.551  19.343  0.00  0.00    +0.000 A 
ATOM     11  C   UNL     1       0.573   9.409  20.599  0.00  0.00    +0.000 A 
ATOM     12  C   UNL     1       0.788   8.172  21.220  0.00  0.00    +0.000 A 
ATOM     13  C   UNL     1       1.633   7.182  20.694  0.00  0.00    +0.000 A 
BRANCH   8  18
ATOM     14  C   UNL     1       4.367   3.005  19.610  0.00  0.00    +0.000 C 
ATOM     15  C   UNL     1       4.095   4.314  18.984  0.00  0.00    +0.000 A 
ATOM     16  C   UNL     1       4.494   4.907  17.801  0.00  0.00    +0.000 A 
ATOM     17  C   UNL     1       3.889   6.184  17.767  0.00  0.00    +0.000 A 
ATOM     18  C   UNL     1       3.135   6.308  18.921  0.00  0.00    +0.000 A 
ATOM     19  O   UNL     1       3.272   5.164  19.664  0.00  0.00    +0.000 OA
ENDBRANCH   8  18
ENDBRANCH   1  11
BRANCH   7  20
ATOM     20  C   UNL     1      -1.405  11.420  19.159  0.00  0.00    +0.000 A 
ATOM     21  C   UNL     1      -2.186  10.220  19.079  0.00  0.00    +0.000 A 
ATOM     22  C   UNL     1      -2.876   9.837  17.937  0.00  0.00    +0.000 A 
ATOM     23  C   UNL     1      -2.733  10.594  16.792  0.00  0.00    +0.000 A 
ATOM     24  C   UNL     1      -1.954  11.752  16.828  0.00  0.00    +0.000 A 
ATOM     25  C   UNL     1      -1.323  12.217  18.003  0.00  0.00    +0.000 A 
BRANCH  25  26
ATOM     26  O   UNL     1      -0.659  13.380  17.736  0.00  0.00    +0.000 OA
BRANCH  26  27
ATOM     27  C   UNL     1       0.262  14.001  18.628  0.00  0.00    +0.000 C 
ATOM     28  C   UNL     1       1.661  13.486  18.292  0.00  0.00    +0.000 C 
ATOM     29  C   UNL     1       0.222  15.527  18.541  0.00  0.00    +0.000 C 
ENDBRANCH  26  27
ENDBRANCH  25  26
ENDBRANCH   7  20
BRANCH   6  30
ATOM     30  C   UNL     1      -3.016  12.870  21.333  0.00  0.00    +0.000 C 
ATOM     31  O   UNL     1      -3.876  12.064  21.698  0.00  0.00    +0.000 OA
BRANCH  30  32
ATOM     32  C   UNL     1      -3.440  14.243  20.761  0.00  0.00    +0.000 C 
ATOM     33  C   UNL     1      -4.784  14.683  21.356  0.00  0.00    +0.000 C 
ATOM     34  C   UNL     1      -2.417  15.353  20.996  0.00  0.00    +0.000 C 
ENDBRANCH  30  32
ENDBRANCH   6  30
TORSDOF 7
ENDMDL
MODEL 8
REMARK VINA RESULT:      -6.2      6.430      9.700
REMARK  Name = 
REMARK  12 active torsions:
REMARK  status: ('A' for Active; 'I' for Inactive)
REMARK    1  A    between atoms: C_1  and  C_2
REMARK    2  A    between atoms: C_5  and  C_6
REMARK    3  A    between atoms: C_9  and  N_10
REMARK    4  A    between atoms: C_15  and  C_16
REMARK    5  A    between atoms: C_16  and  C_18
REMARK    6  A    between atoms: C_18  and  C_19
REMARK    7  A    between atoms: C_18  and  C_20
REMARK    8  A    between atoms: C_21  and  C_22
REMARK    9  A    between atoms: C_27  and  O_28
REMARK   10  A    between atoms: O_28  and  C_29
REMARK   11  A    between atoms: C_29  and  C_30
REMARK   12  A    between atoms: C_29  and  C_31
REMARK                            x       y       z     vdW  Elec       q    Type
REMARK                         _______ _______ _______ _____ _____    ______ ____
ROOT
ATOM      1  N   UNL     1      -1.171  12.376  22.612  0.00  0.00    +0.000 N 
ATOM      2  C   UNL     1      -2.390  12.418  23.303  0.00  0.00    +0.000 C 
ATOM      3  O   UNL     1      -3.201  11.549  23.537  0.00  0.00    +0.000 OA
ATOM      4  C   UNL     1      -2.588  13.853  23.790  0.00  0.00    +0.000 C 
ATOM      5  O   UNL     1      -3.519  14.181  24.506  0.00  0.00    +0.000 OA
ATOM      6  C   UNL     1      -1.454  14.737  23.359  0.00  0.00    +0.000 C 
ATOM      7  C   UNL     1      -0.531  13.695  22.673  0.00  0.00    +0.000 C 
ENDROOT
BRANCH   1  11
ATOM      8  C   UNL     1       0.754   8.850  20.956  0.00  0.00    +0.000 A 
ATOM      9  C   UNL     1       0.112   9.786  20.138  0.00  0.00    +0.000 A 
ATOM     10  C   UNL     1      -0.543  10.923  20.676  0.00  0.00    +0.000 A 
ATOM     11  C   UNL     1      -0.581  11.173  22.051  0.00  0.00    +0.000 A 
ATOM     12  C   UNL     1      -0.001  10.180  22.850  0.00  0.00    +0.000 A 
ATOM     13  C   UNL     1       0.678   9.069  22.326  0.00  0.00    +0.000 A 
BRANCH   8  18
ATOM     14  C   UNL     1       3.654   6.690  17.756  0.00  0.00    +0.000 C 
ATOM     15  C   UNL     1       2.792   6.696  18.955  0.00  0.00    +0.000 A 
ATOM     16  C   UNL     1       2.433   5.731  19.876  0.00  0.00    +0.000 A 
ATOM     17  C   UNL     1       1.573   6.360  20.804  0.00  0.00    +0.000 A 
ATOM     18  C   UNL     1       1.457   7.684  20.418  0.00  0.00    +0.000 A 
ATOM     19  O   UNL     1       2.199   7.881  19.282  0.00  0.00    +0.000 OA
ENDBRANCH   8  18
ENDBRANCH   1  11
BRANCH   7  20
ATOM     20  C   UNL     1       0.278  14.168  21.476  0.00  0.00    +0.000 A 
ATOM     21  C   UNL     1      -0.504  14.251  20.275  0.00  0.00    +0.000 A 
ATOM     22  C   UNL     1       0.012  14.686  19.062  0.00  0.00    +0.000 A 
ATOM     23  C   UNL     1       1.361  14.963  18.977  0.00  0.00    +0.000 A 
ATOM     24  C   UNL     1       2.156  14.862  20.120  0.00  0.00    +0.000 A 
ATOM     25  C   UNL     1       1.637  14.518  21.388  0.00  0.00    +0.000 A 
BRANCH  25  26
ATOM     26  O   UNL     1       2.643  14.525  22.312  0.00  0.00    +0.000 OA
BRANCH  26  27
ATOM     27  C   UNL     1       3.920  15.119  22.101  0.00  0.00    +0.000 C 
ATOM     28  C   UNL     1       4.039  16.323  23.037  0.00  0.00    +0.000 C 
ATOM     29  C   UNL     1       5.069  14.140  22.348  0.00  0.00    +0.000 C 
ENDBRANCH  26  27
ENDBRANCH  25  26
ENDBRANCH   7  20
BRANCH   6  30
ATOM     30  C   UNL     1      -1.894  16.005  22.627  0.00  0.00    +0.000 C 
ATOM     31  O   UNL     1      -2.935  16.014  21.966  0.00  0.00    +0.000 OA
BRANCH  30  32
ATOM     32  C   UNL     1      -1.072  17.305  22.788  0.00  0.00    +0.000 C 
ATOM     33  C   UNL     1       0.067  17.101  23.796  0.00  0.00    +0.000 C 
ATOM     34  C   UNL     1      -0.478  17.826  21.481  0.00  0.00    +0.000 C 
ENDBRANCH  30  32
ENDBRANCH   6  30
TORSDOF 7
ENDMDL
MODEL 9
REMARK VINA RESULT:      -6.2      7.153      9.338
REMARK  Name = 
REMARK  12 active torsions:
REMARK  status: ('A' for Active; 'I' for Inactive)
REMARK    1  A    between atoms: C_1  and  C_2
REMARK    2  A    between atoms: C_5  and  C_6
REMARK    3  A    between atoms: C_9  and  N_10
REMARK    4  A    between atoms: C_15  and  C_16
REMARK    5  A    between atoms: C_16  and  C_18
REMARK    6  A    between atoms: C_18  and  C_19
REMARK    7  A    between atoms: C_18  and  C_20
REMARK    8  A    between atoms: C_21  and  C_22
REMARK    9  A    between atoms: C_27  and  O_28
REMARK   10  A    between atoms: O_28  and  C_29
REMARK   11  A    between atoms: C_29  and  C_30
REMARK   12  A    between atoms: C_29  and  C_31
REMARK                            x       y       z     vdW  Elec       q    Type
REMARK                         _______ _______ _______ _____ _____    ______ ____
ROOT
ATOM      1  N   UNL     1      -0.241  11.898  22.017  0.00  0.00    +0.000 N 
ATOM      2  C   UNL     1      -1.329  12.049  22.888  0.00  0.00    +0.000 C 
ATOM      3  O   UNL     1      -2.082  11.229  23.369  0.00  0.00    +0.000 OA
ATOM      4  C   UNL     1      -1.457  13.539  23.203  0.00  0.00    +0.000 C 
ATOM      5  O   UNL     1      -2.259  13.972  24.013  0.00  0.00    +0.000 OA
ATOM      6  C   UNL     1      -0.419  14.341  22.475  0.00  0.00    +0.000 C 
ATOM      7  C   UNL     1       0.387  13.205  21.793  0.00  0.00    +0.000 C 
ENDROOT
BRANCH   1  11
ATOM      8  C   UNL     1       1.417   8.132  20.620  0.00  0.00    +0.000 A 
ATOM      9  C   UNL     1       1.054   9.149  19.728  0.00  0.00    +0.000 A 
ATOM     10  C   UNL     1       0.486  10.368  20.178  0.00  0.00    +0.000 A 
ATOM     11  C   UNL     1       0.258  10.623  21.533  0.00  0.00    +0.000 A 
ATOM     12  C   UNL     1       0.554   9.559  22.394  0.00  0.00    +0.000 A 
ATOM     13  C   UNL     1       1.148   8.362  21.963  0.00  0.00    +0.000 A 
BRANCH   8  18
ATOM     14  C   UNL     1       2.274   3.398  21.033  0.00  0.00    +0.000 C 
ATOM     15  C   UNL     1       2.415   4.706  20.364  0.00  0.00    +0.000 A 
ATOM     16  C   UNL     1       3.062   5.125  19.218  0.00  0.00    +0.000 A 
ATOM     17  C   UNL     1       2.823   6.514  19.105  0.00  0.00    +0.000 A 
ATOM     18  C   UNL     1       2.028   6.878  20.178  0.00  0.00    +0.000 A 
ATOM     19  O   UNL     1       1.789   5.769  20.948  0.00  0.00    +0.000 OA
ENDBRANCH   8  18
ENDBRANCH   1  11
BRANCH   7  20
ATOM     20  C   UNL     1       0.980  13.501  20.425  0.00  0.00    +0.000 A 
ATOM     21  C   UNL     1       2.393  13.746  20.473  0.00  0.00    +0.000 A 
ATOM     22  C   UNL     1       3.157  14.010  19.344  0.00  0.00    +0.000 A 
ATOM     23  C   UNL     1       2.520  14.137  18.127  0.00  0.00    +0.000 A 
ATOM     24  C   UNL     1       1.140  13.935  18.051  0.00  0.00    +0.000 A 
ATOM     25  C   UNL     1       0.355  13.568  19.166  0.00  0.00    +0.000 A 
BRANCH  25  26
ATOM     26  O   UNL     1      -0.946  13.416  18.780  0.00  0.00    +0.000 OA
BRANCH  26  27
ATOM     27  C   UNL     1      -1.660  12.185  18.833  0.00  0.00    +0.000 C 
ATOM     28  C   UNL     1      -2.924  12.411  19.663  0.00  0.00    +0.000 C 
ATOM     29  C   UNL     1      -2.024  11.659  17.444  0.00  0.00    +0.000 C 
ENDBRANCH  26  27
ENDBRANCH  25  26
ENDBRANCH   7  20
BRANCH   6  30
ATOM     30  C   UNL     1      -0.987  15.505  21.662  0.00  0.00    +0.000 C 
ATOM     31  O   UNL     1      -2.105  15.420  21.148  0.00  0.00    +0.000 OA
BRANCH  30  32
ATOM     32  C   UNL     1      -0.189  16.825  21.557  0.00  0.00    +0.000 C 
ATOM     33  C   UNL     1       0.161  17.130  20.094  0.00  0.00    +0.000 C 
ATOM     34  C   UNL     1      -0.915  18.034  22.146  0.00  0.00    +0.000 C 
ENDBRANCH  30  32
ENDBRANCH   6  30
TORSDOF 7
ENDMDL
