MODEL 1
REMARK VINA RESULT:      -6.9      0.000      0.000
REMARK  Name = 
REMARK  9 active torsions:
REMARK  status: ('A' for Active; 'I' for Inactive)
REMARK    1  A    between atoms: C_1  and  O_2
REMARK    2  A    between atoms: O_2  and  C_3
REMARK    3  A    between atoms: C_6  and  C_7
REMARK    4  A    between atoms: C_7  and  C_8
REMARK    5  A    between atoms: C_8  and  N_9
REMARK    6  A    between atoms: C_11  and  O_12
REMARK    7  A    between atoms: O_12  and  C_13
REMARK    8  A    between atoms: C_13  and  C_14
REMARK    9  A    between atoms: C_14  and  C_15
REMARK                            x       y       z     vdW  Elec       q    Type
REMARK                         _______ _______ _______ _____ _____    ______ ____
ROOT
ATOM      1  C   UNL     1       6.840   5.653  17.544  0.00  0.00    +0.000 A 
ATOM      2  C   UNL     1       7.492   4.606  16.876  0.00  0.00    +0.000 A 
ATOM      3  C   UNL     1       7.004   4.115  15.667  0.00  0.00    +0.000 A 
ATOM      4  C   UNL     1       5.826   4.631  15.121  0.00  0.00    +0.000 A 
ATOM      5  C   UNL     1       5.127   5.616  15.837  0.00  0.00    +0.000 A 
ATOM      6  C   UNL     1       5.633   6.150  17.032  0.00  0.00    +0.000 A 
ENDROOT
BRANCH   1   8
ATOM      7  C   UNL     1       8.149   7.318  18.578  0.00  0.00    +0.000 C 
ATOM      8  O   UNL     1       7.346   6.145  18.719  0.00  0.00    +0.000 OA
ENDBRANCH   1   8
BRANCH   4   9
ATOM      9  C   UNL     1       5.320   4.129  13.790  0.00  0.00    +0.000 C 
BRANCH   9  10
ATOM     10  C   UNL     1       6.457   3.728  12.839  0.00  0.00    +0.000 C 
BRANCH  10  11
ATOM     11  N   UNL     1       6.122   2.513  12.096  0.00  0.00    +0.000 NA
ATOM     12  H   UNL     1       6.858   2.312  11.420  0.00  0.00    +0.000 HD
ATOM     13  H   UNL     1       5.275   2.675  11.553  0.00  0.00    +0.000 HD
ENDBRANCH  10  11
ENDBRANCH   9  10
ENDBRANCH   4   9
BRANCH   6  14
ATOM     14  O   UNL     1       4.834   7.142  17.549  0.00  0.00    +0.000 OA
BRANCH  14  15
ATOM     15  C   UNL     1       3.429   6.891  17.576  0.00  0.00    +0.000 C 
BRANCH  15  16
ATOM     16  C   UNL     1       2.972   6.721  19.027  0.00  0.00    +0.000 C 
BRANCH  16  17
ATOM     17  C   UNL     1       2.189   5.440  19.174  0.00  0.00    +0.000 A 
ATOM     18  C   UNL     1       1.770   5.013  20.443  0.00  0.00    +0.000 A 
ATOM     19  C   UNL     1       1.153   3.772  20.602  0.00  0.00    +0.000 A 
ATOM     20  C   UNL     1       0.945   2.950  19.496  0.00  0.00    +0.000 A 
ATOM     21  C   UNL     1       1.341   3.374  18.229  0.00  0.00    +0.000 A 
ATOM     22  C   UNL     1       1.962   4.613  18.067  0.00  0.00    +0.000 A 
ENDBRANCH  16  17
ENDBRANCH  15  16
ENDBRANCH  14  15
ENDBRANCH   6  14
TORSDOF 8
ENDMDL
MODEL 2
REMARK VINA RESULT:      -6.8      0.991      1.464
REMARK  Name = 
REMARK  9 active torsions:
REMARK  status: ('A' for Active; 'I' for Inactive)
REMARK    1  A    between atoms: C_1  and  O_2
REMARK    2  A    between atoms: O_2  and  C_3
REMARK    3  A    between atoms: C_6  and  C_7
REMARK    4  A    between atoms: C_7  and  C_8
REMARK    5  A    between atoms: C_8  and  N_9
REMARK    6  A    between atoms: C_11  and  O_12
REMARK    7  A    between atoms: O_12  and  C_13
REMARK    8  A    between atoms: C_13  and  C_14
REMARK    9  A    between atoms: C_14  and  C_15
REMARK                            x       y       z     vdW  Elec       q    Type
REMARK                         _______ _______ _______ _____ _____    ______ ____
ROOT
ATOM      1  C   UNL     1       6.608   5.101  18.473  0.00  0.00    +0.000 A 
ATOM      2  C   UNL     1       7.493   4.508  17.560  0.00  0.00    +0.000 A 
ATOM      3  C   UNL     1       7.132   4.330  16.227  0.00  0.00    +0.000 A 
ATOM      4  C   UNL     1       5.858   4.700  15.786  0.00  0.00    +0.000 A 
ATOM      5  C   UNL     1       4.943   5.208  16.721  0.00  0.00    +0.000 A 
ATOM      6  C   UNL     1       5.311   5.436  18.056  0.00  0.00    +0.000 A 
ENDROOT
BRANCH   1   8
ATOM      7  C   UNL     1       8.347   5.687  19.951  0.00  0.00    +0.000 C 
ATOM      8  O   UNL     1       6.985   5.295  19.776  0.00  0.00    +0.000 OA
ENDBRANCH   1   8
BRANCH   4   9
ATOM      9  C   UNL     1       5.482   4.545  14.332  0.00  0.00    +0.000 C 
BRANCH   9  10
ATOM     10  C   UNL     1       6.659   4.078  13.463  0.00  0.00    +0.000 C 
BRANCH  10  11
ATOM     11  N   UNL     1       6.270   2.962  12.600  0.00  0.00    +0.000 NA
ATOM     12  H   UNL     1       5.355   2.614  12.885  0.00  0.00    +0.000 HD
ATOM     13  H   UNL     1       6.922   2.191  12.735  0.00  0.00    +0.000 HD
ENDBRANCH  10  11
ENDBRANCH   9  10
ENDBRANCH   4   9
BRANCH   6  14
ATOM     14  O   UNL     1       4.296   5.991  18.798  0.00  0.00    +0.000 OA
BRANCH  14  15
ATOM     15  C   UNL     1       3.290   6.708  18.083  0.00  0.00    +0.000 C 
BRANCH  15  16
ATOM     16  C   UNL     1       1.948   6.551  18.801  0.00  0.00    +0.000 C 
BRANCH  16  17
ATOM     17  C   UNL     1       1.725   5.105  19.170  0.00  0.00    +0.000 A 
ATOM     18  C   UNL     1       1.596   4.134  18.166  0.00  0.00    +0.000 A 
ATOM     19  C   UNL     1       1.269   2.818  18.494  0.00  0.00    +0.000 A 
ATOM     20  C   UNL     1       1.074   2.461  19.826  0.00  0.00    +0.000 A 
ATOM     21  C   UNL     1       1.218   3.414  20.832  0.00  0.00    +0.000 A 
ATOM     22  C   UNL     1       1.541   4.732  20.507  0.00  0.00    +0.000 A 
ENDBRANCH  16  17
ENDBRANCH  15  16
ENDBRANCH  14  15
ENDBRANCH   6  14
TORSDOF 8
ENDMDL
MODEL 3
REMARK VINA RESULT:      -6.7      3.286      4.550
REMARK  Name = 
REMARK  9 active torsions:
REMARK  status: ('A' for Active; 'I' for Inactive)
REMARK    1  A    between atoms: C_1  and  O_2
REMARK    2  A    between atoms: O_2  and  C_3
REMARK    3  A    between atoms: C_6  and  C_7
REMARK    4  A    between atoms: C_7  and  C_8
REMARK    5  A    between atoms: C_8  and  N_9
REMARK    6  A    between atoms: C_11  and  O_12
REMARK    7  A    between atoms: O_12  and  C_13
REMARK    8  A    between atoms: C_13  and  C_14
REMARK    9  A    between atoms: C_14  and  C_15
REMARK                            x       y       z     vdW  Elec       q    Type
REMARK                         _______ _______ _______ _____ _____    ______ ____
ROOT
ATOM      1  C   UNL     1       2.763   7.291  18.197  0.00  0.00    +0.000 A 
ATOM      2  C   UNL     1       3.810   7.300  17.263  0.00  0.00    +0.000 A 
ATOM      3  C   UNL     1       4.932   6.493  17.439  0.00  0.00    +0.000 A 
ATOM      4  C   UNL     1       5.053   5.692  18.578  0.00  0.00    +0.000 A 
ATOM      5  C   UNL     1       4.046   5.754  19.554  0.00  0.00    +0.000 A 
ATOM      6  C   UNL     1       2.890   6.527  19.366  0.00  0.00    +0.000 A 
ENDROOT
BRANCH   1   8
ATOM      7  C   UNL     1       1.901   9.476  17.994  0.00  0.00    +0.000 C 
ATOM      8  O   UNL     1       1.653   8.069  17.998  0.00  0.00    +0.000 OA
ENDBRANCH   1   8
BRANCH   4   9
ATOM      9  C   UNL     1       6.249   4.786  18.748  0.00  0.00    +0.000 C 
BRANCH   9  10
ATOM     10  C   UNL     1       7.544   5.564  19.027  0.00  0.00    +0.000 C 
BRANCH  10  11
ATOM     11  N   UNL     1       7.937   5.450  20.432  0.00  0.00    +0.000 NA
ATOM     12  H   UNL     1       7.888   6.366  20.876  0.00  0.00    +0.000 HD
ATOM     13  H   UNL     1       8.913   5.161  20.484  0.00  0.00    +0.000 HD
ENDBRANCH  10  11
ENDBRANCH   9  10
ENDBRANCH   4   9
BRANCH   6  14
ATOM     14  O   UNL     1       1.999   6.409  20.406  0.00  0.00    +0.000 OA
BRANCH  14  15
ATOM     15  C   UNL     1       1.942   5.146  21.068  0.00  0.00    +0.000 C 
BRANCH  15  16
ATOM     16  C   UNL     1       1.035   4.200  20.276  0.00  0.00    +0.000 C 
BRANCH  16  17
ATOM     17  C   UNL     1       1.870   3.262  19.441  0.00  0.00    +0.000 A 
ATOM     18  C   UNL     1       2.857   2.470  20.047  0.00  0.00    +0.000 A 
ATOM     19  C   UNL     1       3.714   1.692  19.268  0.00  0.00    +0.000 A 
ATOM     20  C   UNL     1       3.590   1.696  17.880  0.00  0.00    +0.000 A 
ATOM     21  C   UNL     1       2.601   2.466  17.271  0.00  0.00    +0.000 A 
ATOM     22  C   UNL     1       1.744   3.247  18.046  0.00  0.00    +0.000 A 
ENDBRANCH  16  17
ENDBRANCH  15  16
ENDBRANCH  14  15
ENDBRANCH   6  14
TORSDOF 8
ENDMDL
MODEL 4
REMARK VINA RESULT:      -6.6      1.014      1.495
REMARK  Name = 
REMARK  9 active torsions:
REMARK  status: ('A' for Active; 'I' for Inactive)
REMARK    1  A    between atoms: C_1  and  O_2
REMARK    2  A    between atoms: O_2  and  C_3
REMARK    3  A    between atoms: C_6  and  C_7
REMARK    4  A    between atoms: C_7  and  C_8
REMARK    5  A    between atoms: C_8  and  N_9
REMARK    6  A    between atoms: C_11  and  O_12
REMARK    7  A    between atoms: O_12  and  C_13
REMARK    8  A    between atoms: C_13  and  C_14
REMARK    9  A    between atoms: C_14  and  C_15
REMARK                            x       y       z     vdW  Elec       q    Type
REMARK                         _______ _______ _______ _____ _____    ______ ____
ROOT
ATOM      1  C   UNL     1       6.592   5.660  17.077  0.00  0.00    +0.000 A 
ATOM      2  C   UNL     1       7.486   5.490  16.010  0.00  0.00    +0.000 A 
ATOM      3  C   UNL     1       7.082   4.869  14.830  0.00  0.00    +0.000 A 
ATOM      4  C   UNL     1       5.785   4.363  14.708  0.00  0.00    +0.000 A 
ATOM      5  C   UNL     1       4.921   4.453  15.810  0.00  0.00    +0.000 A 
ATOM      6  C   UNL     1       5.301   5.118  16.986  0.00  0.00    +0.000 A 
ENDROOT
BRANCH   1   8
ATOM      7  C   UNL     1       7.941   5.572  19.008  0.00  0.00    +0.000 C 
ATOM      8  O   UNL     1       6.993   6.297  18.221  0.00  0.00    +0.000 OA
ENDBRANCH   1   8
BRANCH   4   9
ATOM      9  C   UNL     1       5.335   3.727  13.414  0.00  0.00    +0.000 C 
BRANCH   9  10
ATOM     10  C   UNL     1       6.471   3.608  12.388  0.00  0.00    +0.000 C 
BRANCH  10  11
ATOM     11  N   UNL     1       6.560   2.249  11.852  0.00  0.00    +0.000 NA
ATOM     12  H   UNL     1       6.934   1.625  12.566  0.00  0.00    +0.000 HD
ATOM     13  H   UNL     1       7.230   2.236  11.083  0.00  0.00    +0.000 HD
ENDBRANCH  10  11
ENDBRANCH   9  10
ENDBRANCH   4   9
BRANCH   6  14
ATOM     14  O   UNL     1       4.297   5.150  17.925  0.00  0.00    +0.000 OA
BRANCH  14  15
ATOM     15  C   UNL     1       3.539   6.354  18.018  0.00  0.00    +0.000 C 
BRANCH  15  16
ATOM     16  C   UNL     1       2.063   6.009  18.233  0.00  0.00    +0.000 C 
BRANCH  16  17
ATOM     17  C   UNL     1       1.939   4.825  19.160  0.00  0.00    +0.000 A 
ATOM     18  C   UNL     1       1.393   3.620  18.694  0.00  0.00    +0.000 A 
ATOM     19  C   UNL     1       1.163   2.563  19.575  0.00  0.00    +0.000 A 
ATOM     20  C   UNL     1       1.482   2.698  20.925  0.00  0.00    +0.000 A 
ATOM     21  C   UNL     1       2.042   3.885  21.393  0.00  0.00    +0.000 A 
ATOM     22  C   UNL     1       2.270   4.946  20.516  0.00  0.00    +0.000 A 
ENDBRANCH  16  17
ENDBRANCH  15  16
ENDBRANCH  14  15
ENDBRANCH   6  14
TORSDOF 8
ENDMDL
MODEL 5
REMARK VINA RESULT:      -6.6      3.298      6.459
REMARK  Name = 
REMARK  9 active torsions:
REMARK  status: ('A' for Active; 'I' for Inactive)
REMARK    1  A    between atoms: C_1  and  O_2
REMARK    2  A    between atoms: O_2  and  C_3
REMARK    3  A    between atoms: C_6  and  C_7
REMARK    4  A    between atoms: C_7  and  C_8
REMARK    5  A    between atoms: C_8  and  N_9
REMARK    6  A    between atoms: C_11  and  O_12
REMARK    7  A    between atoms: O_12  and  C_13
REMARK    8  A    between atoms: C_13  and  C_14
REMARK    9  A    between atoms: C_14  and  C_15
REMARK                            x       y       z     vdW  Elec       q    Type
REMARK                         _______ _______ _______ _____ _____    ______ ____
ROOT
ATOM      1  C   UNL     1       2.054   4.456  19.728  0.00  0.00    +0.000 A 
ATOM      2  C   UNL     1       1.829   5.548  20.579  0.00  0.00    +0.000 A 
ATOM      3  C   UNL     1       1.939   6.855  20.109  0.00  0.00    +0.000 A 
ATOM      4  C   UNL     1       2.321   7.099  18.787  0.00  0.00    +0.000 A 
ATOM      5  C   UNL     1       2.633   6.006  17.964  0.00  0.00    +0.000 A 
ATOM      6  C   UNL     1       2.480   4.685  18.412  0.00  0.00    +0.000 A 
ENDROOT
BRANCH   1   8
ATOM      7  C   UNL     1       2.289   2.994  21.563  0.00  0.00    +0.000 C 
ATOM      8  O   UNL     1       1.915   3.175  20.196  0.00  0.00    +0.000 OA
ENDBRANCH   1   8
BRANCH   4   9
ATOM      9  C   UNL     1       2.399   8.514  18.266  0.00  0.00    +0.000 C 
BRANCH   9  10
ATOM     10  C   UNL     1       1.302   9.419  18.847  0.00  0.00    +0.000 C 
BRANCH  10  11
ATOM     11  N   UNL     1       0.760  10.316  17.826  0.00  0.00    +0.000 NA
ATOM     12  H   UNL     1      -0.017   9.859  17.350  0.00  0.00    +0.000 HD
ATOM     13  H   UNL     1       1.471  10.482  17.115  0.00  0.00    +0.000 HD
ENDBRANCH  10  11
ENDBRANCH   9  10
ENDBRANCH   4   9
BRANCH   6  14
ATOM     14  O   UNL     1       2.780   3.758  17.442  0.00  0.00    +0.000 OA
BRANCH  14  15
ATOM     15  C   UNL     1       4.076   3.163  17.495  0.00  0.00    +0.000 C 
BRANCH  15  16
ATOM     16  C   UNL     1       4.996   3.863  16.491  0.00  0.00    +0.000 C 
BRANCH  16  17
ATOM     17  C   UNL     1       5.869   4.866  17.204  0.00  0.00    +0.000 A 
ATOM     18  C   UNL     1       6.439   5.933  16.494  0.00  0.00    +0.000 A 
ATOM     19  C   UNL     1       7.344   6.793  17.118  0.00  0.00    +0.000 A 
ATOM     20  C   UNL     1       7.682   6.597  18.455  0.00  0.00    +0.000 A 
ATOM     21  C   UNL     1       7.106   5.551  19.174  0.00  0.00    +0.000 A 
ATOM     22  C   UNL     1       6.204   4.687  18.552  0.00  0.00    +0.000 A 
ENDBRANCH  16  17
ENDBRANCH  15  16
ENDBRANCH  14  15
ENDBRANCH   6  14
TORSDOF 8
ENDMDL
MODEL 6
REMARK VINA RESULT:      -6.5      2.894      6.034
REMARK  Name = 
REMARK  9 active torsions:
REMARK  status: ('A' for Active; 'I' for Inactive)
REMARK    1  A    between atoms: C_1  and  O_2
REMARK    2  A    between atoms: O_2  and  C_3
REMARK    3  A    between atoms: C_6  and  C_7
REMARK    4  A    between atoms: C_7  and  C_8
REMARK    5  A    between atoms: C_8  and  N_9
REMARK    6  A    between atoms: C_11  and  O_12
REMARK    7  A    between atoms: O_12  and  C_13
REMARK    8  A    between atoms: C_13  and  C_14
REMARK    9  A    between atoms: C_14  and  C_15
REMARK                            x       y       z     vdW  Elec       q    Type
REMARK                         _______ _______ _______ _____ _____    ______ ____
ROOT
ATOM      1  C   UNL     1       3.533   3.507  19.695  0.00  0.00    +0.000 A 
ATOM      2  C   UNL     1       2.204   3.869  19.959  0.00  0.00    +0.000 A 
ATOM      3  C   UNL     1       1.781   5.189  19.823  0.00  0.00    +0.000 A 
ATOM      4  C   UNL     1       2.692   6.187  19.463  0.00  0.00    +0.000 A 
ATOM      5  C   UNL     1       4.040   5.837  19.289  0.00  0.00    +0.000 A 
ATOM      6  C   UNL     1       4.467   4.503  19.377  0.00  0.00    +0.000 A 
ENDROOT
BRANCH   1   8
ATOM      7  C   UNL     1       3.606   1.380  18.682  0.00  0.00    +0.000 C 
ATOM      8  O   UNL     1       3.929   2.200  19.806  0.00  0.00    +0.000 OA
ENDBRANCH   1   8
BRANCH   4   9
ATOM      9  C   UNL     1       2.225   7.611  19.275  0.00  0.00    +0.000 C 
BRANCH   9  10
ATOM     10  C   UNL     1       2.549   8.158  17.876  0.00  0.00    +0.000 C 
BRANCH  10  11
ATOM     11  N   UNL     1       1.731   9.331  17.565  0.00  0.00    +0.000 NA
ATOM     12  H   UNL     1       2.120   9.812  16.755  0.00  0.00    +0.000 HD
ATOM     13  H   UNL     1       1.784   9.991  18.340  0.00  0.00    +0.000 HD
ENDBRANCH  10  11
ENDBRANCH   9  10
ENDBRANCH   4   9
BRANCH   6  14
ATOM     14  O   UNL     1       5.810   4.359  19.118  0.00  0.00    +0.000 OA
BRANCH  14  15
ATOM     15  C   UNL     1       6.661   5.437  19.503  0.00  0.00    +0.000 C 
BRANCH  15  16
ATOM     16  C   UNL     1       7.635   5.746  18.363  0.00  0.00    +0.000 C 
BRANCH  16  17
ATOM     17  C   UNL     1       6.957   5.535  17.032  0.00  0.00    +0.000 A 
ATOM     18  C   UNL     1       6.023   6.469  16.562  0.00  0.00    +0.000 A 
ATOM     19  C   UNL     1       5.302   6.220  15.393  0.00  0.00    +0.000 A 
ATOM     20  C   UNL     1       5.513   5.040  14.683  0.00  0.00    +0.000 A 
ATOM     21  C   UNL     1       6.452   4.114  15.134  0.00  0.00    +0.000 A 
ATOM     22  C   UNL     1       7.171   4.358  16.304  0.00  0.00    +0.000 A 
ENDBRANCH  16  17
ENDBRANCH  15  16
ENDBRANCH  14  15
ENDBRANCH   6  14
TORSDOF 8
ENDMDL
MODEL 7
REMARK VINA RESULT:      -6.5      1.547      1.930
REMARK  Name = 
REMARK  9 active torsions:
REMARK  status: ('A' for Active; 'I' for Inactive)
REMARK    1  A    between atoms: C_1  and  O_2
REMARK    2  A    between atoms: O_2  and  C_3
REMARK    3  A    between atoms: C_6  and  C_7
REMARK    4  A    between atoms: C_7  and  C_8
REMARK    5  A    between atoms: C_8  and  N_9
REMARK    6  A    between atoms: C_11  and  O_12
REMARK    7  A    between atoms: O_12  and  C_13
REMARK    8  A    between atoms: C_13  and  C_14
REMARK    9  A    between atoms: C_14  and  C_15
REMARK                            x       y       z     vdW  Elec       q    Type
REMARK                         _______ _______ _______ _____ _____    ______ ____
ROOT
ATOM      1  C   UNL     1       6.307   4.459  17.585  0.00  0.00    +0.000 A 
ATOM      2  C   UNL     1       7.408   4.906  16.841  0.00  0.00    +0.000 A 
ATOM      3  C   UNL     1       7.386   4.890  15.448  0.00  0.00    +0.000 A 
ATOM      4  C   UNL     1       6.276   4.382  14.767  0.00  0.00    +0.000 A 
ATOM      5  C   UNL     1       5.213   3.851  15.514  0.00  0.00    +0.000 A 
ATOM      6  C   UNL     1       5.204   3.905  16.917  0.00  0.00    +0.000 A 
ENDROOT
BRANCH   1   8
ATOM      7  C   UNL     1       7.131   5.555  19.501  0.00  0.00    +0.000 C 
ATOM      8  O   UNL     1       6.331   4.506  18.954  0.00  0.00    +0.000 OA
ENDBRANCH   1   8
BRANCH   4   9
ATOM      9  C   UNL     1       6.233   4.402  13.258  0.00  0.00    +0.000 C 
BRANCH   9  10
ATOM     10  C   UNL     1       5.397   3.253  12.675  0.00  0.00    +0.000 C 
BRANCH  10  11
ATOM     11  N   UNL     1       6.234   2.316  11.926  0.00  0.00    +0.000 NA
ATOM     12  H   UNL     1       7.213   2.469  12.163  0.00  0.00    +0.000 HD
ATOM     13  H   UNL     1       6.149   2.513  10.930  0.00  0.00    +0.000 HD
ENDBRANCH  10  11
ENDBRANCH   9  10
ENDBRANCH   4   9
BRANCH   6  14
ATOM     14  O   UNL     1       4.052   3.388  17.460  0.00  0.00    +0.000 OA
BRANCH  14  15
ATOM     15  C   UNL     1       2.820   3.786  16.861  0.00  0.00    +0.000 C 
BRANCH  15  16
ATOM     16  C   UNL     1       2.136   4.826  17.752  0.00  0.00    +0.000 C 
BRANCH  16  17
ATOM     17  C   UNL     1       1.894   4.251  19.125  0.00  0.00    +0.000 A 
ATOM     18  C   UNL     1       2.456   4.864  20.254  0.00  0.00    +0.000 A 
ATOM     19  C   UNL     1       2.339   4.271  21.512  0.00  0.00    +0.000 A 
ATOM     20  C   UNL     1       1.656   3.065  21.652  0.00  0.00    +0.000 A 
ATOM     21  C   UNL     1       1.078   2.458  20.538  0.00  0.00    +0.000 A 
ATOM     22  C   UNL     1       1.196   3.046  19.279  0.00  0.00    +0.000 A 
ENDBRANCH  16  17
ENDBRANCH  15  16
ENDBRANCH  14  15
ENDBRANCH   6  14
TORSDOF 8
ENDMDL
MODEL 8
REMARK VINA RESULT:      -6.5      3.058      6.151
REMARK  Name = 
REMARK  9 active torsions:
REMARK  status: ('A' for Active; 'I' for Inactive)
REMARK    1  A    between atoms: C_1  and  O_2
REMARK    2  A    between atoms: O_2  and  C_3
REMARK    3  A    between atoms: C_6  and  C_7
REMARK    4  A    between atoms: C_7  and  C_8
REMARK    5  A    between atoms: C_8  and  N_9
REMARK    6  A    between atoms: C_11  and  O_12
REMARK    7  A    between atoms: O_12  and  C_13
REMARK    8  A    between atoms: C_13  and  C_14
REMARK    9  A    between atoms: C_14  and  C_15
REMARK                            x       y       z     vdW  Elec       q    Type
REMARK                         _______ _______ _______ _____ _____    ______ ____
ROOT
ATOM      1  C   UNL     1       3.345   4.114  18.875  0.00  0.00    +0.000 A 
ATOM      2  C   UNL     1       2.898   5.087  19.781  0.00  0.00    +0.000 A 
ATOM      3  C   UNL     1       2.811   6.426  19.406  0.00  0.00    +0.000 A 
ATOM      4  C   UNL     1       3.212   6.828  18.130  0.00  0.00    +0.000 A 
ATOM      5  C   UNL     1       3.744   5.867  17.257  0.00  0.00    +0.000 A 
ATOM      6  C   UNL     1       3.793   4.508  17.606  0.00  0.00    +0.000 A 
ENDROOT
BRANCH   1   8
ATOM      7  C   UNL     1       3.524   2.577  20.653  0.00  0.00    +0.000 C 
ATOM      8  O   UNL     1       3.400   2.796  19.247  0.00  0.00    +0.000 OA
ENDBRANCH   1   8
BRANCH   4   9
ATOM      9  C   UNL     1       3.079   8.273  17.710  0.00  0.00    +0.000 C 
BRANCH   9  10
ATOM     10  C   UNL     1       1.668   8.831  17.954  0.00  0.00    +0.000 C 
BRANCH  10  11
ATOM     11  N   UNL     1       1.587  10.244  17.584  0.00  0.00    +0.000 NA
ATOM     12  H   UNL     1       2.010  10.813  18.315  0.00  0.00    +0.000 HD
ATOM     13  H   UNL     1       0.607  10.522  17.539  0.00  0.00    +0.000 HD
ENDBRANCH  10  11
ENDBRANCH   9  10
ENDBRANCH   4   9
BRANCH   6  14
ATOM     14  O   UNL     1       4.292   3.719  16.597  0.00  0.00    +0.000 OA
BRANCH  14  15
ATOM     15  C   UNL     1       5.111   4.361  15.620  0.00  0.00    +0.000 C 
BRANCH  15  16
ATOM     16  C   UNL     1       6.585   4.142  15.970  0.00  0.00    +0.000 C 
BRANCH  16  17
ATOM     17  C   UNL     1       7.036   5.172  16.975  0.00  0.00    +0.000 A 
ATOM     18  C   UNL     1       7.096   6.526  16.616  0.00  0.00    +0.000 A 
ATOM     19  C   UNL     1       7.627   7.468  17.498  0.00  0.00    +0.000 A 
ATOM     20  C   UNL     1       8.096   7.065  18.747  0.00  0.00    +0.000 A 
ATOM     21  C   UNL     1       8.022   5.725  19.120  0.00  0.00    +0.000 A 
ATOM     22  C   UNL     1       7.496   4.780  18.239  0.00  0.00    +0.000 A 
ENDBRANCH  16  17
ENDBRANCH  15  16
ENDBRANCH  14  15
ENDBRANCH   6  14
TORSDOF 8
ENDMDL
MODEL 9
REMARK VINA RESULT:      -6.5      0.818      1.329
REMARK  Name = 
REMARK  9 active torsions:
REMARK  status: ('A' for Active; 'I' for Inactive)
REMARK    1  A    between atoms: C_1  and  O_2
REMARK    2  A    between atoms: O_2  and  C_3
REMARK    3  A    between atoms: C_6  and  C_7
REMARK    4  A    between atoms: C_7  and  C_8
REMARK    5  A    between atoms: C_8  and  N_9
REMARK    6  A    between atoms: C_11  and  O_12
REMARK    7  A    between atoms: O_12  and  C_13
REMARK    8  A    between atoms: C_13  and  C_14
REMARK    9  A    between atoms: C_14  and  C_15
REMARK                            x       y       z     vdW  Elec       q    Type
REMARK                         _______ _______ _______ _____ _____    ______ ____
ROOT
ATOM      1  C   UNL     1       6.858   5.870  17.355  0.00  0.00    +0.000 A 
ATOM      2  C   UNL     1       7.534   4.841  16.685  0.00  0.00    +0.000 A 
ATOM      3  C   UNL     1       7.033   4.308  15.499  0.00  0.00    +0.000 A 
ATOM      4  C   UNL     1       5.818   4.764  14.981  0.00  0.00    +0.000 A 
ATOM      5  C   UNL     1       5.098   5.730  15.701  0.00  0.00    +0.000 A 
ATOM      6  C   UNL     1       5.615   6.306  16.871  0.00  0.00    +0.000 A 
ENDROOT
BRANCH   1   8
ATOM      7  C   UNL     1       7.332   5.536  19.640  0.00  0.00    +0.000 C 
ATOM      8  O   UNL     1       7.376   6.404  18.506  0.00  0.00    +0.000 OA
ENDBRANCH   1   8
BRANCH   4   9
ATOM      9  C   UNL     1       5.295   4.217  13.674  0.00  0.00    +0.000 C 
BRANCH   9  10
ATOM     10  C   UNL     1       6.352   3.407  12.907  0.00  0.00    +0.000 C 
BRANCH  10  11
ATOM     11  N   UNL     1       7.078   4.249  11.956  0.00  0.00    +0.000 NA
ATOM     12  H   UNL     1       7.951   4.564  12.377  0.00  0.00    +0.000 HD
ATOM     13  H   UNL     1       6.532   5.091  11.771  0.00  0.00    +0.000 HD
ENDBRANCH  10  11
ENDBRANCH   9  10
ENDBRANCH   4   9
BRANCH   6  14
ATOM     14  O   UNL     1       4.789   7.272  17.396  0.00  0.00    +0.000 OA
BRANCH  14  15
ATOM     15  C   UNL     1       3.504   6.847  17.845  0.00  0.00    +0.000 C 
BRANCH  15  16
ATOM     16  C   UNL     1       3.653   6.092  19.169  0.00  0.00    +0.000 C 
BRANCH  16  17
ATOM     17  C   UNL     1       2.757   4.878  19.175  0.00  0.00    +0.000 A 
ATOM     18  C   UNL     1       2.767   3.991  18.088  0.00  0.00    +0.000 A 
ATOM     19  C   UNL     1       1.857   2.935  18.030  0.00  0.00    +0.000 A 
ATOM     20  C   UNL     1       0.935   2.754  19.059  0.00  0.00    +0.000 A 
ATOM     21  C   UNL     1       0.930   3.619  20.152  0.00  0.00    +0.000 A 
ATOM     22  C   UNL     1       1.836   4.678  20.211  0.00  0.00    +0.000 A 
ENDBRANCH  16  17
ENDBRANCH  15  16
ENDBRANCH  14  15
ENDBRANCH   6  14
TORSDOF 8
ENDMDL
