MODEL 1
REMARK VINA RESULT:      -6.8      0.000      0.000
REMARK  Name = 
REMARK  5 active torsions:
REMARK  status: ('A' for Active; 'I' for Inactive)
REMARK    1  A    between atoms: C_1  and  N_2
REMARK    2  A    between atoms: N_11  and  C_12
REMARK    3  A    between atoms: C_12  and  C_13
REMARK    4  A    between atoms: C_13  and  C_14
REMARK    5  A    between atoms: C_14  and  N_15
REMARK                            x       y       z     vdW  Elec       q    Type
REMARK                         _______ _______ _______ _____ _____    ______ ____
ROOT
ATOM      1  C   UNL     1       3.945   1.726  17.717  0.00  0.00    +0.000 C 
ATOM      2  N   UNL     1       3.523   3.032  18.179  0.00  0.00    +0.000 N 
ATOM      3  C   UNL     1       2.677   3.216  19.255  0.00  0.00    +0.000 A 
ATOM      4  C   UNL     1       2.060   2.285  20.114  0.00  0.00    +0.000 A 
ATOM      5  C   UNL     1       1.236   2.758  21.136  0.00  0.00    +0.000 A 
ATOM      6  C   UNL     1       1.023   4.117  21.300  0.00  0.00    +0.000 A 
ATOM      7  C   UNL     1       1.633   5.035  20.436  0.00  0.00    +0.000 A 
ATOM      8  C   UNL     1       2.484   4.588  19.395  0.00  0.00    +0.000 A 
ATOM      9  C   UNL     1       3.249   5.246  18.362  0.00  0.00    +0.000 A 
ATOM     10  C   UNL     1       3.391   6.606  17.990  0.00  0.00    +0.000 A 
ATOM     11  N   UNL     1       2.692   7.599  18.660  0.00  0.00    +0.000 N 
ATOM     12  N   UNL     1       4.202   6.921  16.942  0.00  0.00    +0.000 NA
ATOM     13  C   UNL     1       4.840   5.974  16.237  0.00  0.00    +0.000 A 
ATOM     14  C   UNL     1       5.650   6.371  15.177  0.00  0.00    +0.000 A 
ATOM     15  C   UNL     1       6.334   5.456  14.365  0.00  0.00    +0.000 A 
ATOM     16  C   UNL     1       6.201   4.103  14.633  0.00  0.00    +0.000 A 
ATOM     17  F   UNL     1       6.843   3.209  13.864  0.00  0.00    +0.000 F 
ATOM     18  C   UNL     1       5.417   3.666  15.681  0.00  0.00    +0.000 A 
ATOM     19  C   UNL     1       4.726   4.591  16.502  0.00  0.00    +0.000 A 
ATOM     20  C   UNL     1       3.894   4.246  17.611  0.00  0.00    +0.000 A 
ATOM     21  H   UNL     1       2.930   7.656  19.651  0.00  0.00    +0.000 HD
ENDROOT
BRANCH  11  22
ATOM     22  C   UNL     1       2.372   8.857  18.013  0.00  0.00    +0.000 C 
BRANCH  22  23
ATOM     23  C   UNL     1       0.977   9.336  18.418  0.00  0.00    +0.000 C 
BRANCH  23  24
ATOM     24  C   UNL     1       0.977   9.849  19.857  0.00  0.00    +0.000 C 
BRANCH  24  25
ATOM     25  N   UNL     1       0.914   8.731  20.797  0.00  0.00    +0.000 NA
ATOM     26  H   UNL     1       1.636   8.053  20.564  0.00  0.00    +0.000 HD
ATOM     27  H   UNL     1       0.023   8.251  20.672  0.00  0.00    +0.000 HD
ENDBRANCH  24  25
ENDBRANCH  23  24
ENDBRANCH  22  23
ENDBRANCH  11  22
TORSDOF 4
ENDMDL
MODEL 2
REMARK VINA RESULT:      -6.7      7.773     11.321
REMARK  Name = 
REMARK  5 active torsions:
REMARK  status: ('A' for Active; 'I' for Inactive)
REMARK    1  A    between atoms: C_1  and  N_2
REMARK    2  A    between atoms: N_11  and  C_12
REMARK    3  A    between atoms: C_12  and  C_13
REMARK    4  A    between atoms: C_13  and  C_14
REMARK    5  A    between atoms: C_14  and  N_15
REMARK                            x       y       z     vdW  Elec       q    Type
REMARK                         _______ _______ _______ _____ _____    ______ ____
ROOT
ATOM      1  C   UNL     1      -6.089  12.600  19.194  0.00  0.00    +0.000 C 
ATOM      2  N   UNL     1      -4.690  12.233  19.106  0.00  0.00    +0.000 N 
ATOM      3  C   UNL     1      -4.130  11.659  17.982  0.00  0.00    +0.000 A 
ATOM      4  C   UNL     1      -4.699  11.312  16.740  0.00  0.00    +0.000 A 
ATOM      5  C   UNL     1      -3.885  10.731  15.768  0.00  0.00    +0.000 A 
ATOM      6  C   UNL     1      -2.543  10.494  16.019  0.00  0.00    +0.000 A 
ATOM      7  C   UNL     1      -1.987  10.833  17.258  0.00  0.00    +0.000 A 
ATOM      8  C   UNL     1      -2.785  11.434  18.264  0.00  0.00    +0.000 A 
ATOM      9  C   UNL     1      -2.536  11.897  19.609  0.00  0.00    +0.000 A 
ATOM     10  C   UNL     1      -1.384  11.877  20.435  0.00  0.00    +0.000 A 
ATOM     11  N   UNL     1      -0.202  11.308  19.986  0.00  0.00    +0.000 N 
ATOM     12  N   UNL     1      -1.465  12.398  21.690  0.00  0.00    +0.000 NA
ATOM     13  C   UNL     1      -2.613  12.899  22.172  0.00  0.00    +0.000 A 
ATOM     14  C   UNL     1      -2.621  13.412  23.466  0.00  0.00    +0.000 A 
ATOM     15  C   UNL     1      -3.776  13.929  24.067  0.00  0.00    +0.000 A 
ATOM     16  C   UNL     1      -4.956  13.933  23.341  0.00  0.00    +0.000 A 
ATOM     17  F   UNL     1      -6.076  14.420  23.899  0.00  0.00    +0.000 F 
ATOM     18  C   UNL     1      -4.992  13.444  22.050  0.00  0.00    +0.000 A 
ATOM     19  C   UNL     1      -3.823  12.922  21.443  0.00  0.00    +0.000 A 
ATOM     20  C   UNL     1      -3.749  12.396  20.117  0.00  0.00    +0.000 A 
ATOM     21  H   UNL     1       0.176  11.771  19.159  0.00  0.00    +0.000 HD
ENDROOT
BRANCH  11  22
ATOM     22  C   UNL     1       0.776  10.779  20.917  0.00  0.00    +0.000 C 
BRANCH  22  23
ATOM     23  C   UNL     1       0.548   9.285  21.153  0.00  0.00    +0.000 C 
BRANCH  23  24
ATOM     24  C   UNL     1      -0.259   9.055  22.430  0.00  0.00    +0.000 C 
BRANCH  24  25
ATOM     25  N   UNL     1      -0.063  10.163  23.363  0.00  0.00    +0.000 NA
ATOM     26  H   UNL     1       0.860  10.567  23.219  0.00  0.00    +0.000 HD
ATOM     27  H   UNL     1      -0.066   9.792  24.314  0.00  0.00    +0.000 HD
ENDBRANCH  24  25
ENDBRANCH  23  24
ENDBRANCH  22  23
ENDBRANCH  11  22
TORSDOF 4
ENDMDL
MODEL 3
REMARK VINA RESULT:      -6.6      2.549      6.160
REMARK  Name = 
REMARK  5 active torsions:
REMARK  status: ('A' for Active; 'I' for Inactive)
REMARK    1  A    between atoms: C_1  and  N_2
REMARK    2  A    between atoms: N_11  and  C_12
REMARK    3  A    between atoms: C_12  and  C_13
REMARK    4  A    between atoms: C_13  and  C_14
REMARK    5  A    between atoms: C_14  and  N_15
REMARK                            x       y       z     vdW  Elec       q    Type
REMARK                         _______ _______ _______ _____ _____    ______ ____
ROOT
ATOM      1  C   UNL     1       0.456   7.085  21.281  0.00  0.00    +0.000 C 
ATOM      2  N   UNL     1       1.405   7.299  20.208  0.00  0.00    +0.000 N 
ATOM      3  C   UNL     1       1.500   8.486  19.510  0.00  0.00    +0.000 A 
ATOM      4  C   UNL     1       0.783   9.693  19.637  0.00  0.00    +0.000 A 
ATOM      5  C   UNL     1       1.090  10.751  18.782  0.00  0.00    +0.000 A 
ATOM      6  C   UNL     1       2.079  10.617  17.820  0.00  0.00    +0.000 A 
ATOM      7  C   UNL     1       2.781   9.412  17.694  0.00  0.00    +0.000 A 
ATOM      8  C   UNL     1       2.499   8.322  18.554  0.00  0.00    +0.000 A 
ATOM      9  C   UNL     1       3.020   6.982  18.693  0.00  0.00    +0.000 A 
ATOM     10  C   UNL     1       3.997   6.252  17.970  0.00  0.00    +0.000 A 
ATOM     11  N   UNL     1       4.638   6.816  16.878  0.00  0.00    +0.000 N 
ATOM     12  N   UNL     1       4.275   4.973  18.347  0.00  0.00    +0.000 NA
ATOM     13  C   UNL     1       3.625   4.381  19.362  0.00  0.00    +0.000 A 
ATOM     14  C   UNL     1       3.960   3.070  19.688  0.00  0.00    +0.000 A 
ATOM     15  C   UNL     1       3.319   2.358  20.710  0.00  0.00    +0.000 A 
ATOM     16  C   UNL     1       2.314   2.988  21.427  0.00  0.00    +0.000 A 
ATOM     17  F   UNL     1       1.682   2.323  22.407  0.00  0.00    +0.000 F 
ATOM     18  C   UNL     1       1.956   4.291  21.144  0.00  0.00    +0.000 A 
ATOM     19  C   UNL     1       2.606   5.011  20.111  0.00  0.00    +0.000 A 
ATOM     20  C   UNL     1       2.317   6.359  19.740  0.00  0.00    +0.000 A 
ATOM     21  H   UNL     1       5.175   7.650  17.117  0.00  0.00    +0.000 HD
ENDROOT
BRANCH  11  22
ATOM     22  C   UNL     1       5.190   5.989  15.823  0.00  0.00    +0.000 C 
BRANCH  22  23
ATOM     23  C   UNL     1       6.702   5.829  15.995  0.00  0.00    +0.000 C 
BRANCH  23  24
ATOM     24  C   UNL     1       7.054   4.396  16.392  0.00  0.00    +0.000 C 
BRANCH  24  25
ATOM     25  N   UNL     1       7.207   4.293  17.842  0.00  0.00    +0.000 NA
ATOM     26  H   UNL     1       6.335   3.966  18.252  0.00  0.00    +0.000 HD
ATOM     27  H   UNL     1       7.366   5.227  18.220  0.00  0.00    +0.000 HD
ENDBRANCH  24  25
ENDBRANCH  23  24
ENDBRANCH  22  23
ENDBRANCH  11  22
TORSDOF 4
ENDMDL
MODEL 4
REMARK VINA RESULT:      -6.4      1.946      5.162
REMARK  Name = 
REMARK  5 active torsions:
REMARK  status: ('A' for Active; 'I' for Inactive)
REMARK    1  A    between atoms: C_1  and  N_2
REMARK    2  A    between atoms: N_11  and  C_12
REMARK    3  A    between atoms: C_12  and  C_13
REMARK    4  A    between atoms: C_13  and  C_14
REMARK    5  A    between atoms: C_14  and  N_15
REMARK                            x       y       z     vdW  Elec       q    Type
REMARK                         _______ _______ _______ _____ _____    ______ ____
ROOT
ATOM      1  C   UNL     1       2.510   9.919  17.802  0.00  0.00    +0.000 C 
ATOM      2  N   UNL     1       2.122   8.887  18.741  0.00  0.00    +0.000 N 
ATOM      3  C   UNL     1       1.279   9.117  19.811  0.00  0.00    +0.000 A 
ATOM      4  C   UNL     1       0.627  10.292  20.237  0.00  0.00    +0.000 A 
ATOM      5  C   UNL     1      -0.177  10.238  21.375  0.00  0.00    +0.000 A 
ATOM      6  C   UNL     1      -0.329   9.054  22.077  0.00  0.00    +0.000 A 
ATOM      7  C   UNL     1       0.329   7.893  21.653  0.00  0.00    +0.000 A 
ATOM      8  C   UNL     1       1.146   7.912  20.495  0.00  0.00    +0.000 A 
ATOM      9  C   UNL     1       1.939   6.925  19.801  0.00  0.00    +0.000 A 
ATOM     10  C   UNL     1       2.220   5.560  20.064  0.00  0.00    +0.000 A 
ATOM     11  N   UNL     1       1.708   4.938  21.192  0.00  0.00    +0.000 N 
ATOM     12  N   UNL     1       3.028   4.877  19.206  0.00  0.00    +0.000 NA
ATOM     13  C   UNL     1       3.587   5.473  18.141  0.00  0.00    +0.000 A 
ATOM     14  C   UNL     1       4.404   4.712  17.310  0.00  0.00    +0.000 A 
ATOM     15  C   UNL     1       5.054   5.250  16.192  0.00  0.00    +0.000 A 
ATOM     16  C   UNL     1       4.871   6.593  15.900  0.00  0.00    +0.000 A 
ATOM     17  F   UNL     1       5.490   7.130  14.837  0.00  0.00    +0.000 F 
ATOM     18  C   UNL     1       4.061   7.382  16.691  0.00  0.00    +0.000 A 
ATOM     19  C   UNL     1       3.403   6.837  17.822  0.00  0.00    +0.000 A 
ATOM     20  C   UNL     1       2.542   7.562  18.702  0.00  0.00    +0.000 A 
ATOM     21  H   UNL     1       0.688   4.919  21.211  0.00  0.00    +0.000 HD
ENDROOT
BRANCH  11  22
ATOM     22  C   UNL     1       2.372   3.790  21.781  0.00  0.00    +0.000 C 
BRANCH  22  23
ATOM     23  C   UNL     1       1.524   2.528  21.614  0.00  0.00    +0.000 C 
BRANCH  23  24
ATOM     24  C   UNL     1       1.471   2.101  20.148  0.00  0.00    +0.000 C 
BRANCH  24  25
ATOM     25  N   UNL     1       0.320   2.707  19.482  0.00  0.00    +0.000 NA
ATOM     26  H   UNL     1       0.432   2.629  18.474  0.00  0.00    +0.000 HD
ATOM     27  H   UNL     1       0.312   3.706  19.690  0.00  0.00    +0.000 HD
ENDBRANCH  24  25
ENDBRANCH  23  24
ENDBRANCH  22  23
ENDBRANCH  11  22
TORSDOF 4
ENDMDL
MODEL 5
REMARK VINA RESULT:      -6.3      3.023      6.822
REMARK  Name = 
REMARK  5 active torsions:
REMARK  status: ('A' for Active; 'I' for Inactive)
REMARK    1  A    between atoms: C_1  and  N_2
REMARK    2  A    between atoms: N_11  and  C_12
REMARK    3  A    between atoms: C_12  and  C_13
REMARK    4  A    between atoms: C_13  and  C_14
REMARK    5  A    between atoms: C_14  and  N_15
REMARK                            x       y       z     vdW  Elec       q    Type
REMARK                         _______ _______ _______ _____ _____    ______ ____
ROOT
ATOM      1  C   UNL     1       2.978   9.273  17.219  0.00  0.00    +0.000 C 
ATOM      2  N   UNL     1       3.114   7.978  17.852  0.00  0.00    +0.000 N 
ATOM      3  C   UNL     1       3.923   6.975  17.356  0.00  0.00    +0.000 A 
ATOM      4  C   UNL     1       4.758   6.939  16.220  0.00  0.00    +0.000 A 
ATOM      5  C   UNL     1       5.474   5.773  15.950  0.00  0.00    +0.000 A 
ATOM      6  C   UNL     1       5.363   4.668  16.778  0.00  0.00    +0.000 A 
ATOM      7  C   UNL     1       4.525   4.708  17.899  0.00  0.00    +0.000 A 
ATOM      8  C   UNL     1       3.792   5.882  18.208  0.00  0.00    +0.000 A 
ATOM      9  C   UNL     1       2.869   6.251  19.255  0.00  0.00    +0.000 A 
ATOM     10  C   UNL     1       2.325   5.537  20.352  0.00  0.00    +0.000 A 
ATOM     11  N   UNL     1       2.648   4.205  20.559  0.00  0.00    +0.000 N 
ATOM     12  N   UNL     1       1.453   6.172  21.184  0.00  0.00    +0.000 NA
ATOM     13  C   UNL     1       1.075   7.443  20.970  0.00  0.00    +0.000 A 
ATOM     14  C   UNL     1       0.178   8.025  21.860  0.00  0.00    +0.000 A 
ATOM     15  C   UNL     1      -0.297   9.334  21.706  0.00  0.00    +0.000 A 
ATOM     16  C   UNL     1       0.149  10.078  20.625  0.00  0.00    +0.000 A 
ATOM     17  F   UNL     1      -0.298  11.333  20.455  0.00  0.00    +0.000 F 
ATOM     18  C   UNL     1       1.047   9.544  19.723  0.00  0.00    +0.000 A 
ATOM     19  C   UNL     1       1.527   8.220  19.880  0.00  0.00    +0.000 A 
ATOM     20  C   UNL     1       2.457   7.574  19.010  0.00  0.00    +0.000 A 
ATOM     21  H   UNL     1       3.644   4.056  20.722  0.00  0.00    +0.000 HD
ENDROOT
BRANCH  11  22
ATOM     22  C   UNL     1       1.750   3.318  21.275  0.00  0.00    +0.000 C 
BRANCH  22  23
ATOM     23  C   UNL     1       0.803   2.608  20.306  0.00  0.00    +0.000 C 
BRANCH  23  24
ATOM     24  C   UNL     1       1.532   2.220  19.021  0.00  0.00    +0.000 C 
BRANCH  24  25
ATOM     25  N   UNL     1       1.221   3.168  17.953  0.00  0.00    +0.000 NA
ATOM     26  H   UNL     1       0.286   3.542  18.095  0.00  0.00    +0.000 HD
ATOM     27  H   UNL     1       1.193   2.663  17.067  0.00  0.00    +0.000 HD
ENDBRANCH  24  25
ENDBRANCH  23  24
ENDBRANCH  22  23
ENDBRANCH  11  22
TORSDOF 4
ENDMDL
MODEL 6
REMARK VINA RESULT:      -6.3      6.238     10.743
REMARK  Name = 
REMARK  5 active torsions:
REMARK  status: ('A' for Active; 'I' for Inactive)
REMARK    1  A    between atoms: C_1  and  N_2
REMARK    2  A    between atoms: N_11  and  C_12
REMARK    3  A    between atoms: C_12  and  C_13
REMARK    4  A    between atoms: C_13  and  C_14
REMARK    5  A    between atoms: C_14  and  N_15
REMARK                            x       y       z     vdW  Elec       q    Type
REMARK                         _______ _______ _______ _____ _____    ______ ____
ROOT
ATOM      1  C   UNL     1      -5.470  12.830  19.189  0.00  0.00    +0.000 C 
ATOM      2  N   UNL     1      -4.189  12.197  18.956  0.00  0.00    +0.000 N 
ATOM      3  C   UNL     1      -3.873  11.538  17.784  0.00  0.00    +0.000 A 
ATOM      4  C   UNL     1      -4.626  11.329  16.611  0.00  0.00    +0.000 A 
ATOM      5  C   UNL     1      -4.049  10.613  15.562  0.00  0.00    +0.000 A 
ATOM      6  C   UNL     1      -2.762  10.112  15.673  0.00  0.00    +0.000 A 
ATOM      7  C   UNL     1      -2.024  10.316  16.845  0.00  0.00    +0.000 A 
ATOM      8  C   UNL     1      -2.577  11.048  17.925  0.00  0.00    +0.000 A 
ATOM      9  C   UNL     1      -2.103  11.434  19.233  0.00  0.00    +0.000 A 
ATOM     10  C   UNL     1      -0.898  11.174  19.933  0.00  0.00    +0.000 A 
ATOM     11  N   UNL     1       0.094  10.389  19.367  0.00  0.00    +0.000 N 
ATOM     12  N   UNL     1      -0.743  11.683  21.187  0.00  0.00    +0.000 NA
ATOM     13  C   UNL     1      -1.713  12.394  21.784  0.00  0.00    +0.000 A 
ATOM     14  C   UNL     1      -1.484  12.880  23.068  0.00  0.00    +0.000 A 
ATOM     15  C   UNL     1      -2.445  13.606  23.783  0.00  0.00    +0.000 A 
ATOM     16  C   UNL     1      -3.670  13.854  23.185  0.00  0.00    +0.000 A 
ATOM     17  F   UNL     1      -4.607  14.544  23.854  0.00  0.00    +0.000 F 
ATOM     18  C   UNL     1      -3.936  13.400  21.908  0.00  0.00    +0.000 A 
ATOM     19  C   UNL     1      -2.964  12.666  21.185  0.00  0.00    +0.000 A 
ATOM     20  C   UNL     1      -3.134  12.155  19.862  0.00  0.00    +0.000 A 
ATOM     21  H   UNL     1       0.468  10.781  18.502  0.00  0.00    +0.000 HD
ENDROOT
BRANCH  11  22
ATOM     22  C   UNL     1       1.040   9.664  20.194  0.00  0.00    +0.000 C 
BRANCH  22  23
ATOM     23  C   UNL     1       1.766   8.594  19.376  0.00  0.00    +0.000 C 
BRANCH  23  24
ATOM     24  C   UNL     1       1.618   8.862  17.880  0.00  0.00    +0.000 C 
BRANCH  24  25
ATOM     25  N   UNL     1       2.304  10.101  17.514  0.00  0.00    +0.000 NA
ATOM     26  H   UNL     1       3.285  10.033  17.776  0.00  0.00    +0.000 HD
ATOM     27  H   UNL     1       1.914  10.864  18.068  0.00  0.00    +0.000 HD
ENDBRANCH  24  25
ENDBRANCH  23  24
ENDBRANCH  22  23
ENDBRANCH  11  22
TORSDOF 4
ENDMDL
MODEL 7
REMARK VINA RESULT:      -6.3      7.252     10.458
REMARK  Name = 
REMARK  5 active torsions:
REMARK  status: ('A' for Active; 'I' for Inactive)
REMARK    1  A    between atoms: C_1  and  N_2
REMARK    2  A    between atoms: N_11  and  C_12
REMARK    3  A    between atoms: C_12  and  C_13
REMARK    4  A    between atoms: C_13  and  C_14
REMARK    5  A    between atoms: C_14  and  N_15
REMARK                            x       y       z     vdW  Elec       q    Type
REMARK                         _______ _______ _______ _____ _____    ______ ____
ROOT
ATOM      1  C   UNL     1      -3.770  11.008  16.477  0.00  0.00    +0.000 C 
ATOM      2  N   UNL     1      -4.080  11.637  17.743  0.00  0.00    +0.000 N 
ATOM      3  C   UNL     1      -5.291  12.246  18.007  0.00  0.00    +0.000 A 
ATOM      4  C   UNL     1      -6.440  12.403  17.207  0.00  0.00    +0.000 A 
ATOM      5  C   UNL     1      -7.541  13.076  17.737  0.00  0.00    +0.000 A 
ATOM      6  C   UNL     1      -7.504  13.587  19.024  0.00  0.00    +0.000 A 
ATOM      7  C   UNL     1      -6.355  13.436  19.810  0.00  0.00    +0.000 A 
ATOM      8  C   UNL     1      -5.223  12.748  19.305  0.00  0.00    +0.000 A 
ATOM      9  C   UNL     1      -3.920  12.420  19.833  0.00  0.00    +0.000 A 
ATOM     10  C   UNL     1      -3.281  12.715  21.064  0.00  0.00    +0.000 A 
ATOM     11  N   UNL     1      -3.920  13.480  22.027  0.00  0.00    +0.000 N 
ATOM     12  N   UNL     1      -2.014  12.260  21.273  0.00  0.00    +0.000 NA
ATOM     13  C   UNL     1      -1.349  11.571  20.332  0.00  0.00    +0.000 A 
ATOM     14  C   UNL     1      -0.056  11.141  20.615  0.00  0.00    +0.000 A 
ATOM     15  C   UNL     1       0.727  10.441  19.689  0.00  0.00    +0.000 A 
ATOM     16  C   UNL     1       0.190  10.162  18.442  0.00  0.00    +0.000 A 
ATOM     17  F   UNL     1       0.925   9.497  17.537  0.00  0.00    +0.000 F 
ATOM     18  C   UNL     1      -1.093  10.560  18.122  0.00  0.00    +0.000 A 
ATOM     19  C   UNL     1      -1.885  11.268  19.060  0.00  0.00    +0.000 A 
ATOM     20  C   UNL     1      -3.220  11.722  18.833  0.00  0.00    +0.000 A 
ATOM     21  H   UNL     1      -4.782  13.054  22.369  0.00  0.00    +0.000 HD
ENDROOT
BRANCH  11  22
ATOM     22  C   UNL     1      -3.163  14.244  23.001  0.00  0.00    +0.000 C 
BRANCH  22  23
ATOM     23  C   UNL     1      -3.771  14.096  24.397  0.00  0.00    +0.000 C 
BRANCH  23  24
ATOM     24  C   UNL     1      -4.045  12.628  24.717  0.00  0.00    +0.000 C 
BRANCH  24  25
ATOM     25  N   UNL     1      -5.476  12.345  24.623  0.00  0.00    +0.000 NA
ATOM     26  H   UNL     1      -6.000  13.120  25.021  0.00  0.00    +0.000 HD
ATOM     27  H   UNL     1      -5.685  11.532  25.204  0.00  0.00    +0.000 HD
ENDBRANCH  24  25
ENDBRANCH  23  24
ENDBRANCH  22  23
ENDBRANCH  11  22
TORSDOF 4
ENDMDL
MODEL 8
REMARK VINA RESULT:      -6.2      4.452      7.656
REMARK  Name = 
REMARK  5 active torsions:
REMARK  status: ('A' for Active; 'I' for Inactive)
REMARK    1  A    between atoms: C_1  and  N_2
REMARK    2  A    between atoms: N_11  and  C_12
REMARK    3  A    between atoms: C_12  and  C_13
REMARK    4  A    between atoms: C_13  and  C_14
REMARK    5  A    between atoms: C_14  and  N_15
REMARK                            x       y       z     vdW  Elec       q    Type
REMARK                         _______ _______ _______ _____ _____    ______ ____
ROOT
ATOM      1  C   UNL     1       0.402   9.416  22.980  0.00  0.00    +0.000 C 
ATOM      2  N   UNL     1      -0.214  10.181  21.917  0.00  0.00    +0.000 N 
ATOM      3  C   UNL     1      -1.128  11.192  22.145  0.00  0.00    +0.000 A 
ATOM      4  C   UNL     1      -1.652  11.709  23.346  0.00  0.00    +0.000 A 
ATOM      5  C   UNL     1      -2.580  12.748  23.281  0.00  0.00    +0.000 A 
ATOM      6  C   UNL     1      -2.983  13.260  22.058  0.00  0.00    +0.000 A 
ATOM      7  C   UNL     1      -2.464  12.735  20.869  0.00  0.00    +0.000 A 
ATOM      8  C   UNL     1      -1.512  11.685  20.901  0.00  0.00    +0.000 A 
ATOM      9  C   UNL     1      -0.796  10.939  19.893  0.00  0.00    +0.000 A 
ATOM     10  C   UNL     1      -0.823  10.968  18.476  0.00  0.00    +0.000 A 
ATOM     11  N   UNL     1      -1.680  11.823  17.802  0.00  0.00    +0.000 N 
ATOM     12  N   UNL     1      -0.014  10.117  17.785  0.00  0.00    +0.000 NA
ATOM     13  C   UNL     1       0.781   9.236  18.413  0.00  0.00    +0.000 A 
ATOM     14  C   UNL     1       1.578   8.396  17.640  0.00  0.00    +0.000 A 
ATOM     15  C   UNL     1       2.417   7.425  18.202  0.00  0.00    +0.000 A 
ATOM     16  C   UNL     1       2.457   7.300  19.581  0.00  0.00    +0.000 A 
ATOM     17  F   UNL     1       3.251   6.372  20.140  0.00  0.00    +0.000 F 
ATOM     18  C   UNL     1       1.691   8.119  20.386  0.00  0.00    +0.000 A 
ATOM     19  C   UNL     1       0.843   9.102  19.818  0.00  0.00    +0.000 A 
ATOM     20  C   UNL     1       0.014  10.000  20.557  0.00  0.00    +0.000 A 
ATOM     21  H   UNL     1      -1.499  12.808  17.999  0.00  0.00    +0.000 HD
ENDROOT
BRANCH  11  22
ATOM     22  C   UNL     1      -2.138  11.521  16.459  0.00  0.00    +0.000 C 
BRANCH  22  23
ATOM     23  C   UNL     1      -3.312  10.541  16.494  0.00  0.00    +0.000 C 
BRANCH  23  24
ATOM     24  C   UNL     1      -4.634  11.286  16.675  0.00  0.00    +0.000 C 
BRANCH  24  25
ATOM     25  N   UNL     1      -4.562  12.179  17.830  0.00  0.00    +0.000 NA
ATOM     26  H   UNL     1      -5.201  12.959  17.694  0.00  0.00    +0.000 HD
ATOM     27  H   UNL     1      -3.625  12.582  17.871  0.00  0.00    +0.000 HD
ENDBRANCH  24  25
ENDBRANCH  23  24
ENDBRANCH  22  23
ENDBRANCH  11  22
TORSDOF 4
ENDMDL
MODEL 9
REMARK VINA RESULT:      -6.1      7.195     10.867
REMARK  Name = 
REMARK  5 active torsions:
REMARK  status: ('A' for Active; 'I' for Inactive)
REMARK    1  A    between atoms: C_1  and  N_2
REMARK    2  A    between atoms: N_11  and  C_12
REMARK    3  A    between atoms: C_12  and  C_13
REMARK    4  A    between atoms: C_13  and  C_14
REMARK    5  A    between atoms: C_14  and  N_15
REMARK                            x       y       z     vdW  Elec       q    Type
REMARK                         _______ _______ _______ _____ _____    ______ ____
ROOT
ATOM      1  C   UNL     1      -1.344  12.382  21.532  0.00  0.00    +0.000 C 
ATOM      2  N   UNL     1      -1.562  11.715  20.265  0.00  0.00    +0.000 N 
ATOM      3  C   UNL     1      -0.603  10.937  19.647  0.00  0.00    +0.000 A 
ATOM      4  C   UNL     1       0.710  10.606  20.037  0.00  0.00    +0.000 A 
ATOM      5  C   UNL     1       1.473   9.788  19.203  0.00  0.00    +0.000 A 
ATOM      6  C   UNL     1       0.951   9.314  18.010  0.00  0.00    +0.000 A 
ATOM      7  C   UNL     1      -0.351   9.655  17.625  0.00  0.00    +0.000 A 
ATOM      8  C   UNL     1      -1.155  10.476  18.455  0.00  0.00    +0.000 A 
ATOM      9  C   UNL     1      -2.498  10.999  18.363  0.00  0.00    +0.000 A 
ATOM     10  C   UNL     1      -3.498  10.906  17.363  0.00  0.00    +0.000 A 
ATOM     11  N   UNL     1      -3.257  10.223  16.182  0.00  0.00    +0.000 N 
ATOM     12  N   UNL     1      -4.693  11.528  17.569  0.00  0.00    +0.000 NA
ATOM     13  C   UNL     1      -4.931  12.249  18.676  0.00  0.00    +0.000 A 
ATOM     14  C   UNL     1      -6.174  12.858  18.815  0.00  0.00    +0.000 A 
ATOM     15  C   UNL     1      -6.507  13.653  19.920  0.00  0.00    +0.000 A 
ATOM     16  C   UNL     1      -5.559  13.835  20.914  0.00  0.00    +0.000 A 
ATOM     17  F   UNL     1      -5.854  14.598  21.979  0.00  0.00    +0.000 F 
ATOM     18  C   UNL     1      -4.316  13.241  20.822  0.00  0.00    +0.000 A 
ATOM     19  C   UNL     1      -3.982  12.436  19.705  0.00  0.00    +0.000 A 
ATOM     20  C   UNL     1      -2.730  11.775  19.513  0.00  0.00    +0.000 A 
ATOM     21  H   UNL     1      -3.054   9.233  16.327  0.00  0.00    +0.000 HD
ENDROOT
BRANCH  11  22
ATOM     22  C   UNL     1      -3.978  10.548  14.966  0.00  0.00    +0.000 C 
BRANCH  22  23
ATOM     23  C   UNL     1      -3.277   9.954  13.743  0.00  0.00    +0.000 C 
BRANCH  23  24
ATOM     24  C   UNL     1      -4.218   9.925  12.540  0.00  0.00    +0.000 C 
BRANCH  24  25
ATOM     25  N   UNL     1      -3.466   9.678  11.311  0.00  0.00    +0.000 NA
ATOM     26  H   UNL     1      -2.521   9.385  11.547  0.00  0.00    +0.000 HD
ATOM     27  H   UNL     1      -3.372  10.559  10.804  0.00  0.00    +0.000 HD
ENDBRANCH  24  25
ENDBRANCH  23  24
ENDBRANCH  22  23
ENDBRANCH  11  22
TORSDOF 4
ENDMDL
