MODEL 1
REMARK VINA RESULT:      -7.0      0.000      0.000
REMARK  Name = 
REMARK  4 active torsions:
REMARK  status: ('A' for Active; 'I' for Inactive)
REMARK    1  A    between atoms: C_1  and  O_2
REMARK    2  A    between atoms: O_2  and  C_3
REMARK    3  A    between atoms: C_6  and  C_7
REMARK    4  A    between atoms: C_9  and  C_10
REMARK                            x       y       z     vdW  Elec       q    Type
REMARK                         _______ _______ _______ _____ _____    ______ ____
ROOT
ATOM      1  C   UNL     1       2.388   7.708  18.497  0.00  0.00    +0.000 A 
ATOM      2  N   UNL     1       2.066   7.891  19.757  0.00  0.00    +0.000 NA
ATOM      3  C   UNL     1       1.299   9.034  19.705  0.00  0.00    +0.000 A 
ATOM      4  N   UNL     1       1.159   9.548  18.473  0.00  0.00    +0.000 NA
ATOM      5  O   UNL     1       1.882   8.672  17.671  0.00  0.00    +0.000 OA
ENDROOT
BRANCH   1   9
ATOM      6  C   UNL     1       4.687   4.580  16.704  0.00  0.00    +0.000 A 
ATOM      7  C   UNL     1       5.073   5.913  16.562  0.00  0.00    +0.000 A 
ATOM      8  C   UNL     1       4.316   6.937  17.142  0.00  0.00    +0.000 A 
ATOM      9  C   UNL     1       3.151   6.640  17.862  0.00  0.00    +0.000 A 
ATOM     10  C   UNL     1       2.754   5.299  17.967  0.00  0.00    +0.000 A 
ATOM     11  C   UNL     1       3.515   4.276  17.393  0.00  0.00    +0.000 A 
BRANCH   6  13
ATOM     12  C   UNL     1       6.022   4.042  14.836  0.00  0.00    +0.000 C 
ATOM     13  O   UNL     1       5.505   3.662  16.107  0.00  0.00    +0.000 OA
ENDBRANCH   6  13
ENDBRANCH   1   9
BRANCH   3  14
ATOM     14  C   UNL     1       0.682   9.610  20.892  0.00  0.00    +0.000 A 
ATOM     15  C   UNL     1       0.735   8.933  22.111  0.00  0.00    +0.000 A 
ATOM     16  C   UNL     1       0.127   9.510  23.213  0.00  0.00    +0.000 A 
ATOM     17  N   UNL     1      -0.516  10.695  23.179  0.00  0.00    +0.000 NA
ATOM     18  C   UNL     1      -0.556  11.334  21.992  0.00  0.00    +0.000 A 
ATOM     19  C   UNL     1       0.021  10.841  20.835  0.00  0.00    +0.000 A 
ENDBRANCH   3  14
TORSDOF 3
ENDMDL
MODEL 2
REMARK VINA RESULT:      -7.0      0.096      1.083
REMARK  Name = 
REMARK  4 active torsions:
REMARK  status: ('A' for Active; 'I' for Inactive)
REMARK    1  A    between atoms: C_1  and  O_2
REMARK    2  A    between atoms: O_2  and  C_3
REMARK    3  A    between atoms: C_6  and  C_7
REMARK    4  A    between atoms: C_9  and  C_10
REMARK                            x       y       z     vdW  Elec       q    Type
REMARK                         _______ _______ _______ _____ _____    ______ ____
ROOT
ATOM      1  C   UNL     1       2.364   7.737  18.534  0.00  0.00    +0.000 A 
ATOM      2  N   UNL     1       1.997   7.892  19.786  0.00  0.00    +0.000 NA
ATOM      3  C   UNL     1       1.271   9.063  19.740  0.00  0.00    +0.000 A 
ATOM      4  N   UNL     1       1.199   9.619  18.520  0.00  0.00    +0.000 NA
ATOM      5  O   UNL     1       1.924   8.743  17.720  0.00  0.00    +0.000 OA
ENDROOT
BRANCH   1   9
ATOM      6  C   UNL     1       4.631   4.590  16.734  0.00  0.00    +0.000 A 
ATOM      7  C   UNL     1       5.035   5.920  16.602  0.00  0.00    +0.000 A 
ATOM      8  C   UNL     1       4.288   6.949  17.184  0.00  0.00    +0.000 A 
ATOM      9  C   UNL     1       3.116   6.664  17.897  0.00  0.00    +0.000 A 
ATOM     10  C   UNL     1       2.701   5.327  17.991  0.00  0.00    +0.000 A 
ATOM     11  C   UNL     1       3.451   4.298  17.415  0.00  0.00    +0.000 A 
BRANCH   6  13
ATOM     12  C   UNL     1       6.172   4.136  15.007  0.00  0.00    +0.000 C 
ATOM     13  O   UNL     1       5.440   3.666  16.134  0.00  0.00    +0.000 OA
ENDBRANCH   6  13
ENDBRANCH   1   9
BRANCH   3  14
ATOM     14  C   UNL     1       0.625   9.623  20.920  0.00  0.00    +0.000 A 
ATOM     15  C   UNL     1      -0.096  10.815  20.827  0.00  0.00    +0.000 A 
ATOM     16  C   UNL     1      -0.685  11.319  21.973  0.00  0.00    +0.000 A 
ATOM     17  N   UNL     1      -0.606  10.724  23.181  0.00  0.00    +0.000 NA
ATOM     18  C   UNL     1       0.095   9.572  23.249  0.00  0.00    +0.000 A 
ATOM     19  C   UNL     1       0.719   8.989  22.162  0.00  0.00    +0.000 A 
ENDBRANCH   3  14
TORSDOF 3
ENDMDL
MODEL 3
REMARK VINA RESULT:      -7.0      0.121      1.112
REMARK  Name = 
REMARK  4 active torsions:
REMARK  status: ('A' for Active; 'I' for Inactive)
REMARK    1  A    between atoms: C_1  and  O_2
REMARK    2  A    between atoms: O_2  and  C_3
REMARK    3  A    between atoms: C_6  and  C_7
REMARK    4  A    between atoms: C_9  and  C_10
REMARK                            x       y       z     vdW  Elec       q    Type
REMARK                         _______ _______ _______ _____ _____    ______ ____
ROOT
ATOM      1  C   UNL     1       2.366   7.772  18.557  0.00  0.00    +0.000 A 
ATOM      2  N   UNL     1       2.071   7.981  19.820  0.00  0.00    +0.000 NA
ATOM      3  C   UNL     1       1.231   9.071  19.754  0.00  0.00    +0.000 A 
ATOM      4  N   UNL     1       1.021   9.529  18.510  0.00  0.00    +0.000 NA
ATOM      5  O   UNL     1       1.774   8.671  17.716  0.00  0.00    +0.000 OA
ENDROOT
BRANCH   1   9
ATOM      6  C   UNL     1       4.682   4.717  16.665  0.00  0.00    +0.000 A 
ATOM      7  C   UNL     1       3.559   4.387  17.424  0.00  0.00    +0.000 A 
ATOM      8  C   UNL     1       2.806   5.386  18.050  0.00  0.00    +0.000 A 
ATOM      9  C   UNL     1       3.176   6.732  17.936  0.00  0.00    +0.000 A 
ATOM     10  C   UNL     1       4.328   7.048  17.199  0.00  0.00    +0.000 A 
ATOM     11  C   UNL     1       5.076   6.049  16.569  0.00  0.00    +0.000 A 
BRANCH   6  13
ATOM     12  C   UNL     1       6.123   3.983  14.947  0.00  0.00    +0.000 C 
ATOM     13  O   UNL     1       5.336   3.663  16.090  0.00  0.00    +0.000 OA
ENDBRANCH   6  13
ENDBRANCH   1   9
BRANCH   3  14
ATOM     14  C   UNL     1       0.614   9.650  20.940  0.00  0.00    +0.000 A 
ATOM     15  C   UNL     1       0.624   8.953  22.149  0.00  0.00    +0.000 A 
ATOM     16  C   UNL     1       0.018   9.534  23.249  0.00  0.00    +0.000 A 
ATOM     17  N   UNL     1      -0.584  10.741  23.223  0.00  0.00    +0.000 NA
ATOM     18  C   UNL     1      -0.582  11.399  22.045  0.00  0.00    +0.000 A 
ATOM     19  C   UNL     1      -0.004  10.903  20.891  0.00  0.00    +0.000 A 
ENDBRANCH   3  14
TORSDOF 3
ENDMDL
MODEL 4
REMARK VINA RESULT:      -6.9      0.303      1.573
REMARK  Name = 
REMARK  4 active torsions:
REMARK  status: ('A' for Active; 'I' for Inactive)
REMARK    1  A    between atoms: C_1  and  O_2
REMARK    2  A    between atoms: O_2  and  C_3
REMARK    3  A    between atoms: C_6  and  C_7
REMARK    4  A    between atoms: C_9  and  C_10
REMARK                            x       y       z     vdW  Elec       q    Type
REMARK                         _______ _______ _______ _____ _____    ______ ____
ROOT
ATOM      1  C   UNL     1       2.289   7.884  18.639  0.00  0.00    +0.000 A 
ATOM      2  N   UNL     1       1.888   8.041  19.881  0.00  0.00    +0.000 NA
ATOM      3  C   UNL     1       1.146   9.199  19.810  0.00  0.00    +0.000 A 
ATOM      4  N   UNL     1       1.095   9.747  18.585  0.00  0.00    +0.000 NA
ATOM      5  O   UNL     1       1.853   8.878  17.809  0.00  0.00    +0.000 OA
ENDROOT
BRANCH   1   9
ATOM      6  C   UNL     1       4.529   4.756  16.775  0.00  0.00    +0.000 A 
ATOM      7  C   UNL     1       3.403   4.460  17.544  0.00  0.00    +0.000 A 
ATOM      8  C   UNL     1       2.675   5.483  18.160  0.00  0.00    +0.000 A 
ATOM      9  C   UNL     1       3.073   6.820  18.027  0.00  0.00    +0.000 A 
ATOM     10  C   UNL     1       4.228   7.101  17.281  0.00  0.00    +0.000 A 
ATOM     11  C   UNL     1       4.951   6.079  16.660  0.00  0.00    +0.000 A 
BRANCH   6  13
ATOM     12  C   UNL     1       6.234   3.995  15.332  0.00  0.00    +0.000 C 
ATOM     13  O   UNL     1       5.157   3.681  16.210  0.00  0.00    +0.000 OA
ENDBRANCH   6  13
ENDBRANCH   1   9
BRANCH   3  14
ATOM     14  C   UNL     1       0.462   9.756  20.970  0.00  0.00    +0.000 A 
ATOM     15  C   UNL     1      -0.143  11.012  20.894  0.00  0.00    +0.000 A 
ATOM     16  C   UNL     1      -0.773  11.509  22.021  0.00  0.00    +0.000 A 
ATOM     17  N   UNL     1      -0.839  10.849  23.195  0.00  0.00    +0.000 NA
ATOM     18  C   UNL     1      -0.249   9.636  23.248  0.00  0.00    +0.000 A 
ATOM     19  C   UNL     1       0.404   9.054  22.177  0.00  0.00    +0.000 A 
ENDBRANCH   3  14
TORSDOF 3
ENDMDL
MODEL 5
REMARK VINA RESULT:      -6.6      2.274      7.727
REMARK  Name = 
REMARK  4 active torsions:
REMARK  status: ('A' for Active; 'I' for Inactive)
REMARK    1  A    between atoms: C_1  and  O_2
REMARK    2  A    between atoms: O_2  and  C_3
REMARK    3  A    between atoms: C_6  and  C_7
REMARK    4  A    between atoms: C_9  and  C_10
REMARK                            x       y       z     vdW  Elec       q    Type
REMARK                         _______ _______ _______ _____ _____    ______ ____
ROOT
ATOM      1  C   UNL     1       1.508   8.792  19.501  0.00  0.00    +0.000 A 
ATOM      2  N   UNL     1       2.158   7.651  19.482  0.00  0.00    +0.000 NA
ATOM      3  C   UNL     1       2.649   7.609  18.195  0.00  0.00    +0.000 A 
ATOM      4  N   UNL     1       2.312   8.668  17.443  0.00  0.00    +0.000 NA
ATOM      5  O   UNL     1       1.555   9.453  18.306  0.00  0.00    +0.000 OA
ENDROOT
BRANCH   1   9
ATOM      6  C   UNL     1      -0.652  10.715  22.651  0.00  0.00    +0.000 A 
ATOM      7  C   UNL     1      -0.543  11.316  21.396  0.00  0.00    +0.000 A 
ATOM      8  C   UNL     1       0.170  10.691  20.369  0.00  0.00    +0.000 A 
ATOM      9  C   UNL     1       0.799   9.458  20.587  0.00  0.00    +0.000 A 
ATOM     10  C   UNL     1       0.713   8.881  21.863  0.00  0.00    +0.000 A 
ATOM     11  C   UNL     1      -0.006   9.504  22.887  0.00  0.00    +0.000 A 
BRANCH   6  13
ATOM     12  C   UNL     1      -2.509  12.109  23.063  0.00  0.00    +0.000 C 
ATOM     13  O   UNL     1      -1.381  11.408  23.576  0.00  0.00    +0.000 OA
ENDBRANCH   6  13
ENDBRANCH   1   9
BRANCH   3  14
ATOM     14  C   UNL     1       3.479   6.513  17.715  0.00  0.00    +0.000 A 
ATOM     15  C   UNL     1       3.045   5.193  17.847  0.00  0.00    +0.000 A 
ATOM     16  C   UNL     1       3.869   4.179  17.387  0.00  0.00    +0.000 A 
ATOM     17  N   UNL     1       5.072   4.393  16.816  0.00  0.00    +0.000 NA
ATOM     18  C   UNL     1       5.473   5.676  16.698  0.00  0.00    +0.000 A 
ATOM     19  C   UNL     1       4.723   6.756  17.125  0.00  0.00    +0.000 A 
ENDBRANCH   3  14
TORSDOF 3
ENDMDL
MODEL 6
REMARK VINA RESULT:      -6.6      1.372      2.183
REMARK  Name = 
REMARK  4 active torsions:
REMARK  status: ('A' for Active; 'I' for Inactive)
REMARK    1  A    between atoms: C_1  and  O_2
REMARK    2  A    between atoms: O_2  and  C_3
REMARK    3  A    between atoms: C_6  and  C_7
REMARK    4  A    between atoms: C_9  and  C_10
REMARK                            x       y       z     vdW  Elec       q    Type
REMARK                         _______ _______ _______ _____ _____    ______ ____
ROOT
ATOM      1  C   UNL     1       2.811   6.508  18.889  0.00  0.00    +0.000 A 
ATOM      2  N   UNL     1       2.355   7.734  19.017  0.00  0.00    +0.000 NA
ATOM      3  C   UNL     1       1.672   7.674  20.212  0.00  0.00    +0.000 A 
ATOM      4  N   UNL     1       1.690   6.466  20.797  0.00  0.00    +0.000 NA
ATOM      5  O   UNL     1       2.442   5.692  19.921  0.00  0.00    +0.000 OA
ENDROOT
BRANCH   1   9
ATOM      6  C   UNL     1       5.221   4.767  15.817  0.00  0.00    +0.000 A 
ATOM      7  C   UNL     1       4.460   3.960  16.664  0.00  0.00    +0.000 A 
ATOM      8  C   UNL     1       3.678   4.530  17.674  0.00  0.00    +0.000 A 
ATOM      9  C   UNL     1       3.657   5.918  17.861  0.00  0.00    +0.000 A 
ATOM     10  C   UNL     1       4.455   6.716  17.026  0.00  0.00    +0.000 A 
ATOM     11  C   UNL     1       5.231   6.146  16.013  0.00  0.00    +0.000 A 
BRANCH   6  13
ATOM     12  C   UNL     1       7.054   4.817  14.333  0.00  0.00    +0.000 C 
ATOM     13  O   UNL     1       5.938   4.106  14.859  0.00  0.00    +0.000 OA
ENDBRANCH   6  13
ENDBRANCH   1   9
BRANCH   3  14
ATOM     14  C   UNL     1       1.011   8.838  20.789  0.00  0.00    +0.000 A 
ATOM     15  C   UNL     1       0.781   9.973  20.010  0.00  0.00    +0.000 A 
ATOM     16  C   UNL     1       0.159  11.061  20.598  0.00  0.00    +0.000 A 
ATOM     17  N   UNL     1      -0.240  11.089  21.887  0.00  0.00    +0.000 NA
ATOM     18  C   UNL     1      -0.008   9.982  22.623  0.00  0.00    +0.000 A 
ATOM     19  C   UNL     1       0.604   8.846  22.127  0.00  0.00    +0.000 A 
ENDBRANCH   3  14
TORSDOF 3
ENDMDL
MODEL 7
REMARK VINA RESULT:      -6.5      2.273      7.749
REMARK  Name = 
REMARK  4 active torsions:
REMARK  status: ('A' for Active; 'I' for Inactive)
REMARK    1  A    between atoms: C_1  and  O_2
REMARK    2  A    between atoms: O_2  and  C_3
REMARK    3  A    between atoms: C_6  and  C_7
REMARK    4  A    between atoms: C_9  and  C_10
REMARK                            x       y       z     vdW  Elec       q    Type
REMARK                         _______ _______ _______ _____ _____    ______ ____
ROOT
ATOM      1  C   UNL     1       1.564   8.773  19.471  0.00  0.00    +0.000 A 
ATOM      2  N   UNL     1       2.149   7.597  19.474  0.00  0.00    +0.000 NA
ATOM      3  C   UNL     1       2.660   7.515  18.197  0.00  0.00    +0.000 A 
ATOM      4  N   UNL     1       2.395   8.584  17.429  0.00  0.00    +0.000 NA
ATOM      5  O   UNL     1       1.668   9.417  18.271  0.00  0.00    +0.000 OA
ENDROOT
BRANCH   1   9
ATOM      6  C   UNL     1      -0.541  10.850  22.559  0.00  0.00    +0.000 A 
ATOM      7  C   UNL     1      -0.292  11.467  21.332  0.00  0.00    +0.000 A 
ATOM      8  C   UNL     1       0.403  10.790  20.325  0.00  0.00    +0.000 A 
ATOM      9  C   UNL     1       0.874   9.488  20.537  0.00  0.00    +0.000 A 
ATOM     10  C   UNL     1       0.649   8.892  21.788  0.00  0.00    +0.000 A 
ATOM     11  C   UNL     1      -0.051   9.567  22.791  0.00  0.00    +0.000 A 
BRANCH   6  13
ATOM     12  C   UNL     1      -1.337  12.988  23.162  0.00  0.00    +0.000 C 
ATOM     13  O   UNL     1      -1.238  11.600  23.465  0.00  0.00    +0.000 OA
ENDBRANCH   6  13
ENDBRANCH   1   9
BRANCH   3  14
ATOM     14  C   UNL     1       3.437   6.369  17.743  0.00  0.00    +0.000 A 
ATOM     15  C   UNL     1       4.732   6.547  17.254  0.00  0.00    +0.000 A 
ATOM     16  C   UNL     1       5.433   5.435  16.822  0.00  0.00    +0.000 A 
ATOM     17  N   UNL     1       4.936   4.180  16.848  0.00  0.00    +0.000 NA
ATOM     18  C   UNL     1       3.683   4.029  17.325  0.00  0.00    +0.000 A 
ATOM     19  C   UNL     1       2.903   5.078  17.779  0.00  0.00    +0.000 A 
ENDBRANCH   3  14
TORSDOF 3
ENDMDL
MODEL 8
REMARK VINA RESULT:      -6.5      1.358      1.946
REMARK  Name = 
REMARK  4 active torsions:
REMARK  status: ('A' for Active; 'I' for Inactive)
REMARK    1  A    between atoms: C_1  and  O_2
REMARK    2  A    between atoms: O_2  and  C_3
REMARK    3  A    between atoms: C_6  and  C_7
REMARK    4  A    between atoms: C_9  and  C_10
REMARK                            x       y       z     vdW  Elec       q    Type
REMARK                         _______ _______ _______ _____ _____    ______ ____
ROOT
ATOM      1  C   UNL     1       2.786   6.504  18.911  0.00  0.00    +0.000 A 
ATOM      2  N   UNL     1       2.347   7.740  19.000  0.00  0.00    +0.000 NA
ATOM      3  C   UNL     1       1.637   7.719  20.180  0.00  0.00    +0.000 A 
ATOM      4  N   UNL     1       1.621   6.525  20.793  0.00  0.00    +0.000 NA
ATOM      5  O   UNL     1       2.381   5.718  19.953  0.00  0.00    +0.000 OA
ENDROOT
BRANCH   1   9
ATOM      6  C   UNL     1       5.238   4.658  15.935  0.00  0.00    +0.000 A 
ATOM      7  C   UNL     1       4.404   3.886  16.745  0.00  0.00    +0.000 A 
ATOM      8  C   UNL     1       3.609   4.489  17.724  0.00  0.00    +0.000 A 
ATOM      9  C   UNL     1       3.646   5.877  17.916  0.00  0.00    +0.000 A 
ATOM     10  C   UNL     1       4.515   6.638  17.119  0.00  0.00    +0.000 A 
ATOM     11  C   UNL     1       5.305   6.034  16.137  0.00  0.00    +0.000 A 
BRANCH   6  13
ATOM     12  C   UNL     1       6.849   4.750  14.214  0.00  0.00    +0.000 C 
ATOM     13  O   UNL     1       5.962   3.965  15.005  0.00  0.00    +0.000 OA
ENDBRANCH   6  13
ENDBRANCH   1   9
BRANCH   3  14
ATOM     14  C   UNL     1       0.983   8.906  20.714  0.00  0.00    +0.000 A 
ATOM     15  C   UNL     1       0.526   8.924  22.033  0.00  0.00    +0.000 A 
ATOM     16  C   UNL     1      -0.099  10.068  22.499  0.00  0.00    +0.000 A 
ATOM     17  N   UNL     1      -0.294  11.173  21.750  0.00  0.00    +0.000 NA
ATOM     18  C   UNL     1       0.155  11.136  20.478  0.00  0.00    +0.000 A 
ATOM     19  C   UNL     1       0.792  10.041  19.921  0.00  0.00    +0.000 A 
ENDBRANCH   3  14
TORSDOF 3
ENDMDL
MODEL 9
REMARK VINA RESULT:      -6.5      2.289      7.793
REMARK  Name = 
REMARK  4 active torsions:
REMARK  status: ('A' for Active; 'I' for Inactive)
REMARK    1  A    between atoms: C_1  and  O_2
REMARK    2  A    between atoms: O_2  and  C_3
REMARK    3  A    between atoms: C_6  and  C_7
REMARK    4  A    between atoms: C_9  and  C_10
REMARK                            x       y       z     vdW  Elec       q    Type
REMARK                         _______ _______ _______ _____ _____    ______ ____
ROOT
ATOM      1  C   UNL     1       1.553   8.713  19.392  0.00  0.00    +0.000 A 
ATOM      2  N   UNL     1       2.194   7.567  19.422  0.00  0.00    +0.000 NA
ATOM      3  C   UNL     1       2.753   7.506  18.165  0.00  0.00    +0.000 A 
ATOM      4  N   UNL     1       2.465   8.557  17.382  0.00  0.00    +0.000 NA
ATOM      5  O   UNL     1       1.669   9.358  18.193  0.00  0.00    +0.000 OA
ENDROOT
BRANCH   1   9
ATOM      6  C   UNL     1      -0.604  10.753  22.470  0.00  0.00    +0.000 A 
ATOM      7  C   UNL     1       0.019   9.531  22.731  0.00  0.00    +0.000 A 
ATOM      8  C   UNL     1       0.717   8.861  21.722  0.00  0.00    +0.000 A 
ATOM      9  C   UNL     1       0.791   9.397  20.429  0.00  0.00    +0.000 A 
ATOM     10  C   UNL     1       0.130  10.608  20.171  0.00  0.00    +0.000 A 
ATOM     11  C   UNL     1      -0.562  11.280  21.181  0.00  0.00    +0.000 A 
BRANCH   6  13
ATOM     12  C   UNL     1      -2.468  11.989  23.219  0.00  0.00    +0.000 C 
ATOM     13  O   UNL     1      -1.248  11.325  23.531  0.00  0.00    +0.000 OA
ENDBRANCH   6  13
ENDBRANCH   1   9
BRANCH   3  14
ATOM     14  C   UNL     1       3.601   6.398  17.745  0.00  0.00    +0.000 A 
ATOM     15  C   UNL     1       4.894   6.639  17.279  0.00  0.00    +0.000 A 
ATOM     16  C   UNL     1       5.663   5.560  16.880  0.00  0.00    +0.000 A 
ATOM     17  N   UNL     1       5.235   4.281  16.916  0.00  0.00    +0.000 NA
ATOM     18  C   UNL     1       3.983   4.068  17.370  0.00  0.00    +0.000 A 
ATOM     19  C   UNL     1       3.138   5.079  17.792  0.00  0.00    +0.000 A 
ENDBRANCH   3  14
TORSDOF 3
ENDMDL
