MODEL 1
REMARK VINA RESULT:      -8.2      0.000      0.000
REMARK  Name = 
REMARK  8 active torsions:
REMARK  status: ('A' for Active; 'I' for Inactive)
REMARK    1  A    between atoms: N_1  and  C_2
REMARK    2  A    between atoms: C_2  and  C_3
REMARK    3  A    between atoms: C_3  and  O_5
REMARK    4  A    between atoms: C_6  and  O_7
REMARK    5  A    between atoms: O_7  and  C_8
REMARK    6  A    between atoms: C_8  and  C_9
REMARK    7  A    between atoms: C_20  and  C_22
REMARK    8  A    between atoms: C_22  and  O_24
REMARK                            x       y       z     vdW  Elec       q    Type
REMARK                         _______ _______ _______ _____ _____    ______ ____
ROOT
ATOM      1  C   UNL     1       6.957   4.877  16.759  0.00  0.00    +0.000 C 
ATOM      2  C   UNL     1       5.644   4.467  17.519  0.00  0.00    +0.000 C 
ATOM      3  C   UNL     1       5.757   5.303  18.822  0.00  0.00    +0.000 C 
ATOM      4  C   UNL     1       6.292   6.627  18.337  0.00  0.00    +0.000 C 
ATOM      5  C   UNL     1       7.055   6.364  17.054  0.00  0.00    +0.000 C 
ATOM      6  C   UNL     1       7.751   6.990  18.245  0.00  0.00    +0.000 C 
ATOM      7  F   UNL     1       8.632   6.162  18.948  0.00  0.00    +0.000 F 
ENDROOT
BRANCH   1   8
ATOM      8  N   UNL     1       8.127   4.127  17.299  0.00  0.00    +0.000 NA
ATOM      9  H   UNL     1       7.858   3.667  18.174  0.00  0.00    +0.000 HD
ATOM     10  H   UNL     1       8.831   4.815  17.589  0.00  0.00    +0.000 HD
ENDBRANCH   1   8
BRANCH   1  11
ATOM     11  C   UNL     1       6.937   4.532  15.257  0.00  0.00    +0.000 C 
ATOM     12  O   UNL     1       7.498   5.154  14.368  0.00  0.00    +0.000 OA
BRANCH  11  13
ATOM     13  O   UNL     1       6.250   3.380  15.014  0.00  0.00    +0.000 OA
ATOM     14  H   UNL     1       6.026   3.331  14.057  0.00  0.00    +0.000 HD
ENDBRANCH  11  13
ENDBRANCH   1  11
BRANCH   6  15
ATOM     15  C   UNL     1       8.166   8.427  18.180  0.00  0.00    +0.000 C 
ATOM     16  O   UNL     1       7.808   9.188  17.292  0.00  0.00    +0.000 OA
BRANCH  15  17
ATOM     17  O   UNL     1       8.991   8.784  19.193  0.00  0.00    +0.000 OA
ATOM     18  H   UNL     1       8.801   9.697  19.492  0.00  0.00    +0.000 HD
ENDBRANCH  15  17
ENDBRANCH   6  15
BRANCH   2  19
ATOM     19  O   UNL     1       4.414   4.875  16.893  0.00  0.00    +0.000 OA
BRANCH  19  20
ATOM     20  C   UNL     1       3.343   3.940  16.999  0.00  0.00    +0.000 C 
BRANCH  20  21
ATOM     21  C   UNL     1       2.820   3.892  18.409  0.00  0.00    +0.000 A 
ATOM     22  C   UNL     1       2.236   5.031  19.000  0.00  0.00    +0.000 A 
ATOM     23 CL   UNL     1       2.155   6.558  18.186  0.00  0.00    +0.000 Cl
ATOM     24  C   UNL     1       1.672   4.976  20.280  0.00  0.00    +0.000 A 
ATOM     25  C   UNL     1       1.698   3.790  21.004  0.00  0.00    +0.000 A 
ATOM     26  C   UNL     1       2.293   2.660  20.450  0.00  0.00    +0.000 A 
ATOM     27  C   UNL     1       2.851   2.710  19.165  0.00  0.00    +0.000 A 
ATOM     28 CL   UNL     1       3.550   1.248  18.558  0.00  0.00    +0.000 Cl
ENDBRANCH  20  21
ENDBRANCH  19  20
ENDBRANCH   2  19
TORSDOF 8
ENDMDL
MODEL 2
REMARK VINA RESULT:      -8.1      0.085      1.869
REMARK  Name = 
REMARK  8 active torsions:
REMARK  status: ('A' for Active; 'I' for Inactive)
REMARK    1  A    between atoms: N_1  and  C_2
REMARK    2  A    between atoms: C_2  and  C_3
REMARK    3  A    between atoms: C_3  and  O_5
REMARK    4  A    between atoms: C_6  and  O_7
REMARK    5  A    between atoms: O_7  and  C_8
REMARK    6  A    between atoms: C_8  and  C_9
REMARK    7  A    between atoms: C_20  and  C_22
REMARK    8  A    between atoms: C_22  and  O_24
REMARK                            x       y       z     vdW  Elec       q    Type
REMARK                         _______ _______ _______ _____ _____    ______ ____
ROOT
ATOM      1  C   UNL     1       6.960   4.875  16.753  0.00  0.00    +0.000 C 
ATOM      2  C   UNL     1       5.647   4.462  17.514  0.00  0.00    +0.000 C 
ATOM      3  C   UNL     1       5.760   5.297  18.817  0.00  0.00    +0.000 C 
ATOM      4  C   UNL     1       6.291   6.623  18.333  0.00  0.00    +0.000 C 
ATOM      5  C   UNL     1       7.054   6.362  17.049  0.00  0.00    +0.000 C 
ATOM      6  C   UNL     1       7.750   6.989  18.241  0.00  0.00    +0.000 C 
ATOM      7  F   UNL     1       8.632   6.162  18.942  0.00  0.00    +0.000 F 
ENDROOT
BRANCH   1   8
ATOM      8  N   UNL     1       8.131   4.127  17.293  0.00  0.00    +0.000 NA
ATOM      9  H   UNL     1       7.962   3.121  17.201  0.00  0.00    +0.000 HD
ATOM     10  H   UNL     1       8.157   4.280  18.307  0.00  0.00    +0.000 HD
ENDBRANCH   1   8
BRANCH   1  11
ATOM     11  C   UNL     1       6.939   4.530  15.251  0.00  0.00    +0.000 C 
ATOM     12  O   UNL     1       7.506   5.148  14.364  0.00  0.00    +0.000 OA
BRANCH  11  13
ATOM     13  O   UNL     1       6.245   3.383  15.007  0.00  0.00    +0.000 OA
ATOM     14  H   UNL     1       6.065   3.311  14.042  0.00  0.00    +0.000 HD
ENDBRANCH  11  13
ENDBRANCH   1  11
BRANCH   6  15
ATOM     15  C   UNL     1       8.161   8.427  18.176  0.00  0.00    +0.000 C 
ATOM     16  O   UNL     1       7.791   9.191  17.296  0.00  0.00    +0.000 OA
BRANCH  15  17
ATOM     17  O   UNL     1       9.000   8.780  19.178  0.00  0.00    +0.000 OA
ATOM     18  H   UNL     1       9.661   8.076  19.344  0.00  0.00    +0.000 HD
ENDBRANCH  15  17
ENDBRANCH   6  15
BRANCH   2  19
ATOM     19  O   UNL     1       4.416   4.868  16.888  0.00  0.00    +0.000 OA
BRANCH  19  20
ATOM     20  C   UNL     1       3.344   3.935  17.005  0.00  0.00    +0.000 C 
BRANCH  20  21
ATOM     21  C   UNL     1       2.805   3.922  18.410  0.00  0.00    +0.000 A 
ATOM     22  C   UNL     1       2.876   2.756  19.198  0.00  0.00    +0.000 A 
ATOM     23 CL   UNL     1       3.502   1.261  18.586  0.00  0.00    +0.000 Cl
ATOM     24  C   UNL     1       2.453   2.756  20.533  0.00  0.00    +0.000 A 
ATOM     25  C   UNL     1       1.934   3.913  21.101  0.00  0.00    +0.000 A 
ATOM     26  C   UNL     1       1.831   5.069  20.333  0.00  0.00    +0.000 A 
ATOM     27  C   UNL     1       2.261   5.074  18.999  0.00  0.00    +0.000 A 
ATOM     28 CL   UNL     1       2.111   6.566  18.134  0.00  0.00    +0.000 Cl
ENDBRANCH  20  21
ENDBRANCH  19  20
ENDBRANCH   2  19
TORSDOF 8
ENDMDL
MODEL 3
REMARK VINA RESULT:      -7.7      2.283      3.677
REMARK  Name = 
REMARK  8 active torsions:
REMARK  status: ('A' for Active; 'I' for Inactive)
REMARK    1  A    between atoms: N_1  and  C_2
REMARK    2  A    between atoms: C_2  and  C_3
REMARK    3  A    between atoms: C_3  and  O_5
REMARK    4  A    between atoms: C_6  and  O_7
REMARK    5  A    between atoms: O_7  and  C_8
REMARK    6  A    between atoms: C_8  and  C_9
REMARK    7  A    between atoms: C_20  and  C_22
REMARK    8  A    between atoms: C_22  and  O_24
REMARK                            x       y       z     vdW  Elec       q    Type
REMARK                         _______ _______ _______ _____ _____    ______ ____
ROOT
ATOM      1  C   UNL     1       6.577   5.223  17.216  0.00  0.00    +0.000 C 
ATOM      2  C   UNL     1       5.169   4.751  17.734  0.00  0.00    +0.000 C 
ATOM      3  C   UNL     1       4.343   4.714  16.421  0.00  0.00    +0.000 C 
ATOM      4  C   UNL     1       5.313   4.140  15.419  0.00  0.00    +0.000 C 
ATOM      5  C   UNL     1       6.711   4.467  15.906  0.00  0.00    +0.000 C 
ATOM      6  C   UNL     1       6.239   4.948  14.549  0.00  0.00    +0.000 C 
ATOM      7  F   UNL     1       5.947   6.312  14.448  0.00  0.00    +0.000 F 
ENDROOT
BRANCH   1   8
ATOM      8  N   UNL     1       6.587   6.699  17.008  0.00  0.00    +0.000 NA
ATOM      9  H   UNL     1       7.008   7.152  17.824  0.00  0.00    +0.000 HD
ATOM     10  H   UNL     1       5.613   7.021  17.023  0.00  0.00    +0.000 HD
ENDBRANCH   1   8
BRANCH   1  11
ATOM     11  C   UNL     1       7.722   4.964  18.214  0.00  0.00    +0.000 C 
ATOM     12  O   UNL     1       7.888   5.534  19.281  0.00  0.00    +0.000 OA
BRANCH  11  13
ATOM     13  O   UNL     1       8.534   3.951  17.799  0.00  0.00    +0.000 OA
ATOM     14  H   UNL     1       8.954   3.529  18.582  0.00  0.00    +0.000 HD
ENDBRANCH  11  13
ENDBRANCH   1  11
BRANCH   6  15
ATOM     15  C   UNL     1       6.826   4.344  13.311  0.00  0.00    +0.000 C 
ATOM     16  O   UNL     1       7.652   4.916  12.614  0.00  0.00    +0.000 OA
BRANCH  15  17
ATOM     17  O   UNL     1       6.330   3.113  13.039  0.00  0.00    +0.000 OA
ATOM     18  H   UNL     1       5.888   2.734  13.827  0.00  0.00    +0.000 HD
ENDBRANCH  15  17
ENDBRANCH   6  15
BRANCH   2  19
ATOM     19  O   UNL     1       5.123   3.416  18.269  0.00  0.00    +0.000 OA
BRANCH  19  20
ATOM     20  C   UNL     1       3.879   2.739  18.096  0.00  0.00    +0.000 C 
BRANCH  20  21
ATOM     21  C   UNL     1       2.990   2.953  19.291  0.00  0.00    +0.000 A 
ATOM     22  C   UNL     1       1.751   3.611  19.158  0.00  0.00    +0.000 A 
ATOM     23 CL   UNL     1       1.214   4.280  17.654  0.00  0.00    +0.000 Cl
ATOM     24  C   UNL     1       0.879   3.742  20.246  0.00  0.00    +0.000 A 
ATOM     25  C   UNL     1       1.235   3.236  21.490  0.00  0.00    +0.000 A 
ATOM     26  C   UNL     1       2.465   2.604  21.650  0.00  0.00    +0.000 A 
ATOM     27  C   UNL     1       3.336   2.465  20.561  0.00  0.00    +0.000 A 
ATOM     28 CL   UNL     1       4.833   1.648  20.856  0.00  0.00    +0.000 Cl
ENDBRANCH  20  21
ENDBRANCH  19  20
ENDBRANCH   2  19
TORSDOF 8
ENDMDL
MODEL 4
REMARK VINA RESULT:      -7.6      2.140      3.972
REMARK  Name = 
REMARK  8 active torsions:
REMARK  status: ('A' for Active; 'I' for Inactive)
REMARK    1  A    between atoms: N_1  and  C_2
REMARK    2  A    between atoms: C_2  and  C_3
REMARK    3  A    between atoms: C_3  and  O_5
REMARK    4  A    between atoms: C_6  and  O_7
REMARK    5  A    between atoms: O_7  and  C_8
REMARK    6  A    between atoms: C_8  and  C_9
REMARK    7  A    between atoms: C_20  and  C_22
REMARK    8  A    between atoms: C_22  and  O_24
REMARK                            x       y       z     vdW  Elec       q    Type
REMARK                         _______ _______ _______ _____ _____    ______ ____
ROOT
ATOM      1  C   UNL     1       6.455   5.697  17.252  0.00  0.00    +0.000 C 
ATOM      2  C   UNL     1       5.100   5.148  17.831  0.00  0.00    +0.000 C 
ATOM      3  C   UNL     1       4.290   4.872  16.537  0.00  0.00    +0.000 C 
ATOM      4  C   UNL     1       5.319   4.286  15.603  0.00  0.00    +0.000 C 
ATOM      5  C   UNL     1       6.674   4.810  16.039  0.00  0.00    +0.000 C 
ATOM      6  C   UNL     1       6.162   5.077  14.637  0.00  0.00    +0.000 C 
ATOM      7  F   UNL     1       5.732   6.382  14.379  0.00  0.00    +0.000 F 
ENDROOT
BRANCH   1   8
ATOM      8  N   UNL     1       6.315   7.132  16.872  0.00  0.00    +0.000 NA
ATOM      9  H   UNL     1       6.437   7.227  15.860  0.00  0.00    +0.000 HD
ATOM     10  H   UNL     1       7.115   7.638  17.266  0.00  0.00    +0.000 HD
ENDBRANCH   1   8
BRANCH   1  11
ATOM     11  C   UNL     1       7.616   5.677  18.266  0.00  0.00    +0.000 C 
ATOM     12  O   UNL     1       8.069   6.643  18.859  0.00  0.00    +0.000 OA
BRANCH  11  13
ATOM     13  O   UNL     1       8.066   4.410  18.490  0.00  0.00    +0.000 OA
ATOM     14  H   UNL     1       8.726   4.173  17.801  0.00  0.00    +0.000 HD
ENDBRANCH  11  13
ENDBRANCH   1  11
BRANCH   6  15
ATOM     15  C   UNL     1       6.815   4.395  13.476  0.00  0.00    +0.000 C 
ATOM     16  O   UNL     1       7.646   4.937  12.762  0.00  0.00    +0.000 OA
BRANCH  15  17
ATOM     17  O   UNL     1       6.372   3.129  13.291  0.00  0.00    +0.000 OA
ATOM     18  H   UNL     1       5.393   3.104  13.254  0.00  0.00    +0.000 HD
ENDBRANCH  15  17
ENDBRANCH   6  15
BRANCH   2  19
ATOM     19  O   UNL     1       5.188   3.887  18.520  0.00  0.00    +0.000 OA
BRANCH  19  20
ATOM     20  C   UNL     1       4.129   2.974  18.243  0.00  0.00    +0.000 C 
BRANCH  20  21
ATOM     21  C   UNL     1       3.114   2.989  19.353  0.00  0.00    +0.000 A 
ATOM     22  C   UNL     1       3.420   2.446  20.618  0.00  0.00    +0.000 A 
ATOM     23 CL   UNL     1       4.930   1.665  20.948  0.00  0.00    +0.000 Cl
ATOM     24  C   UNL     1       2.514   2.529  21.681  0.00  0.00    +0.000 A 
ATOM     25  C   UNL     1       1.277   3.136  21.500  0.00  0.00    +0.000 A 
ATOM     26  C   UNL     1       0.944   3.657  20.253  0.00  0.00    +0.000 A 
ATOM     27  C   UNL     1       1.852   3.582  19.188  0.00  0.00    +0.000 A 
ATOM     28 CL   UNL     1       1.352   4.275  17.683  0.00  0.00    +0.000 Cl
ENDBRANCH  20  21
ENDBRANCH  19  20
ENDBRANCH   2  19
TORSDOF 8
ENDMDL
MODEL 5
REMARK VINA RESULT:      -7.5      2.143      4.059
REMARK  Name = 
REMARK  8 active torsions:
REMARK  status: ('A' for Active; 'I' for Inactive)
REMARK    1  A    between atoms: N_1  and  C_2
REMARK    2  A    between atoms: C_2  and  C_3
REMARK    3  A    between atoms: C_3  and  O_5
REMARK    4  A    between atoms: C_6  and  O_7
REMARK    5  A    between atoms: O_7  and  C_8
REMARK    6  A    between atoms: C_8  and  C_9
REMARK    7  A    between atoms: C_20  and  C_22
REMARK    8  A    between atoms: C_22  and  O_24
REMARK                            x       y       z     vdW  Elec       q    Type
REMARK                         _______ _______ _______ _____ _____    ______ ____
ROOT
ATOM      1  C   UNL     1       6.168   5.809  17.791  0.00  0.00    +0.000 C 
ATOM      2  C   UNL     1       4.981   4.959  18.375  0.00  0.00    +0.000 C 
ATOM      3  C   UNL     1       4.238   4.522  17.084  0.00  0.00    +0.000 C 
ATOM      4  C   UNL     1       5.362   4.197  16.132  0.00  0.00    +0.000 C 
ATOM      5  C   UNL     1       6.567   5.009  16.562  0.00  0.00    +0.000 C 
ATOM      6  C   UNL     1       5.990   5.170  15.170  0.00  0.00    +0.000 C 
ATOM      7  F   UNL     1       5.272   6.346  14.935  0.00  0.00    +0.000 F 
ENDROOT
BRANCH   1   8
ATOM      8  N   UNL     1       5.700   7.179  17.433  0.00  0.00    +0.000 NA
ATOM      9  H   UNL     1       6.497   7.822  17.445  0.00  0.00    +0.000 HD
ATOM     10  H   UNL     1       5.102   7.512  18.196  0.00  0.00    +0.000 HD
ENDBRANCH   1   8
BRANCH   1  11
ATOM     11  C   UNL     1       7.315   6.041  18.793  0.00  0.00    +0.000 C 
ATOM     12  O   UNL     1       8.259   6.801  18.642  0.00  0.00    +0.000 OA
BRANCH  11  13
ATOM     13  O   UNL     1       7.134   5.328  19.940  0.00  0.00    +0.000 OA
ATOM     14  H   UNL     1       6.238   5.516  20.301  0.00  0.00    +0.000 HD
ENDBRANCH  11  13
ENDBRANCH   1  11
BRANCH   6  15
ATOM     15  C   UNL     1       6.767   4.669  13.993  0.00  0.00    +0.000 C 
ATOM     16  O   UNL     1       7.630   5.327  13.430  0.00  0.00    +0.000 OA
BRANCH  15  17
ATOM     17  O   UNL     1       6.396   3.424  13.608  0.00  0.00    +0.000 OA
ATOM     18  H   UNL     1       5.622   3.116  14.124  0.00  0.00    +0.000 HD
ENDBRANCH  15  17
ENDBRANCH   6  15
BRANCH   2  19
ATOM     19  O   UNL     1       5.362   3.743  19.044  0.00  0.00    +0.000 OA
BRANCH  19  20
ATOM     20  C   UNL     1       4.559   3.398  20.171  0.00  0.00    +0.000 C 
BRANCH  20  21
ATOM     21  C   UNL     1       3.135   3.155  19.751  0.00  0.00    +0.000 A 
ATOM     22  C   UNL     1       2.797   2.036  18.961  0.00  0.00    +0.000 A 
ATOM     23 CL   UNL     1       3.990   0.932  18.363  0.00  0.00    +0.000 Cl
ATOM     24  C   UNL     1       1.466   1.755  18.634  0.00  0.00    +0.000 A 
ATOM     25  C   UNL     1       0.447   2.593  19.071  0.00  0.00    +0.000 A 
ATOM     26  C   UNL     1       0.760   3.717  19.831  0.00  0.00    +0.000 A 
ATOM     27  C   UNL     1       2.092   3.997  20.166  0.00  0.00    +0.000 A 
ATOM     28 CL   UNL     1       2.376   5.406  21.130  0.00  0.00    +0.000 Cl
ENDBRANCH  20  21
ENDBRANCH  19  20
ENDBRANCH   2  19
TORSDOF 8
ENDMDL
MODEL 6
REMARK VINA RESULT:      -7.5      2.183      3.688
REMARK  Name = 
REMARK  8 active torsions:
REMARK  status: ('A' for Active; 'I' for Inactive)
REMARK    1  A    between atoms: N_1  and  C_2
REMARK    2  A    between atoms: C_2  and  C_3
REMARK    3  A    between atoms: C_3  and  O_5
REMARK    4  A    between atoms: C_6  and  O_7
REMARK    5  A    between atoms: O_7  and  C_8
REMARK    6  A    between atoms: C_8  and  C_9
REMARK    7  A    between atoms: C_20  and  C_22
REMARK    8  A    between atoms: C_22  and  O_24
REMARK                            x       y       z     vdW  Elec       q    Type
REMARK                         _______ _______ _______ _____ _____    ______ ____
ROOT
ATOM      1  C   UNL     1       6.349   5.670  17.526  0.00  0.00    +0.000 C 
ATOM      2  C   UNL     1       5.103   4.989  18.202  0.00  0.00    +0.000 C 
ATOM      3  C   UNL     1       4.206   4.677  16.975  0.00  0.00    +0.000 C 
ATOM      4  C   UNL     1       5.194   4.208  15.936  0.00  0.00    +0.000 C 
ATOM      5  C   UNL     1       6.532   4.837  16.269  0.00  0.00    +0.000 C 
ATOM      6  C   UNL     1       5.876   5.095  14.928  0.00  0.00    +0.000 C 
ATOM      7  F   UNL     1       5.315   6.363  14.751  0.00  0.00    +0.000 F 
ENDROOT
BRANCH   1   8
ATOM      8  N   UNL     1       6.053   7.096  17.208  0.00  0.00    +0.000 NA
ATOM      9  H   UNL     1       6.278   7.677  18.020  0.00  0.00    +0.000 HD
ATOM     10  H   UNL     1       5.036   7.189  17.112  0.00  0.00    +0.000 HD
ENDBRANCH   1   8
BRANCH   1  11
ATOM     11  C   UNL     1       7.593   5.725  18.434  0.00  0.00    +0.000 C 
ATOM     12  O   UNL     1       8.069   6.729  18.940  0.00  0.00    +0.000 OA
BRANCH  11  13
ATOM     13  O   UNL     1       8.096   4.482  18.675  0.00  0.00    +0.000 OA
ATOM     14  H   UNL     1       8.036   3.942  17.855  0.00  0.00    +0.000 HD
ENDBRANCH  11  13
ENDBRANCH   1  11
BRANCH   6  15
ATOM     15  C   UNL     1       6.478   4.503  13.691  0.00  0.00    +0.000 C 
ATOM     16  O   UNL     1       6.064   3.477  13.169  0.00  0.00    +0.000 OA
BRANCH  15  17
ATOM     17  O   UNL     1       7.537   5.210  13.230  0.00  0.00    +0.000 OA
ATOM     18  H   UNL     1       8.105   4.654  12.659  0.00  0.00    +0.000 HD
ENDBRANCH  15  17
ENDBRANCH   6  15
BRANCH   2  19
ATOM     19  O   UNL     1       5.359   3.723  18.838  0.00  0.00    +0.000 OA
BRANCH  19  20
ATOM     20  C   UNL     1       4.628   3.494  20.040  0.00  0.00    +0.000 C 
BRANCH  20  21
ATOM     21  C   UNL     1       3.192   3.167  19.732  0.00  0.00    +0.000 A 
ATOM     22  C   UNL     1       2.152   4.015  20.163  0.00  0.00    +0.000 A 
ATOM     23 CL   UNL     1       2.445   5.422  21.130  0.00  0.00    +0.000 Cl
ATOM     24  C   UNL     1       0.820   3.766  19.812  0.00  0.00    +0.000 A 
ATOM     25  C   UNL     1       0.497   2.655  19.041  0.00  0.00    +0.000 A 
ATOM     26  C   UNL     1       1.506   1.790  18.626  0.00  0.00    +0.000 A 
ATOM     27  C   UNL     1       2.841   2.042  18.970  0.00  0.00    +0.000 A 
ATOM     28 CL   UNL     1       4.024   0.919  18.389  0.00  0.00    +0.000 Cl
ENDBRANCH  20  21
ENDBRANCH  19  20
ENDBRANCH   2  19
TORSDOF 8
ENDMDL
MODEL 7
REMARK VINA RESULT:      -7.4      2.319      4.078
REMARK  Name = 
REMARK  8 active torsions:
REMARK  status: ('A' for Active; 'I' for Inactive)
REMARK    1  A    between atoms: N_1  and  C_2
REMARK    2  A    between atoms: C_2  and  C_3
REMARK    3  A    between atoms: C_3  and  O_5
REMARK    4  A    between atoms: C_6  and  O_7
REMARK    5  A    between atoms: O_7  and  C_8
REMARK    6  A    between atoms: C_8  and  C_9
REMARK    7  A    between atoms: C_20  and  C_22
REMARK    8  A    between atoms: C_22  and  O_24
REMARK                            x       y       z     vdW  Elec       q    Type
REMARK                         _______ _______ _______ _____ _____    ______ ____
ROOT
ATOM      1  C   UNL     1       6.912   5.451  16.769  0.00  0.00    +0.000 C 
ATOM      2  C   UNL     1       5.506   6.044  17.148  0.00  0.00    +0.000 C 
ATOM      3  C   UNL     1       4.877   6.289  15.751  0.00  0.00    +0.000 C 
ATOM      4  C   UNL     1       5.301   5.074  14.964  0.00  0.00    +0.000 C 
ATOM      5  C   UNL     1       6.580   4.554  15.589  0.00  0.00    +0.000 C 
ATOM      6  C   UNL     1       6.553   4.974  14.133  0.00  0.00    +0.000 C 
ATOM      7  F   UNL     1       7.184   6.184  13.831  0.00  0.00    +0.000 F 
ENDROOT
BRANCH   1   8
ATOM      8  N   UNL     1       7.851   6.545  16.388  0.00  0.00    +0.000 NA
ATOM      9  H   UNL     1       7.786   7.301  17.075  0.00  0.00    +0.000 HD
ATOM     10  H   UNL     1       7.501   6.967  15.521  0.00  0.00    +0.000 HD
ENDBRANCH   1   8
BRANCH   1  11
ATOM     11  C   UNL     1       7.613   4.727  17.935  0.00  0.00    +0.000 C 
ATOM     12  O   UNL     1       8.571   3.976  17.843  0.00  0.00    +0.000 OA
BRANCH  11  13
ATOM     13  O   UNL     1       7.073   5.070  19.139  0.00  0.00    +0.000 OA
ATOM     14  H   UNL     1       6.136   5.338  19.010  0.00  0.00    +0.000 HD
ENDBRANCH  11  13
ENDBRANCH   1  11
BRANCH   6  15
ATOM     15  C   UNL     1       6.667   3.929  13.067  0.00  0.00    +0.000 C 
ATOM     16  O   UNL     1       7.317   4.084  12.043  0.00  0.00    +0.000 OA
BRANCH  15  17
ATOM     17  O   UNL     1       5.959   2.809  13.349  0.00  0.00    +0.000 OA
ATOM     18  H   UNL     1       6.257   2.412  14.194  0.00  0.00    +0.000 HD
ENDBRANCH  15  17
ENDBRANCH   6  15
BRANCH   2  19
ATOM     19  O   UNL     1       4.617   5.140  17.830  0.00  0.00    +0.000 OA
BRANCH  19  20
ATOM     20  C   UNL     1       3.240   5.507  17.794  0.00  0.00    +0.000 C 
BRANCH  20  21
ATOM     21  C   UNL     1       2.434   4.628  18.712  0.00  0.00    +0.000 A 
ATOM     22  C   UNL     1       2.242   3.263  18.418  0.00  0.00    +0.000 A 
ATOM     23 CL   UNL     1       2.841   2.536  16.964  0.00  0.00    +0.000 Cl
ATOM     24  C   UNL     1       1.566   2.418  19.305  0.00  0.00    +0.000 A 
ATOM     25  C   UNL     1       1.050   2.922  20.493  0.00  0.00    +0.000 A 
ATOM     26  C   UNL     1       1.206   4.272  20.792  0.00  0.00    +0.000 A 
ATOM     27  C   UNL     1       1.890   5.119  19.909  0.00  0.00    +0.000 A 
ATOM     28 CL   UNL     1       2.048   6.777  20.379  0.00  0.00    +0.000 Cl
ENDBRANCH  20  21
ENDBRANCH  19  20
ENDBRANCH   2  19
TORSDOF 8
ENDMDL
MODEL 8
REMARK VINA RESULT:      -7.4      0.890      1.097
REMARK  Name = 
REMARK  8 active torsions:
REMARK  status: ('A' for Active; 'I' for Inactive)
REMARK    1  A    between atoms: N_1  and  C_2
REMARK    2  A    between atoms: C_2  and  C_3
REMARK    3  A    between atoms: C_3  and  O_5
REMARK    4  A    between atoms: C_6  and  O_7
REMARK    5  A    between atoms: O_7  and  C_8
REMARK    6  A    between atoms: C_8  and  C_9
REMARK    7  A    between atoms: C_20  and  C_22
REMARK    8  A    between atoms: C_22  and  O_24
REMARK                            x       y       z     vdW  Elec       q    Type
REMARK                         _______ _______ _______ _____ _____    ______ ____
ROOT
ATOM      1  C   UNL     1       7.002   4.662  16.998  0.00  0.00    +0.000 C 
ATOM      2  C   UNL     1       5.872   4.147  17.962  0.00  0.00    +0.000 C 
ATOM      3  C   UNL     1       6.029   5.102  19.174  0.00  0.00    +0.000 C 
ATOM      4  C   UNL     1       6.298   6.439  18.529  0.00  0.00    +0.000 C 
ATOM      5  C   UNL     1       6.919   6.169  17.172  0.00  0.00    +0.000 C 
ATOM      6  C   UNL     1       7.664   6.986  18.208  0.00  0.00    +0.000 C 
ATOM      7  F   UNL     1       8.739   6.351  18.836  0.00  0.00    +0.000 F 
ENDROOT
BRANCH   1   8
ATOM      8  N   UNL     1       8.329   4.128  17.420  0.00  0.00    +0.000 NA
ATOM      9  H   UNL     1       9.060   4.796  17.161  0.00  0.00    +0.000 HD
ATOM     10  H   UNL     1       8.531   3.305  16.841  0.00  0.00    +0.000 HD
ENDBRANCH   1   8
BRANCH   1  11
ATOM     11  C   UNL     1       6.839   4.186  15.541  0.00  0.00    +0.000 C 
ATOM     12  O   UNL     1       7.268   4.750  14.547  0.00  0.00    +0.000 OA
BRANCH  11  13
ATOM     13  O   UNL     1       6.190   2.989  15.472  0.00  0.00    +0.000 OA
ATOM     14  H   UNL     1       5.245   3.143  15.250  0.00  0.00    +0.000 HD
ENDBRANCH  11  13
ENDBRANCH   1  11
BRANCH   6  15
ATOM     15  C   UNL     1       7.852   8.455  17.986  0.00  0.00    +0.000 C 
ATOM     16  O   UNL     1       8.672   9.125  18.596  0.00  0.00    +0.000 OA
BRANCH  15  17
ATOM     17  O   UNL     1       7.007   8.960  17.056  0.00  0.00    +0.000 OA
ATOM     18  H   UNL     1       7.493   9.502  16.400  0.00  0.00    +0.000 HD
ENDBRANCH  15  17
ENDBRANCH   6  15
BRANCH   2  19
ATOM     19  O   UNL     1       4.525   4.328  17.487  0.00  0.00    +0.000 OA
BRANCH  19  20
ATOM     20  C   UNL     1       3.674   3.195  17.640  0.00  0.00    +0.000 C 
BRANCH  20  21
ATOM     21  C   UNL     1       2.884   3.295  18.917  0.00  0.00    +0.000 A 
ATOM     22  C   UNL     1       1.673   4.015  18.961  0.00  0.00    +0.000 A 
ATOM     23 CL   UNL     1       1.064   4.887  17.593  0.00  0.00    +0.000 Cl
ATOM     24  C   UNL     1       0.889   4.046  20.120  0.00  0.00    +0.000 A 
ATOM     25  C   UNL     1       1.307   3.376  21.264  0.00  0.00    +0.000 A 
ATOM     26  C   UNL     1       2.512   2.679  21.250  0.00  0.00    +0.000 A 
ATOM     27  C   UNL     1       3.295   2.640  20.089  0.00  0.00    +0.000 A 
ATOM     28 CL   UNL     1       4.766   1.732  20.167  0.00  0.00    +0.000 Cl
ENDBRANCH  20  21
ENDBRANCH  19  20
ENDBRANCH   2  19
TORSDOF 8
ENDMDL
MODEL 9
REMARK VINA RESULT:      -7.3      2.256      3.729
REMARK  Name = 
REMARK  8 active torsions:
REMARK  status: ('A' for Active; 'I' for Inactive)
REMARK    1  A    between atoms: N_1  and  C_2
REMARK    2  A    between atoms: C_2  and  C_3
REMARK    3  A    between atoms: C_3  and  O_5
REMARK    4  A    between atoms: C_6  and  O_7
REMARK    5  A    between atoms: O_7  and  C_8
REMARK    6  A    between atoms: C_8  and  C_9
REMARK    7  A    between atoms: C_20  and  C_22
REMARK    8  A    between atoms: C_22  and  O_24
REMARK                            x       y       z     vdW  Elec       q    Type
REMARK                         _______ _______ _______ _____ _____    ______ ____
ROOT
ATOM      1  C   UNL     1       6.927   5.720  17.010  0.00  0.00    +0.000 C 
ATOM      2  C   UNL     1       5.552   6.378  17.397  0.00  0.00    +0.000 C 
ATOM      3  C   UNL     1       4.879   6.545  16.009  0.00  0.00    +0.000 C 
ATOM      4  C   UNL     1       5.240   5.268  15.294  0.00  0.00    +0.000 C 
ATOM      5  C   UNL     1       6.527   4.755  15.908  0.00  0.00    +0.000 C 
ATOM      6  C   UNL     1       6.457   5.074  14.428  0.00  0.00    +0.000 C 
ATOM      7  F   UNL     1       7.108   6.242  14.020  0.00  0.00    +0.000 F 
ENDROOT
BRANCH   1   8
ATOM      8  N   UNL     1       7.880   6.756  16.521  0.00  0.00    +0.000 NA
ATOM      9  H   UNL     1       7.357   7.506  16.059  0.00  0.00    +0.000 HD
ATOM     10  H   UNL     1       8.432   6.338  15.764  0.00  0.00    +0.000 HD
ENDBRANCH   1   8
BRANCH   1  11
ATOM     11  C   UNL     1       7.652   5.057  18.198  0.00  0.00    +0.000 C 
ATOM     12  O   UNL     1       7.571   5.393  19.368  0.00  0.00    +0.000 OA
BRANCH  11  13
ATOM     13  O   UNL     1       8.378   3.973  17.803  0.00  0.00    +0.000 OA
ATOM     14  H   UNL     1       8.798   4.162  16.934  0.00  0.00    +0.000 HD
ENDBRANCH  11  13
ENDBRANCH   1  11
BRANCH   6  15
ATOM     15  C   UNL     1       6.503   3.956  13.434  0.00  0.00    +0.000 C 
ATOM     16  O   UNL     1       7.047   4.052  12.343  0.00  0.00    +0.000 OA
BRANCH  15  17
ATOM     17  O   UNL     1       5.861   2.843  13.862  0.00  0.00    +0.000 OA
ATOM     18  H   UNL     1       5.563   2.948  14.789  0.00  0.00    +0.000 HD
ENDBRANCH  15  17
ENDBRANCH   6  15
BRANCH   2  19
ATOM     19  O   UNL     1       4.666   5.549  18.170  0.00  0.00    +0.000 OA
BRANCH  19  20
ATOM     20  C   UNL     1       3.279   5.843  18.019  0.00  0.00    +0.000 C 
BRANCH  20  21
ATOM     21  C   UNL     1       2.439   4.813  18.723  0.00  0.00    +0.000 A 
ATOM     22  C   UNL     1       1.756   5.131  19.914  0.00  0.00    +0.000 A 
ATOM     23 CL   UNL     1       1.901   6.678  20.680  0.00  0.00    +0.000 Cl
ATOM     24  C   UNL     1       0.907   4.206  20.533  0.00  0.00    +0.000 A 
ATOM     25  C   UNL     1       0.737   2.939  19.986  0.00  0.00    +0.000 A 
ATOM     26  C   UNL     1       1.422   2.595  18.824  0.00  0.00    +0.000 A 
ATOM     27  C   UNL     1       2.267   3.522  18.198  0.00  0.00    +0.000 A 
ATOM     28 CL   UNL     1       3.058   3.006  16.748  0.00  0.00    +0.000 Cl
ENDBRANCH  20  21
ENDBRANCH  19  20
ENDBRANCH   2  19
TORSDOF 8
ENDMDL
