MODEL 1
REMARK VINA RESULT:      -8.1      0.000      0.000
REMARK  Name = 
REMARK  6 active torsions:
REMARK  status: ('A' for Active; 'I' for Inactive)
REMARK    1  A    between atoms: C_1  and  C_2
REMARK    2  A    between atoms: C_7  and  C_8
REMARK    3  A    between atoms: C_8  and  C_9
REMARK    4  A    between atoms: C_14  and  C_15
REMARK    5  A    between atoms: C_15  and  O_16
REMARK    6  A    between atoms: O_16  and  C_17
REMARK                            x       y       z     vdW  Elec       q    Type
REMARK                         _______ _______ _______ _____ _____    ______ ____
ROOT
ATOM      1  C   UNL     1       3.977   3.647  18.116  0.00  0.00    +0.000 A 
ATOM      2  N   UNL     1       3.760   2.451  18.654  0.00  0.00    +0.000 NA
ATOM      3  N   UNL     1       2.842   2.588  19.694  0.00  0.00    +0.000 NA
ATOM      4  C   UNL     1       2.535   3.851  19.724  0.00  0.00    +0.000 A 
ATOM      5  S   UNL     1       1.624   4.900  20.719  0.00  0.00    +0.000 S 
ATOM      6  C   UNL     1       2.293   6.226  19.729  0.00  0.00    +0.000 A 
ATOM      7  N   UNL     1       3.093   5.914  18.742  0.00  0.00    +0.000 NA
ATOM      8  N   UNL     1       3.197   4.557  18.778  0.00  0.00    +0.000 N 
ENDROOT
BRANCH   1   9
ATOM      9  C   UNL     1       5.007   4.025  17.116  0.00  0.00    +0.000 C 
BRANCH   9  16
ATOM     10  C   UNL     1       5.137   6.706  15.678  0.00  0.00    +0.000 C 
ATOM     11  C   UNL     1       6.029   6.369  16.842  0.00  0.00    +0.000 A 
ATOM     12  C   UNL     1       7.023   7.295  17.206  0.00  0.00    +0.000 A 
ATOM     13  C   UNL     1       7.891   7.038  18.265  0.00  0.00    +0.000 A 
ATOM     14  C   UNL     1       7.775   5.853  18.983  0.00  0.00    +0.000 A 
ATOM     15  C   UNL     1       6.808   4.913  18.623  0.00  0.00    +0.000 A 
ATOM     16  C   UNL     1       5.943   5.141  17.535  0.00  0.00    +0.000 A 
ENDBRANCH   9  16
ENDBRANCH   1   9
BRANCH   6  17
ATOM     17  C   UNL     1       1.943   7.643  20.113  0.00  0.00    +0.000 C 
BRANCH  17  18
ATOM     18  O   UNL     1       1.066   7.640  21.231  0.00  0.00    +0.000 OA
BRANCH  18  19
ATOM     19  C   UNL     1       0.506   8.843  21.567  0.00  0.00    +0.000 A 
ATOM     20  C   UNL     1      -0.210   9.122  22.739  0.00  0.00    +0.000 A 
ATOM     21  C   UNL     1      -0.722  10.402  22.959  0.00  0.00    +0.000 A 
ATOM     22  C   UNL     1      -0.528  11.398  22.009  0.00  0.00    +0.000 A 
ATOM     23  F   UNL     1      -1.023  12.623  22.226  0.00  0.00    +0.000 F 
ATOM     24  C   UNL     1       0.174  11.137  20.840  0.00  0.00    +0.000 A 
ATOM     25  C   UNL     1       0.690   9.859  20.620  0.00  0.00    +0.000 A 
ENDBRANCH  18  19
ENDBRANCH  17  18
ENDBRANCH   6  17
TORSDOF 5
ENDMDL
MODEL 2
REMARK VINA RESULT:      -8.1      3.109      6.812
REMARK  Name = 
REMARK  6 active torsions:
REMARK  status: ('A' for Active; 'I' for Inactive)
REMARK    1  A    between atoms: C_1  and  C_2
REMARK    2  A    between atoms: C_7  and  C_8
REMARK    3  A    between atoms: C_8  and  C_9
REMARK    4  A    between atoms: C_14  and  C_15
REMARK    5  A    between atoms: C_15  and  O_16
REMARK    6  A    between atoms: O_16  and  C_17
REMARK                            x       y       z     vdW  Elec       q    Type
REMARK                         _______ _______ _______ _____ _____    ______ ____
ROOT
ATOM      1  C   UNL     1       1.977   5.265  20.196  0.00  0.00    +0.000 A 
ATOM      2  N   UNL     1       0.907   4.526  20.471  0.00  0.00    +0.000 NA
ATOM      3  N   UNL     1       0.861   3.456  19.579  0.00  0.00    +0.000 NA
ATOM      4  C   UNL     1       1.910   3.588  18.821  0.00  0.00    +0.000 A 
ATOM      5  S   UNL     1       2.557   2.839  17.428  0.00  0.00    +0.000 S 
ATOM      6  C   UNL     1       3.763   4.155  17.428  0.00  0.00    +0.000 A 
ATOM      7  N   UNL     1       3.703   5.046  18.384  0.00  0.00    +0.000 NA
ATOM      8  N   UNL     1       2.638   4.680  19.150  0.00  0.00    +0.000 N 
ENDROOT
BRANCH   1   9
ATOM      9  C   UNL     1       2.333   6.596  20.749  0.00  0.00    +0.000 C 
BRANCH   9  16
ATOM     10  C   UNL     1       0.560   8.785  21.905  0.00  0.00    +0.000 C 
ATOM     11  C   UNL     1       1.007   8.780  20.469  0.00  0.00    +0.000 A 
ATOM     12  C   UNL     1       0.499   9.775  19.613  0.00  0.00    +0.000 A 
ATOM     13  C   UNL     1       0.860   9.819  18.268  0.00  0.00    +0.000 A 
ATOM     14  C   UNL     1       1.742   8.874  17.758  0.00  0.00    +0.000 A 
ATOM     15  C   UNL     1       2.240   7.867  18.586  0.00  0.00    +0.000 A 
ATOM     16  C   UNL     1       1.860   7.787  19.940  0.00  0.00    +0.000 A 
ENDBRANCH   9  16
ENDBRANCH   1   9
BRANCH   6  17
ATOM     17  C   UNL     1       4.759   4.202  16.295  0.00  0.00    +0.000 C 
BRANCH  17  18
ATOM     18  O   UNL     1       6.061   3.908  16.780  0.00  0.00    +0.000 OA
BRANCH  18  19
ATOM     19  C   UNL     1       6.736   4.940  17.375  0.00  0.00    +0.000 A 
ATOM     20  C   UNL     1       7.383   4.896  18.617  0.00  0.00    +0.000 A 
ATOM     21  C   UNL     1       8.044   6.026  19.103  0.00  0.00    +0.000 A 
ATOM     22  C   UNL     1       8.052   7.198  18.355  0.00  0.00    +0.000 A 
ATOM     23  F   UNL     1       8.687   8.278  18.827  0.00  0.00    +0.000 F 
ATOM     24  C   UNL     1       7.411   7.260  17.125  0.00  0.00    +0.000 A 
ATOM     25  C   UNL     1       6.752   6.130  16.637  0.00  0.00    +0.000 A 
ENDBRANCH  18  19
ENDBRANCH  17  18
ENDBRANCH   6  17
TORSDOF 5
ENDMDL
MODEL 3
REMARK VINA RESULT:      -8.0      3.091      6.978
REMARK  Name = 
REMARK  6 active torsions:
REMARK  status: ('A' for Active; 'I' for Inactive)
REMARK    1  A    between atoms: C_1  and  C_2
REMARK    2  A    between atoms: C_7  and  C_8
REMARK    3  A    between atoms: C_8  and  C_9
REMARK    4  A    between atoms: C_14  and  C_15
REMARK    5  A    between atoms: C_15  and  O_16
REMARK    6  A    between atoms: O_16  and  C_17
REMARK                            x       y       z     vdW  Elec       q    Type
REMARK                         _______ _______ _______ _____ _____    ______ ____
ROOT
ATOM      1  C   UNL     1       2.122   5.712  20.079  0.00  0.00    +0.000 A 
ATOM      2  N   UNL     1       1.067   5.012  20.484  0.00  0.00    +0.000 NA
ATOM      3  N   UNL     1       0.986   3.844  19.729  0.00  0.00    +0.000 NA
ATOM      4  C   UNL     1       2.002   3.884  18.916  0.00  0.00    +0.000 A 
ATOM      5  S   UNL     1       2.592   2.973  17.596  0.00  0.00    +0.000 S 
ATOM      6  C   UNL     1       3.793   4.277  17.389  0.00  0.00    +0.000 A 
ATOM      7  N   UNL     1       3.771   5.275  18.234  0.00  0.00    +0.000 NA
ATOM      8  N   UNL     1       2.740   5.006  19.083  0.00  0.00    +0.000 N 
ENDROOT
BRANCH   1   9
ATOM      9  C   UNL     1       2.498   7.098  20.455  0.00  0.00    +0.000 C 
BRANCH   9  16
ATOM     10  C   UNL     1       2.286   8.528  17.775  0.00  0.00    +0.000 C 
ATOM     11  C   UNL     1       1.382   8.846  18.935  0.00  0.00    +0.000 A 
ATOM     12  C   UNL     1       0.477   9.914  18.797  0.00  0.00    +0.000 A 
ATOM     13  C   UNL     1      -0.377  10.271  19.839  0.00  0.00    +0.000 A 
ATOM     14  C   UNL     1      -0.346   9.561  21.033  0.00  0.00    +0.000 A 
ATOM     15  C   UNL     1       0.560   8.512  21.195  0.00  0.00    +0.000 A 
ATOM     16  C   UNL     1       1.454   8.158  20.166  0.00  0.00    +0.000 A 
ENDBRANCH   9  16
ENDBRANCH   1   9
BRANCH   6  17
ATOM     17  C   UNL     1       4.741   4.188  16.218  0.00  0.00    +0.000 C 
BRANCH  17  18
ATOM     18  O   UNL     1       6.069   3.989  16.681  0.00  0.00    +0.000 OA
BRANCH  18  19
ATOM     19  C   UNL     1       6.714   5.093  17.170  0.00  0.00    +0.000 A 
ATOM     20  C   UNL     1       6.762   6.356  16.566  0.00  0.00    +0.000 A 
ATOM     21  C   UNL     1       7.454   7.401  17.183  0.00  0.00    +0.000 A 
ATOM     22  C   UNL     1       8.101   7.184  18.393  0.00  0.00    +0.000 A 
ATOM     23  F   UNL     1       8.763   8.190  18.978  0.00  0.00    +0.000 F 
ATOM     24  C   UNL     1       8.068   5.936  19.002  0.00  0.00    +0.000 A 
ATOM     25  C   UNL     1       7.375   4.891  18.389  0.00  0.00    +0.000 A 
ENDBRANCH  18  19
ENDBRANCH  17  18
ENDBRANCH   6  17
TORSDOF 5
ENDMDL
MODEL 4
REMARK VINA RESULT:      -7.9      0.300      1.003
REMARK  Name = 
REMARK  6 active torsions:
REMARK  status: ('A' for Active; 'I' for Inactive)
REMARK    1  A    between atoms: C_1  and  C_2
REMARK    2  A    between atoms: C_7  and  C_8
REMARK    3  A    between atoms: C_8  and  C_9
REMARK    4  A    between atoms: C_14  and  C_15
REMARK    5  A    between atoms: C_15  and  O_16
REMARK    6  A    between atoms: O_16  and  C_17
REMARK                            x       y       z     vdW  Elec       q    Type
REMARK                         _______ _______ _______ _____ _____    ______ ____
ROOT
ATOM      1  C   UNL     1       3.833   3.724  17.824  0.00  0.00    +0.000 A 
ATOM      2  N   UNL     1       3.538   2.502  18.257  0.00  0.00    +0.000 NA
ATOM      3  N   UNL     1       2.617   2.607  19.298  0.00  0.00    +0.000 NA
ATOM      4  C   UNL     1       2.387   3.880  19.434  0.00  0.00    +0.000 A 
ATOM      5  S   UNL     1       1.531   4.895  20.509  0.00  0.00    +0.000 S 
ATOM      6  C   UNL     1       2.291   6.256  19.640  0.00  0.00    +0.000 A 
ATOM      7  N   UNL     1       3.082   5.980  18.635  0.00  0.00    +0.000 NA
ATOM      8  N   UNL     1       3.103   4.621  18.556  0.00  0.00    +0.000 N 
ENDROOT
BRANCH   1   9
ATOM      9  C   UNL     1       4.896   4.121  16.867  0.00  0.00    +0.000 C 
BRANCH   9  16
ATOM     10  C   UNL     1       5.051   6.933  15.710  0.00  0.00    +0.000 C 
ATOM     11  C   UNL     1       5.966   6.458  16.807  0.00  0.00    +0.000 A 
ATOM     12  C   UNL     1       6.990   7.321  17.235  0.00  0.00    +0.000 A 
ATOM     13  C   UNL     1       7.881   6.937  18.236  0.00  0.00    +0.000 A 
ATOM     14  C   UNL     1       7.756   5.687  18.830  0.00  0.00    +0.000 A 
ATOM     15  C   UNL     1       6.759   4.810  18.404  0.00  0.00    +0.000 A 
ATOM     16  C   UNL     1       5.870   5.167  17.371  0.00  0.00    +0.000 A 
ENDBRANCH   9  16
ENDBRANCH   1   9
BRANCH   6  17
ATOM     17  C   UNL     1       2.024   7.654  20.141  0.00  0.00    +0.000 C 
BRANCH  17  18
ATOM     18  O   UNL     1       0.908   7.650  21.020  0.00  0.00    +0.000 OA
BRANCH  18  19
ATOM     19  C   UNL     1       0.415   8.875  21.382  0.00  0.00    +0.000 A 
ATOM     20  C   UNL     1       0.449  10.041  20.607  0.00  0.00    +0.000 A 
ATOM     21  C   UNL     1      -0.102  11.226  21.099  0.00  0.00    +0.000 A 
ATOM     22  C   UNL     1      -0.678  11.248  22.364  0.00  0.00    +0.000 A 
ATOM     23  F   UNL     1      -1.203  12.388  22.830  0.00  0.00    +0.000 F 
ATOM     24  C   UNL     1      -0.714  10.103  23.147  0.00  0.00    +0.000 A 
ATOM     25  C   UNL     1      -0.167   8.917  22.656  0.00  0.00    +0.000 A 
ENDBRANCH  18  19
ENDBRANCH  17  18
ENDBRANCH   6  17
TORSDOF 5
ENDMDL
MODEL 5
REMARK VINA RESULT:      -7.9      1.472      2.024
REMARK  Name = 
REMARK  6 active torsions:
REMARK  status: ('A' for Active; 'I' for Inactive)
REMARK    1  A    between atoms: C_1  and  C_2
REMARK    2  A    between atoms: C_7  and  C_8
REMARK    3  A    between atoms: C_8  and  C_9
REMARK    4  A    between atoms: C_14  and  C_15
REMARK    5  A    between atoms: C_15  and  O_16
REMARK    6  A    between atoms: O_16  and  C_17
REMARK                            x       y       z     vdW  Elec       q    Type
REMARK                         _______ _______ _______ _____ _____    ______ ____
ROOT
ATOM      1  C   UNL     1       3.869   3.271  17.589  0.00  0.00    +0.000 A 
ATOM      2  N   UNL     1       3.905   1.964  17.829  0.00  0.00    +0.000 NA
ATOM      3  N   UNL     1       3.134   1.695  18.958  0.00  0.00    +0.000 NA
ATOM      4  C   UNL     1       2.656   2.844  19.336  0.00  0.00    +0.000 A 
ATOM      5  S   UNL     1       1.754   3.459  20.650  0.00  0.00    +0.000 S 
ATOM      6  C   UNL     1       2.078   5.073  19.961  0.00  0.00    +0.000 A 
ATOM      7  N   UNL     1       2.766   5.143  18.851  0.00  0.00    +0.000 NA
ATOM      8  N   UNL     1       3.069   3.853  18.534  0.00  0.00    +0.000 N 
ENDROOT
BRANCH   1   9
ATOM      9  C   UNL     1       4.682   4.043  16.616  0.00  0.00    +0.000 C 
BRANCH   9  16
ATOM     10  C   UNL     1       4.829   6.974  15.802  0.00  0.00    +0.000 C 
ATOM     11  C   UNL     1       5.763   6.368  16.814  0.00  0.00    +0.000 A 
ATOM     12  C   UNL     1       6.801   7.169  17.322  0.00  0.00    +0.000 A 
ATOM     13  C   UNL     1       7.709   6.665  18.250  0.00  0.00    +0.000 A 
ATOM     14  C   UNL     1       7.589   5.353  18.693  0.00  0.00    +0.000 A 
ATOM     15  C   UNL     1       6.579   4.537  18.185  0.00  0.00    +0.000 A 
ATOM     16  C   UNL     1       5.671   5.019  17.221  0.00  0.00    +0.000 A 
ENDBRANCH   9  16
ENDBRANCH   1   9
BRANCH   6  17
ATOM     17  C   UNL     1       1.586   6.280  20.723  0.00  0.00    +0.000 C 
BRANCH  17  18
ATOM     18  O   UNL     1       2.315   7.434  20.327  0.00  0.00    +0.000 OA
BRANCH  18  19
ATOM     19  C   UNL     1       1.596   8.430  19.723  0.00  0.00    +0.000 A 
ATOM     20  C   UNL     1       1.701   8.829  18.385  0.00  0.00    +0.000 A 
ATOM     21  C   UNL     1       0.895   9.860  17.896  0.00  0.00    +0.000 A 
ATOM     22  C   UNL     1      -0.005  10.496  18.743  0.00  0.00    +0.000 A 
ATOM     23  F   UNL     1      -0.773  11.485  18.267  0.00  0.00    +0.000 F 
ATOM     24  C   UNL     1      -0.117  10.117  20.073  0.00  0.00    +0.000 A 
ATOM     25  C   UNL     1       0.685   9.084  20.563  0.00  0.00    +0.000 A 
ENDBRANCH  18  19
ENDBRANCH  17  18
ENDBRANCH   6  17
TORSDOF 5
ENDMDL
MODEL 6
REMARK VINA RESULT:      -7.9      1.295      1.543
REMARK  Name = 
REMARK  6 active torsions:
REMARK  status: ('A' for Active; 'I' for Inactive)
REMARK    1  A    between atoms: C_1  and  C_2
REMARK    2  A    between atoms: C_7  and  C_8
REMARK    3  A    between atoms: C_8  and  C_9
REMARK    4  A    between atoms: C_14  and  C_15
REMARK    5  A    between atoms: C_15  and  O_16
REMARK    6  A    between atoms: O_16  and  C_17
REMARK                            x       y       z     vdW  Elec       q    Type
REMARK                         _______ _______ _______ _____ _____    ______ ____
ROOT
ATOM      1  C   UNL     1       3.794   3.359  17.623  0.00  0.00    +0.000 A 
ATOM      2  N   UNL     1       3.777   2.051  17.862  0.00  0.00    +0.000 NA
ATOM      3  N   UNL     1       3.010   1.814  19.001  0.00  0.00    +0.000 NA
ATOM      4  C   UNL     1       2.588   2.983  19.386  0.00  0.00    +0.000 A 
ATOM      5  S   UNL     1       1.732   3.635  20.714  0.00  0.00    +0.000 S 
ATOM      6  C   UNL     1       2.116   5.234  20.022  0.00  0.00    +0.000 A 
ATOM      7  N   UNL     1       2.791   5.275  18.902  0.00  0.00    +0.000 NA
ATOM      8  N   UNL     1       3.033   3.974  18.580  0.00  0.00    +0.000 N 
ENDROOT
BRANCH   1   9
ATOM      9  C   UNL     1       4.626   4.097  16.640  0.00  0.00    +0.000 C 
BRANCH   9  16
ATOM     10  C   UNL     1       4.843   7.006  15.769  0.00  0.00    +0.000 C 
ATOM     11  C   UNL     1       5.758   6.400  16.798  0.00  0.00    +0.000 A 
ATOM     12  C   UNL     1       6.811   7.188  17.296  0.00  0.00    +0.000 A 
ATOM     13  C   UNL     1       7.703   6.682  18.239  0.00  0.00    +0.000 A 
ATOM     14  C   UNL     1       7.552   5.382  18.707  0.00  0.00    +0.000 A 
ATOM     15  C   UNL     1       6.525   4.579  18.210  0.00  0.00    +0.000 A 
ATOM     16  C   UNL     1       5.634   5.061  17.231  0.00  0.00    +0.000 A 
ENDBRANCH   9  16
ENDBRANCH   1   9
BRANCH   6  17
ATOM     17  C   UNL     1       1.687   6.461  20.790  0.00  0.00    +0.000 C 
BRANCH  17  18
ATOM     18  O   UNL     1       2.207   7.628  20.170  0.00  0.00    +0.000 OA
BRANCH  18  19
ATOM     19  C   UNL     1       1.315   8.640  19.935  0.00  0.00    +0.000 A 
ATOM     20  C   UNL     1       0.390   9.155  20.852  0.00  0.00    +0.000 A 
ATOM     21  C   UNL     1      -0.459  10.200  20.480  0.00  0.00    +0.000 A 
ATOM     22  C   UNL     1      -0.390  10.723  19.194  0.00  0.00    +0.000 A 
ATOM     23  F   UNL     1      -1.207  11.723  18.843  0.00  0.00    +0.000 F 
ATOM     24  C   UNL     1       0.517  10.219  18.271  0.00  0.00    +0.000 A 
ATOM     25  C   UNL     1       1.368   9.178  18.643  0.00  0.00    +0.000 A 
ENDBRANCH  18  19
ENDBRANCH  17  18
ENDBRANCH   6  17
TORSDOF 5
ENDMDL
MODEL 7
REMARK VINA RESULT:      -7.8      3.170      4.757
REMARK  Name = 
REMARK  6 active torsions:
REMARK  status: ('A' for Active; 'I' for Inactive)
REMARK    1  A    between atoms: C_1  and  C_2
REMARK    2  A    between atoms: C_7  and  C_8
REMARK    3  A    between atoms: C_8  and  C_9
REMARK    4  A    between atoms: C_14  and  C_15
REMARK    5  A    between atoms: C_15  and  O_16
REMARK    6  A    between atoms: O_16  and  C_17
REMARK                            x       y       z     vdW  Elec       q    Type
REMARK                         _______ _______ _______ _____ _____    ______ ____
ROOT
ATOM      1  C   UNL     1       2.641   7.455  18.980  0.00  0.00    +0.000 A 
ATOM      2  N   UNL     1       2.601   7.863  17.716  0.00  0.00    +0.000 NA
ATOM      3  N   UNL     1       1.713   8.933  17.619  0.00  0.00    +0.000 NA
ATOM      4  C   UNL     1       1.274   9.132  18.827  0.00  0.00    +0.000 A 
ATOM      5  S   UNL     1       0.099  10.110  19.592  0.00  0.00    +0.000 S 
ATOM      6  C   UNL     1       0.451   9.167  21.067  0.00  0.00    +0.000 A 
ATOM      7  N   UNL     1       1.368   8.237  21.000  0.00  0.00    +0.000 NA
ATOM      8  N   UNL     1       1.807   8.257  19.711  0.00  0.00    +0.000 N 
ENDROOT
BRANCH   1   9
ATOM      9  C   UNL     1       3.292   6.237  19.526  0.00  0.00    +0.000 C 
BRANCH   9  16
ATOM     10  C   UNL     1       3.742   4.368  17.165  0.00  0.00    +0.000 C 
ATOM     11  C   UNL     1       2.706   4.100  18.223  0.00  0.00    +0.000 A 
ATOM     12  C   UNL     1       1.853   2.995  18.050  0.00  0.00    +0.000 A 
ATOM     13  C   UNL     1       0.862   2.700  18.984  0.00  0.00    +0.000 A 
ATOM     14  C   UNL     1       0.713   3.500  20.111  0.00  0.00    +0.000 A 
ATOM     15  C   UNL     1       1.537   4.612  20.288  0.00  0.00    +0.000 A 
ATOM     16  C   UNL     1       2.522   4.946  19.339  0.00  0.00    +0.000 A 
ENDBRANCH   9  16
ENDBRANCH   1   9
BRANCH   6  17
ATOM     17  C   UNL     1      -0.365   9.457  22.303  0.00  0.00    +0.000 C 
BRANCH  17  18
ATOM     18  O   UNL     1       0.004  10.717  22.845  0.00  0.00    +0.000 OA
BRANCH  18  19
ATOM     19  C   UNL     1      -0.950  11.697  22.811  0.00  0.00    +0.000 A 
ATOM     20  C   UNL     1      -2.251  11.601  23.320  0.00  0.00    +0.000 A 
ATOM     21  C   UNL     1      -3.123  12.688  23.224  0.00  0.00    +0.000 A 
ATOM     22  C   UNL     1      -2.700  13.863  22.614  0.00  0.00    +0.000 A 
ATOM     23  F   UNL     1      -3.542  14.900  22.524  0.00  0.00    +0.000 F 
ATOM     24  C   UNL     1      -1.416  13.972  22.098  0.00  0.00    +0.000 A 
ATOM     25  C   UNL     1      -0.542  12.888  22.196  0.00  0.00    +0.000 A 
ENDBRANCH  18  19
ENDBRANCH  17  18
ENDBRANCH   6  17
TORSDOF 5
ENDMDL
MODEL 8
REMARK VINA RESULT:      -7.7      3.045      4.675
REMARK  Name = 
REMARK  6 active torsions:
REMARK  status: ('A' for Active; 'I' for Inactive)
REMARK    1  A    between atoms: C_1  and  C_2
REMARK    2  A    between atoms: C_7  and  C_8
REMARK    3  A    between atoms: C_8  and  C_9
REMARK    4  A    between atoms: C_14  and  C_15
REMARK    5  A    between atoms: C_15  and  O_16
REMARK    6  A    between atoms: O_16  and  C_17
REMARK                            x       y       z     vdW  Elec       q    Type
REMARK                         _______ _______ _______ _____ _____    ______ ____
ROOT
ATOM      1  C   UNL     1       3.022   6.929  18.900  0.00  0.00    +0.000 A 
ATOM      2  N   UNL     1       3.123   7.292  17.625  0.00  0.00    +0.000 NA
ATOM      3  N   UNL     1       2.352   8.435  17.422  0.00  0.00    +0.000 NA
ATOM      4  C   UNL     1       1.838   8.719  18.583  0.00  0.00    +0.000 A 
ATOM      5  S   UNL     1       0.705   9.829  19.218  0.00  0.00    +0.000 S 
ATOM      6  C   UNL     1       0.845   8.915  20.744  0.00  0.00    +0.000 A 
ATOM      7  N   UNL     1       1.672   7.902  20.782  0.00  0.00    +0.000 NA
ATOM      8  N   UNL     1       2.213   7.832  19.534  0.00  0.00    +0.000 N 
ENDROOT
BRANCH   1   9
ATOM      9  C   UNL     1       3.509   5.678  19.534  0.00  0.00    +0.000 C 
BRANCH   9  16
ATOM     10  C   UNL     1       3.976   3.725  17.245  0.00  0.00    +0.000 C 
ATOM     11  C   UNL     1       2.842   3.570  18.221  0.00  0.00    +0.000 A 
ATOM     12  C   UNL     1       1.912   2.539  17.999  0.00  0.00    +0.000 A 
ATOM     13  C   UNL     1       0.830   2.350  18.857  0.00  0.00    +0.000 A 
ATOM     14  C   UNL     1       0.665   3.184  19.956  0.00  0.00    +0.000 A 
ATOM     15  C   UNL     1       1.565   4.226  20.180  0.00  0.00    +0.000 A 
ATOM     16  C   UNL     1       2.646   4.453  19.306  0.00  0.00    +0.000 A 
ENDBRANCH   9  16
ENDBRANCH   1   9
BRANCH   6  17
ATOM     17  C   UNL     1      -0.036   9.324  21.899  0.00  0.00    +0.000 C 
BRANCH  17  18
ATOM     18  O   UNL     1       0.124  10.711  22.164  0.00  0.00    +0.000 OA
BRANCH  18  19
ATOM     19  C   UNL     1      -1.009  11.477  22.102  0.00  0.00    +0.000 A 
ATOM     20  C   UNL     1      -1.421  12.253  21.011  0.00  0.00    +0.000 A 
ATOM     21  C   UNL     1      -2.610  12.983  21.080  0.00  0.00    +0.000 A 
ATOM     22  C   UNL     1      -3.379  12.945  22.237  0.00  0.00    +0.000 A 
ATOM     23  F   UNL     1      -4.517  13.649  22.297  0.00  0.00    +0.000 F 
ATOM     24  C   UNL     1      -2.981  12.186  23.329  0.00  0.00    +0.000 A 
ATOM     25  C   UNL     1      -1.795  11.453  23.261  0.00  0.00    +0.000 A 
ENDBRANCH  18  19
ENDBRANCH  17  18
ENDBRANCH   6  17
TORSDOF 5
ENDMDL
MODEL 9
REMARK VINA RESULT:      -7.6      3.064      6.762
REMARK  Name = 
REMARK  6 active torsions:
REMARK  status: ('A' for Active; 'I' for Inactive)
REMARK    1  A    between atoms: C_1  and  C_2
REMARK    2  A    between atoms: C_7  and  C_8
REMARK    3  A    between atoms: C_8  and  C_9
REMARK    4  A    between atoms: C_14  and  C_15
REMARK    5  A    between atoms: C_15  and  O_16
REMARK    6  A    between atoms: O_16  and  C_17
REMARK                            x       y       z     vdW  Elec       q    Type
REMARK                         _______ _______ _______ _____ _____    ______ ____
ROOT
ATOM      1  C   UNL     1       2.030   5.457  20.204  0.00  0.00    +0.000 A 
ATOM      2  N   UNL     1       0.879   4.901  20.569  0.00  0.00    +0.000 NA
ATOM      3  N   UNL     1       0.724   3.700  19.879  0.00  0.00    +0.000 NA
ATOM      4  C   UNL     1       1.792   3.578  19.146  0.00  0.00    +0.000 A 
ATOM      5  S   UNL     1       2.370   2.524  17.931  0.00  0.00    +0.000 S 
ATOM      6  C   UNL     1       3.718   3.678  17.740  0.00  0.00    +0.000 A 
ATOM      7  N   UNL     1       3.746   4.727  18.521  0.00  0.00    +0.000 NA
ATOM      8  N   UNL     1       2.636   4.625  19.302  0.00  0.00    +0.000 N 
ENDROOT
BRANCH   1   9
ATOM      9  C   UNL     1       2.528   6.818  20.526  0.00  0.00    +0.000 C 
BRANCH   9  16
ATOM     10  C   UNL     1       2.705   8.023  17.734  0.00  0.00    +0.000 C 
ATOM     11  C   UNL     1       1.758   8.543  18.781  0.00  0.00    +0.000 A 
ATOM     12  C   UNL     1       1.003   9.691  18.480  0.00  0.00    +0.000 A 
ATOM     13  C   UNL     1       0.119  10.233  19.411  0.00  0.00    +0.000 A 
ATOM     14  C   UNL     1      -0.032   9.632  20.654  0.00  0.00    +0.000 A 
ATOM     15  C   UNL     1       0.724   8.504  20.978  0.00  0.00    +0.000 A 
ATOM     16  C   UNL     1       1.647   7.961  20.063  0.00  0.00    +0.000 A 
ENDBRANCH   9  16
ENDBRANCH   1   9
BRANCH   6  17
ATOM     17  C   UNL     1       4.729   3.412  16.652  0.00  0.00    +0.000 C 
BRANCH  17  18
ATOM     18  O   UNL     1       5.194   4.640  16.110  0.00  0.00    +0.000 OA
BRANCH  18  19
ATOM     19  C   UNL     1       6.116   5.324  16.857  0.00  0.00    +0.000 A 
ATOM     20  C   UNL     1       7.055   4.758  17.729  0.00  0.00    +0.000 A 
ATOM     21  C   UNL     1       7.946   5.578  18.425  0.00  0.00    +0.000 A 
ATOM     22  C   UNL     1       7.894   6.957  18.258  0.00  0.00    +0.000 A 
ATOM     23  F   UNL     1       8.751   7.736  18.930  0.00  0.00    +0.000 F 
ATOM     24  C   UNL     1       6.966   7.533  17.402  0.00  0.00    +0.000 A 
ATOM     25  C   UNL     1       6.077   6.715  16.703  0.00  0.00    +0.000 A 
ENDBRANCH  18  19
ENDBRANCH  17  18
ENDBRANCH   6  17
TORSDOF 5
ENDMDL
