MODEL 1
REMARK VINA RESULT:      -8.0      0.000      0.000
REMARK  Name = 
REMARK  6 active torsions:
REMARK  status: ('A' for Active; 'I' for Inactive)
REMARK    1  A    between atoms: C_1  and  C_2
REMARK    2  A    between atoms: C_5  and  C_6
REMARK    3  A    between atoms: C_6  and  C_8
REMARK    4  A    between atoms: N_10  and  C_11
REMARK    5  A    between atoms: C_11  and  C_12
REMARK    6  A    between atoms: C_18  and  C_19
REMARK                            x       y       z     vdW  Elec       q    Type
REMARK                         _______ _______ _______ _____ _____    ______ ____
ROOT
ATOM      1  C   UNL     1      -1.182  12.841  19.920  0.00  0.00    +0.000 A 
ATOM      2  C   UNL     1      -0.809  14.170  19.756  0.00  0.00    +0.000 A 
ATOM      3  N   UNL     1       0.472  14.331  20.205  0.00  0.00    +0.000 N 
ATOM      4  C   UNL     1       1.010  13.098  20.462  0.00  0.00    +0.000 A 
ATOM      5  C   UNL     1       0.004  12.151  20.387  0.00  0.00    +0.000 A 
ENDROOT
BRANCH   5   6
ATOM      6  C   UNL     1       0.197  10.735  20.746  0.00  0.00    +0.000 A 
ATOM      7  C   UNL     1      -0.170  10.346  22.048  0.00  0.00    +0.000 A 
ATOM      8  C   UNL     1       0.265   9.134  22.579  0.00  0.00    +0.000 A 
ATOM      9  C   UNL     1       1.011   8.262  21.792  0.00  0.00    +0.000 A 
ATOM     10  C   UNL     1       1.311   8.568  20.459  0.00  0.00    +0.000 A 
ATOM     11  C   UNL     1       2.037   7.642  19.688  0.00  0.00    +0.000 A 
ATOM     12  C   UNL     1       2.370   7.907  18.363  0.00  0.00    +0.000 A 
ATOM     13  C   UNL     1       2.009   9.119  17.798  0.00  0.00    +0.000 A 
ATOM     14  C   UNL     1       1.319  10.062  18.564  0.00  0.00    +0.000 A 
ATOM     15  C   UNL     1       0.917   9.816  19.905  0.00  0.00    +0.000 A 
ENDBRANCH   5   6
BRANCH   1  16
ATOM     16  C   UNL     1      -2.548  12.385  19.606  0.00  0.00    +0.000 C 
ATOM     17  O   UNL     1      -3.476  12.604  20.388  0.00  0.00    +0.000 OA
BRANCH  16  22
ATOM     18  C   UNL     1      -3.639  10.010  14.428  0.00  0.00    +0.000 C 
ATOM     19  C   UNL     1      -3.418  10.515  15.822  0.00  0.00    +0.000 A 
ATOM     20  C   UNL     1      -4.401  11.243  16.501  0.00  0.00    +0.000 A 
ATOM     21  C   UNL     1      -4.121  11.811  17.751  0.00  0.00    +0.000 A 
ATOM     22  C   UNL     1      -2.862  11.638  18.349  0.00  0.00    +0.000 A 
ATOM     23  C   UNL     1      -1.939  10.801  17.723  0.00  0.00    +0.000 A 
ATOM     24  C   UNL     1      -2.188  10.295  16.446  0.00  0.00    +0.000 A 
ENDBRANCH  16  22
ENDBRANCH   1  16
BRANCH   3  25
ATOM     25  C   UNL     1       1.179  15.602  20.321  0.00  0.00    +0.000 C 
BRANCH  25  26
ATOM     26  C   UNL     1       1.993  15.910  19.108  0.00  0.00    +0.000 A 
ATOM     27  C   UNL     1       1.831  16.895  18.153  0.00  0.00    +0.000 A 
ATOM     28  N   UNL     1       2.810  16.679  17.221  0.00  0.00    +0.000 N 
ATOM     29  C   UNL     1       3.529  15.587  17.625  0.00  0.00    +0.000 A 
ATOM     30  N   UNL     1       3.075  15.108  18.758  0.00  0.00    +0.000 NA
ATOM     31  H   UNL     1       2.971  17.213  16.380  0.00  0.00    +0.000 HD
ENDBRANCH  25  26
ENDBRANCH   3  25
TORSDOF 5
ENDMDL
MODEL 2
REMARK VINA RESULT:      -7.7      0.981      1.306
REMARK  Name = 
REMARK  6 active torsions:
REMARK  status: ('A' for Active; 'I' for Inactive)
REMARK    1  A    between atoms: C_1  and  C_2
REMARK    2  A    between atoms: C_5  and  C_6
REMARK    3  A    between atoms: C_6  and  C_8
REMARK    4  A    between atoms: N_10  and  C_11
REMARK    5  A    between atoms: C_11  and  C_12
REMARK    6  A    between atoms: C_18  and  C_19
REMARK                            x       y       z     vdW  Elec       q    Type
REMARK                         _______ _______ _______ _____ _____    ______ ____
ROOT
ATOM      1  C   UNL     1      -1.516  12.889  20.157  0.00  0.00    +0.000 A 
ATOM      2  C   UNL     1      -1.226  14.246  20.069  0.00  0.00    +0.000 A 
ATOM      3  N   UNL     1       0.029  14.466  20.563  0.00  0.00    +0.000 N 
ATOM      4  C   UNL     1       0.640  13.258  20.776  0.00  0.00    +0.000 A 
ATOM      5  C   UNL     1      -0.301  12.253  20.625  0.00  0.00    +0.000 A 
ENDROOT
BRANCH   5   6
ATOM      6  C   UNL     1      -0.025  10.837  20.919  0.00  0.00    +0.000 A 
ATOM      7  C   UNL     1      -0.342  10.374  22.209  0.00  0.00    +0.000 A 
ATOM      8  C   UNL     1       0.168   9.167  22.680  0.00  0.00    +0.000 A 
ATOM      9  C   UNL     1       0.942   8.370  21.842  0.00  0.00    +0.000 A 
ATOM     10  C   UNL     1       1.197   8.747  20.518  0.00  0.00    +0.000 A 
ATOM     11  C   UNL     1       1.954   7.894  19.694  0.00  0.00    +0.000 A 
ATOM     12  C   UNL     1       2.244   8.232  18.376  0.00  0.00    +0.000 A 
ATOM     13  C   UNL     1       1.808   9.445  17.871  0.00  0.00    +0.000 A 
ATOM     14  C   UNL     1       1.085  10.316  18.689  0.00  0.00    +0.000 A 
ATOM     15  C   UNL     1       0.725   9.994  20.026  0.00  0.00    +0.000 A 
ENDBRANCH   5   6
BRANCH   1  16
ATOM     16  C   UNL     1      -2.841  12.363  19.781  0.00  0.00    +0.000 C 
ATOM     17  O   UNL     1      -3.808  12.510  20.532  0.00  0.00    +0.000 OA
BRANCH  16  22
ATOM     18  C   UNL     1      -3.556  10.044  14.514  0.00  0.00    +0.000 C 
ATOM     19  C   UNL     1      -3.437  10.534  15.926  0.00  0.00    +0.000 A 
ATOM     20  C   UNL     1      -4.464  11.260  16.538  0.00  0.00    +0.000 A 
ATOM     21  C   UNL     1      -4.275  11.815  17.810  0.00  0.00    +0.000 A 
ATOM     22  C   UNL     1      -3.064  11.631  18.497  0.00  0.00    +0.000 A 
ATOM     23  C   UNL     1      -2.101  10.795  17.933  0.00  0.00    +0.000 A 
ATOM     24  C   UNL     1      -2.257  10.302  16.636  0.00  0.00    +0.000 A 
ENDBRANCH  16  22
ENDBRANCH   1  16
BRANCH   3  25
ATOM     25  C   UNL     1       0.648  15.772  20.763  0.00  0.00    +0.000 C 
BRANCH  25  26
ATOM     26  C   UNL     1       0.562  16.631  19.544  0.00  0.00    +0.000 A 
ATOM     27  C   UNL     1       1.371  16.672  18.425  0.00  0.00    +0.000 A 
ATOM     28  N   UNL     1       0.888  17.692  17.650  0.00  0.00    +0.000 N 
ATOM     29  C   UNL     1      -0.184  18.235  18.307  0.00  0.00    +0.000 A 
ATOM     30  N   UNL     1      -0.415  17.616  19.439  0.00  0.00    +0.000 NA
ATOM     31  H   UNL     1       1.256  18.003  16.764  0.00  0.00    +0.000 HD
ENDBRANCH  25  26
ENDBRANCH   3  25
TORSDOF 5
ENDMDL
MODEL 3
REMARK VINA RESULT:      -7.7      1.237      1.671
REMARK  Name = 
REMARK  6 active torsions:
REMARK  status: ('A' for Active; 'I' for Inactive)
REMARK    1  A    between atoms: C_1  and  C_2
REMARK    2  A    between atoms: C_5  and  C_6
REMARK    3  A    between atoms: C_6  and  C_8
REMARK    4  A    between atoms: N_10  and  C_11
REMARK    5  A    between atoms: C_11  and  C_12
REMARK    6  A    between atoms: C_18  and  C_19
REMARK                            x       y       z     vdW  Elec       q    Type
REMARK                         _______ _______ _______ _____ _____    ______ ____
ROOT
ATOM      1  C   UNL     1      -0.809  12.461  19.092  0.00  0.00    +0.000 A 
ATOM      2  C   UNL     1      -0.389  13.712  18.654  0.00  0.00    +0.000 A 
ATOM      3  N   UNL     1       0.924  13.884  18.991  0.00  0.00    +0.000 N 
ATOM      4  C   UNL     1       1.423  12.694  19.451  0.00  0.00    +0.000 A 
ATOM      5  C   UNL     1       0.373  11.807  19.616  0.00  0.00    +0.000 A 
ENDROOT
BRANCH   5   6
ATOM      6  C   UNL     1       0.527  10.477  20.230  0.00  0.00    +0.000 A 
ATOM      7  C   UNL     1       0.177  10.350  21.587  0.00  0.00    +0.000 A 
ATOM      8  C   UNL     1       0.583   9.244  22.328  0.00  0.00    +0.000 A 
ATOM      9  C   UNL     1       1.281   8.214  21.706  0.00  0.00    +0.000 A 
ATOM     10  C   UNL     1       1.561   8.255  20.335  0.00  0.00    +0.000 A 
ATOM     11  C   UNL     1       2.239   7.175  19.739  0.00  0.00    +0.000 A 
ATOM     12  C   UNL     1       2.551   7.177  18.383  0.00  0.00    +0.000 A 
ATOM     13  C   UNL     1       2.218   8.275  17.608  0.00  0.00    +0.000 A 
ATOM     14  C   UNL     1       1.577   9.369  18.195  0.00  0.00    +0.000 A 
ATOM     15  C   UNL     1       1.197   9.392  19.564  0.00  0.00    +0.000 A 
ENDBRANCH   5   6
BRANCH   1  16
ATOM     16  C   UNL     1      -2.211  12.031  18.949  0.00  0.00    +0.000 C 
ATOM     17  O   UNL     1      -3.025  12.240  19.851  0.00  0.00    +0.000 OA
BRANCH  16  22
ATOM     18  C   UNL     1      -3.910   9.773  13.883  0.00  0.00    +0.000 C 
ATOM     19  C   UNL     1      -3.546  10.260  15.254  0.00  0.00    +0.000 A 
ATOM     20  C   UNL     1      -4.366  11.148  15.957  0.00  0.00    +0.000 A 
ATOM     21  C   UNL     1      -3.941  11.685  17.179  0.00  0.00    +0.000 A 
ATOM     22  C   UNL     1      -2.699  11.323  17.725  0.00  0.00    +0.000 A 
ATOM     23  C   UNL     1      -1.952  10.337  17.081  0.00  0.00    +0.000 A 
ATOM     24  C   UNL     1      -2.339   9.856  15.829  0.00  0.00    +0.000 A 
ENDBRANCH  16  22
ENDBRANCH   1  16
BRANCH   3  25
ATOM     25  C   UNL     1       1.692  15.113  18.820  0.00  0.00    +0.000 C 
BRANCH  25  26
ATOM     26  C   UNL     1       1.032  16.287  19.464  0.00  0.00    +0.000 A 
ATOM     27  C   UNL     1       0.904  16.614  20.800  0.00  0.00    +0.000 A 
ATOM     28  N   UNL     1       0.144  17.753  20.836  0.00  0.00    +0.000 N 
ATOM     29  C   UNL     1      -0.164  18.083  19.544  0.00  0.00    +0.000 A 
ATOM     30  N   UNL     1       0.361  17.233  18.695  0.00  0.00    +0.000 NA
ATOM     31  H   UNL     1      -0.150  18.256  21.659  0.00  0.00    +0.000 HD
ENDBRANCH  25  26
ENDBRANCH   3  25
TORSDOF 5
ENDMDL
MODEL 4
REMARK VINA RESULT:      -7.7      1.335      4.795
REMARK  Name = 
REMARK  6 active torsions:
REMARK  status: ('A' for Active; 'I' for Inactive)
REMARK    1  A    between atoms: C_1  and  C_2
REMARK    2  A    between atoms: C_5  and  C_6
REMARK    3  A    between atoms: C_6  and  C_8
REMARK    4  A    between atoms: N_10  and  C_11
REMARK    5  A    between atoms: C_11  and  C_12
REMARK    6  A    between atoms: C_18  and  C_19
REMARK                            x       y       z     vdW  Elec       q    Type
REMARK                         _______ _______ _______ _____ _____    ______ ____
ROOT
ATOM      1  C   UNL     1       0.328  11.664  20.526  0.00  0.00    +0.000 A 
ATOM      2  C   UNL     1       1.541  12.286  20.797  0.00  0.00    +0.000 A 
ATOM      3  N   UNL     1       1.436  13.616  20.499  0.00  0.00    +0.000 N 
ATOM      4  C   UNL     1       0.124  13.910  20.240  0.00  0.00    +0.000 A 
ATOM      5  C   UNL     1      -0.587  12.725  20.156  0.00  0.00    +0.000 A 
ENDROOT
BRANCH   5   6
ATOM      6  C   UNL     1      -2.002  12.658  19.749  0.00  0.00    +0.000 A 
ATOM      7  C   UNL     1      -2.944  13.271  20.595  0.00  0.00    +0.000 A 
ATOM      8  C   UNL     1      -4.302  12.990  20.472  0.00  0.00    +0.000 A 
ATOM      9  C   UNL     1      -4.745  12.149  19.456  0.00  0.00    +0.000 A 
ATOM     10  C   UNL     1      -3.849  11.598  18.531  0.00  0.00    +0.000 A 
ATOM     11  C   UNL     1      -4.344  10.782  17.497  0.00  0.00    +0.000 A 
ATOM     12  C   UNL     1      -3.491  10.202  16.563  0.00  0.00    +0.000 A 
ATOM     13  C   UNL     1      -2.125  10.405  16.668  0.00  0.00    +0.000 A 
ATOM     14  C   UNL     1      -1.619  11.185  17.711  0.00  0.00    +0.000 A 
ATOM     15  C   UNL     1      -2.454  11.834  18.659  0.00  0.00    +0.000 A 
ENDBRANCH   5   6
BRANCH   1  16
ATOM     16  C   UNL     1       0.167  10.206  20.665  0.00  0.00    +0.000 C 
ATOM     17  O   UNL     1      -0.712   9.739  21.393  0.00  0.00    +0.000 OA
BRANCH  16  22
ATOM     18  C   UNL     1       3.119   6.110  17.808  0.00  0.00    +0.000 C 
ATOM     19  C   UNL     1       2.477   7.221  18.584  0.00  0.00    +0.000 A 
ATOM     20  C   UNL     1       2.252   7.118  19.961  0.00  0.00    +0.000 A 
ATOM     21  C   UNL     1       1.536   8.115  20.635  0.00  0.00    +0.000 A 
ATOM     22  C   UNL     1       1.057   9.241  19.947  0.00  0.00    +0.000 A 
ATOM     23  C   UNL     1       1.402   9.396  18.605  0.00  0.00    +0.000 A 
ATOM     24  C   UNL     1       2.051   8.370  17.914  0.00  0.00    +0.000 A 
ENDBRANCH  16  22
ENDBRANCH   1  16
BRANCH   3  25
ATOM     25  C   UNL     1       2.529  14.582  20.526  0.00  0.00    +0.000 C 
BRANCH  25  26
ATOM     26  C   UNL     1       2.951  14.997  19.155  0.00  0.00    +0.000 A 
ATOM     27  C   UNL     1       3.736  14.338  18.228  0.00  0.00    +0.000 A 
ATOM     28  N   UNL     1       3.870  15.198  17.171  0.00  0.00    +0.000 N 
ATOM     29  C   UNL     1       3.176  16.338  17.478  0.00  0.00    +0.000 A 
ATOM     30  N   UNL     1       2.603  16.247  18.653  0.00  0.00    +0.000 NA
ATOM     31  H   UNL     1       4.393  15.036  16.324  0.00  0.00    +0.000 HD
ENDBRANCH  25  26
ENDBRANCH   3  25
TORSDOF 5
ENDMDL
MODEL 5
REMARK VINA RESULT:      -7.6      3.130      6.710
REMARK  Name = 
REMARK  6 active torsions:
REMARK  status: ('A' for Active; 'I' for Inactive)
REMARK    1  A    between atoms: C_1  and  C_2
REMARK    2  A    between atoms: C_5  and  C_6
REMARK    3  A    between atoms: C_6  and  C_8
REMARK    4  A    between atoms: N_10  and  C_11
REMARK    5  A    between atoms: C_11  and  C_12
REMARK    6  A    between atoms: C_18  and  C_19
REMARK                            x       y       z     vdW  Elec       q    Type
REMARK                         _______ _______ _______ _____ _____    ______ ____
ROOT
ATOM      1  C   UNL     1       1.371  11.645  18.564  0.00  0.00    +0.000 A 
ATOM      2  C   UNL     1       2.321  10.760  18.066  0.00  0.00    +0.000 A 
ATOM      3  N   UNL     1       1.785   9.503  18.032  0.00  0.00    +0.000 N 
ATOM      4  C   UNL     1       0.444   9.586  18.298  0.00  0.00    +0.000 A 
ATOM      5  C   UNL     1       0.154  10.872  18.719  0.00  0.00    +0.000 A 
ENDROOT
BRANCH   5   6
ATOM      6  C   UNL     1      -1.169  11.279  19.224  0.00  0.00    +0.000 A 
ATOM      7  C   UNL     1      -2.115  11.709  18.275  0.00  0.00    +0.000 A 
ATOM      8  C   UNL     1      -3.254  12.406  18.669  0.00  0.00    +0.000 A 
ATOM      9  C   UNL     1      -3.502  12.618  20.021  0.00  0.00    +0.000 A 
ATOM     10  C   UNL     1      -2.637  12.117  21.002  0.00  0.00    +0.000 A 
ATOM     11  C   UNL     1      -2.944  12.323  22.360  0.00  0.00    +0.000 A 
ATOM     12  C   UNL     1      -2.108  11.856  23.369  0.00  0.00    +0.000 A 
ATOM     13  C   UNL     1      -0.934  11.202  23.035  0.00  0.00    +0.000 A 
ATOM     14  C   UNL     1      -0.600  11.022  21.690  0.00  0.00    +0.000 A 
ATOM     15  C   UNL     1      -1.445  11.440  20.627  0.00  0.00    +0.000 A 
ENDBRANCH   5   6
BRANCH   1  16
ATOM     16  C   UNL     1       1.694  13.063  18.801  0.00  0.00    +0.000 C 
ATOM     17  O   UNL     1       2.647  13.592  18.226  0.00  0.00    +0.000 OA
BRANCH  16  22
ATOM     18  C   UNL     1      -1.818  15.889  22.451  0.00  0.00    +0.000 C 
ATOM     19  C   UNL     1      -0.842  15.277  21.492  0.00  0.00    +0.000 A 
ATOM     20  C   UNL     1      -1.025  15.359  20.107  0.00  0.00    +0.000 A 
ATOM     21  C   UNL     1      -0.169  14.669  19.240  0.00  0.00    +0.000 A 
ATOM     22  C   UNL     1       0.897  13.907  19.744  0.00  0.00    +0.000 A 
ATOM     23  C   UNL     1       1.148  13.941  21.115  0.00  0.00    +0.000 A 
ATOM     24  C   UNL     1       0.254  14.567  21.986  0.00  0.00    +0.000 A 
ENDBRANCH  16  22
ENDBRANCH   1  16
BRANCH   3  25
ATOM     25  C   UNL     1       2.506   8.280  17.694  0.00  0.00    +0.000 C 
BRANCH  25  26
ATOM     26  C   UNL     1       2.384   7.239  18.757  0.00  0.00    +0.000 A 
ATOM     27  C   UNL     1       2.116   7.372  20.106  0.00  0.00    +0.000 A 
ATOM     28  N   UNL     1       2.193   6.109  20.630  0.00  0.00    +0.000 N 
ATOM     29  C   UNL     1       2.500   5.257  19.604  0.00  0.00    +0.000 A 
ATOM     30  N   UNL     1       2.610   5.898  18.466  0.00  0.00    +0.000 NA
ATOM     31  H   UNL     1       2.062   5.848  21.596  0.00  0.00    +0.000 HD
ENDBRANCH  25  26
ENDBRANCH   3  25
TORSDOF 5
ENDMDL
MODEL 6
REMARK VINA RESULT:      -7.6      1.385      5.397
REMARK  Name = 
REMARK  6 active torsions:
REMARK  status: ('A' for Active; 'I' for Inactive)
REMARK    1  A    between atoms: C_1  and  C_2
REMARK    2  A    between atoms: C_5  and  C_6
REMARK    3  A    between atoms: C_6  and  C_8
REMARK    4  A    between atoms: N_10  and  C_11
REMARK    5  A    between atoms: C_11  and  C_12
REMARK    6  A    between atoms: C_18  and  C_19
REMARK                            x       y       z     vdW  Elec       q    Type
REMARK                         _______ _______ _______ _____ _____    ______ ____
ROOT
ATOM      1  C   UNL     1      -0.067  11.650  20.057  0.00  0.00    +0.000 A 
ATOM      2  C   UNL     1       0.753  12.692  20.474  0.00  0.00    +0.000 A 
ATOM      3  N   UNL     1       0.415  13.826  19.790  0.00  0.00    +0.000 N 
ATOM      4  C   UNL     1      -0.741  13.595  19.092  0.00  0.00    +0.000 A 
ATOM      5  C   UNL     1      -1.032  12.243  19.152  0.00  0.00    +0.000 A 
ENDROOT
BRANCH   5   6
ATOM      6  C   UNL     1      -2.129  11.618  18.394  0.00  0.00    +0.000 A 
ATOM      7  C   UNL     1      -1.788  10.944  17.206  0.00  0.00    +0.000 A 
ATOM      8  C   UNL     1      -2.764  10.608  16.271  0.00  0.00    +0.000 A 
ATOM      9  C   UNL     1      -4.102  10.875  16.542  0.00  0.00    +0.000 A 
ATOM     10  C   UNL     1      -4.493  11.453  17.757  0.00  0.00    +0.000 A 
ATOM     11  C   UNL     1      -5.860  11.672  18.005  0.00  0.00    +0.000 A 
ATOM     12  C   UNL     1      -6.295  12.255  19.192  0.00  0.00    +0.000 A 
ATOM     13  C   UNL     1      -5.365  12.657  20.135  0.00  0.00    +0.000 A 
ATOM     14  C   UNL     1      -4.002  12.477  19.885  0.00  0.00    +0.000 A 
ATOM     15  C   UNL     1      -3.514  11.844  18.710  0.00  0.00    +0.000 A 
ENDBRANCH   5   6
BRANCH   1  16
ATOM     16  C   UNL     1       0.125  10.277  20.556  0.00  0.00    +0.000 C 
ATOM     17  O   UNL     1      -0.373   9.925  21.628  0.00  0.00    +0.000 OA
BRANCH  16  22
ATOM     18  C   UNL     1       3.733   6.725  17.726  0.00  0.00    +0.000 C 
ATOM     19  C   UNL     1       2.697   7.572  18.402  0.00  0.00    +0.000 A 
ATOM     20  C   UNL     1       2.113   8.668  17.757  0.00  0.00    +0.000 A 
ATOM     21  C   UNL     1       1.245   9.517  18.455  0.00  0.00    +0.000 A 
ATOM     22  C   UNL     1       0.930   9.268  19.801  0.00  0.00    +0.000 A 
ATOM     23  C   UNL     1       1.413   8.100  20.390  0.00  0.00    +0.000 A 
ATOM     24  C   UNL     1       2.335   7.294  19.722  0.00  0.00    +0.000 A 
ENDBRANCH  16  22
ENDBRANCH   1  16
BRANCH   3  25
ATOM     25  C   UNL     1       1.125  15.100  19.850  0.00  0.00    +0.000 C 
BRANCH  25  26
ATOM     26  C   UNL     1       2.260  15.161  18.882  0.00  0.00    +0.000 A 
ATOM     27  C   UNL     1       2.815  14.168  18.097  0.00  0.00    +0.000 A 
ATOM     28  N   UNL     1       3.877  14.747  17.456  0.00  0.00    +0.000 N 
ATOM     29  C   UNL     1       3.939  16.054  17.860  0.00  0.00    +0.000 A 
ATOM     30  N   UNL     1       2.979  16.339  18.705  0.00  0.00    +0.000 NA
ATOM     31  H   UNL     1       4.511  14.298  16.813  0.00  0.00    +0.000 HD
ENDBRANCH  25  26
ENDBRANCH   3  25
TORSDOF 5
ENDMDL
MODEL 7
REMARK VINA RESULT:      -7.6      1.927      2.800
REMARK  Name = 
REMARK  6 active torsions:
REMARK  status: ('A' for Active; 'I' for Inactive)
REMARK    1  A    between atoms: C_1  and  C_2
REMARK    2  A    between atoms: C_5  and  C_6
REMARK    3  A    between atoms: C_6  and  C_8
REMARK    4  A    between atoms: N_10  and  C_11
REMARK    5  A    between atoms: C_11  and  C_12
REMARK    6  A    between atoms: C_18  and  C_19
REMARK                            x       y       z     vdW  Elec       q    Type
REMARK                         _______ _______ _______ _____ _____    ______ ____
ROOT
ATOM      1  C   UNL     1      -0.921  11.952  18.404  0.00  0.00    +0.000 A 
ATOM      2  C   UNL     1      -0.679  13.293  18.131  0.00  0.00    +0.000 A 
ATOM      3  N   UNL     1       0.324  13.740  18.945  0.00  0.00    +0.000 N 
ATOM      4  C   UNL     1       0.879  12.668  19.593  0.00  0.00    +0.000 A 
ATOM      5  C   UNL     1       0.091  11.554  19.362  0.00  0.00    +0.000 A 
ENDROOT
BRANCH   5   6
ATOM      6  C   UNL     1       0.313  10.255  20.021  0.00  0.00    +0.000 A 
ATOM      7  C   UNL     1      -0.138  10.122  21.348  0.00  0.00    +0.000 A 
ATOM      8  C   UNL     1       0.303   9.072  22.149  0.00  0.00    +0.000 A 
ATOM      9  C   UNL     1       1.143   8.100  21.614  0.00  0.00    +0.000 A 
ATOM     10  C   UNL     1       1.533   8.141  20.270  0.00  0.00    +0.000 A 
ATOM     11  C   UNL     1       2.354   7.118  19.761  0.00  0.00    +0.000 A 
ATOM     12  C   UNL     1       2.779   7.123  18.436  0.00  0.00    +0.000 A 
ATOM     13  C   UNL     1       2.414   8.171  17.607  0.00  0.00    +0.000 A 
ATOM     14  C   UNL     1       1.628   9.211  18.110  0.00  0.00    +0.000 A 
ATOM     15  C   UNL     1       1.133   9.224  19.442  0.00  0.00    +0.000 A 
ENDBRANCH   5   6
BRANCH   1  16
ATOM     16  C   UNL     1      -2.016  11.221  17.741  0.00  0.00    +0.000 C 
ATOM     17  O   UNL     1      -1.770  10.289  16.973  0.00  0.00    +0.000 OA
BRANCH  16  22
ATOM     18  C   UNL     1      -7.408  13.200  18.550  0.00  0.00    +0.000 C 
ATOM     19  C   UNL     1      -6.059  12.566  18.384  0.00  0.00    +0.000 A 
ATOM     20  C   UNL     1      -5.164  12.457  19.454  0.00  0.00    +0.000 A 
ATOM     21  C   UNL     1      -3.865  11.979  19.241  0.00  0.00    +0.000 A 
ATOM     22  C   UNL     1      -3.451  11.580  17.960  0.00  0.00    +0.000 A 
ATOM     23  C   UNL     1      -4.393  11.568  16.932  0.00  0.00    +0.000 A 
ATOM     24  C   UNL     1      -5.663  12.113  17.124  0.00  0.00    +0.000 A 
ENDBRANCH  16  22
ENDBRANCH   1  16
BRANCH   3  25
ATOM     25  C   UNL     1       0.781  15.121  19.053  0.00  0.00    +0.000 C 
BRANCH  25  26
ATOM     26  C   UNL     1      -0.350  16.095  19.026  0.00  0.00    +0.000 A 
ATOM     27  C   UNL     1      -0.676  17.056  18.088  0.00  0.00    +0.000 A 
ATOM     28  N   UNL     1      -1.762  17.720  18.593  0.00  0.00    +0.000 N 
ATOM     29  C   UNL     1      -2.063  17.156  19.804  0.00  0.00    +0.000 A 
ATOM     30  N   UNL     1      -1.245  16.172  20.089  0.00  0.00    +0.000 NA
ATOM     31  H   UNL     1      -2.249  18.493  18.165  0.00  0.00    +0.000 HD
ENDBRANCH  25  26
ENDBRANCH   3  25
TORSDOF 5
ENDMDL
MODEL 8
REMARK VINA RESULT:      -7.5      3.709      6.700
REMARK  Name = 
REMARK  6 active torsions:
REMARK  status: ('A' for Active; 'I' for Inactive)
REMARK    1  A    between atoms: C_1  and  C_2
REMARK    2  A    between atoms: C_5  and  C_6
REMARK    3  A    between atoms: C_6  and  C_8
REMARK    4  A    between atoms: N_10  and  C_11
REMARK    5  A    between atoms: C_11  and  C_12
REMARK    6  A    between atoms: C_18  and  C_19
REMARK                            x       y       z     vdW  Elec       q    Type
REMARK                         _______ _______ _______ _____ _____    ______ ____
ROOT
ATOM      1  C   UNL     1       1.227   9.028  19.165  0.00  0.00    +0.000 A 
ATOM      2  C   UNL     1       1.865   7.842  18.824  0.00  0.00    +0.000 A 
ATOM      3  N   UNL     1       2.198   7.170  19.967  0.00  0.00    +0.000 N 
ATOM      4  C   UNL     1       1.606   7.791  21.035  0.00  0.00    +0.000 A 
ATOM      5  C   UNL     1       1.069   8.993  20.606  0.00  0.00    +0.000 A 
ENDROOT
BRANCH   5   6
ATOM      6  C   UNL     1       0.479   9.987  21.519  0.00  0.00    +0.000 A 
ATOM      7  C   UNL     1      -0.480   9.525  22.440  0.00  0.00    +0.000 A 
ATOM      8  C   UNL     1      -1.314  10.416  23.109  0.00  0.00    +0.000 A 
ATOM      9  C   UNL     1      -1.153  11.786  22.923  0.00  0.00    +0.000 A 
ATOM     10  C   UNL     1      -0.144  12.289  22.093  0.00  0.00    +0.000 A 
ATOM     11  C   UNL     1       0.007  13.682  21.962  0.00  0.00    +0.000 A 
ATOM     12  C   UNL     1       0.986  14.229  21.138  0.00  0.00    +0.000 A 
ATOM     13  C   UNL     1       1.810  13.389  20.407  0.00  0.00    +0.000 A 
ATOM     14  C   UNL     1       1.647  12.005  20.502  0.00  0.00    +0.000 A 
ATOM     15  C   UNL     1       0.693  11.401  21.365  0.00  0.00    +0.000 A 
ENDBRANCH   5   6
BRANCH   1  16
ATOM     16  C   UNL     1       0.831  10.008  18.138  0.00  0.00    +0.000 C 
ATOM     17  O   UNL     1       1.678  10.519  17.401  0.00  0.00    +0.000 OA
BRANCH  16  22
ATOM     18  C   UNL     1      -4.830  11.240  17.872  0.00  0.00    +0.000 C 
ATOM     19  C   UNL     1      -3.353  10.987  17.821  0.00  0.00    +0.000 A 
ATOM     20  C   UNL     1      -2.821   9.896  17.127  0.00  0.00    +0.000 A 
ATOM     21  C   UNL     1      -1.451   9.612  17.202  0.00  0.00    +0.000 A 
ATOM     22  C   UNL     1      -0.592  10.429  17.955  0.00  0.00    +0.000 A 
ATOM     23  C   UNL     1      -1.113  11.586  18.531  0.00  0.00    +0.000 A 
ATOM     24  C   UNL     1      -2.487  11.831  18.519  0.00  0.00    +0.000 A 
ENDBRANCH  16  22
ENDBRANCH   1  16
BRANCH   3  25
ATOM     25  C   UNL     1       2.992   5.947  20.034  0.00  0.00    +0.000 C 
BRANCH  25  26
ATOM     26  C   UNL     1       2.148   4.736  20.260  0.00  0.00    +0.000 A 
ATOM     27  C   UNL     1       1.993   3.957  21.390  0.00  0.00    +0.000 A 
ATOM     28  N   UNL     1       1.163   2.931  21.028  0.00  0.00    +0.000 N 
ATOM     29  C   UNL     1       0.839   3.109  19.710  0.00  0.00    +0.000 A 
ATOM     30  N   UNL     1       1.402   4.188  19.221  0.00  0.00    +0.000 NA
ATOM     31  H   UNL     1       0.852   2.171  21.614  0.00  0.00    +0.000 HD
ENDBRANCH  25  26
ENDBRANCH   3  25
TORSDOF 5
ENDMDL
MODEL 9
REMARK VINA RESULT:      -7.5      1.436      2.167
REMARK  Name = 
REMARK  6 active torsions:
REMARK  status: ('A' for Active; 'I' for Inactive)
REMARK    1  A    between atoms: C_1  and  C_2
REMARK    2  A    between atoms: C_5  and  C_6
REMARK    3  A    between atoms: C_6  and  C_8
REMARK    4  A    between atoms: N_10  and  C_11
REMARK    5  A    between atoms: C_11  and  C_12
REMARK    6  A    between atoms: C_18  and  C_19
REMARK                            x       y       z     vdW  Elec       q    Type
REMARK                         _______ _______ _______ _____ _____    ______ ____
ROOT
ATOM      1  C   UNL     1      -0.962  12.371  18.797  0.00  0.00    +0.000 A 
ATOM      2  C   UNL     1      -0.680  13.724  18.651  0.00  0.00    +0.000 A 
ATOM      3  N   UNL     1       0.316  14.068  19.521  0.00  0.00    +0.000 N 
ATOM      4  C   UNL     1       0.830  12.928  20.080  0.00  0.00    +0.000 A 
ATOM      5  C   UNL     1       0.019  11.861  19.734  0.00  0.00    +0.000 A 
ENDROOT
BRANCH   5   6
ATOM      6  C   UNL     1       0.194  10.503  20.278  0.00  0.00    +0.000 A 
ATOM      7  C   UNL     1      -0.279  10.267  21.582  0.00  0.00    +0.000 A 
ATOM      8  C   UNL     1       0.120   9.137  22.292  0.00  0.00    +0.000 A 
ATOM      9  C   UNL     1       0.939   8.192  21.683  0.00  0.00    +0.000 A 
ATOM     10  C   UNL     1       1.349   8.340  20.352  0.00  0.00    +0.000 A 
ATOM     11  C   UNL     1       2.148   7.342  19.764  0.00  0.00    +0.000 A 
ATOM     12  C   UNL     1       2.590   7.452  18.449  0.00  0.00    +0.000 A 
ATOM     13  C   UNL     1       2.268   8.579  17.713  0.00  0.00    +0.000 A 
ATOM     14  C   UNL     1       1.505   9.594  18.297  0.00  0.00    +0.000 A 
ATOM     15  C   UNL     1       0.992   9.504  19.619  0.00  0.00    +0.000 A 
ENDBRANCH   5   6
BRANCH   1  16
ATOM     16  C   UNL     1      -2.061  11.732  18.051  0.00  0.00    +0.000 C 
ATOM     17  O   UNL     1      -1.836  11.137  16.995  0.00  0.00    +0.000 OA
BRANCH  16  22
ATOM     18  C   UNL     1      -7.465  11.372  20.127  0.00  0.00    +0.000 C 
ATOM     19  C   UNL     1      -6.109  11.575  19.518  0.00  0.00    +0.000 A 
ATOM     20  C   UNL     1      -5.784  11.051  18.263  0.00  0.00    +0.000 A 
ATOM     21  C   UNL     1      -4.474  11.145  17.777  0.00  0.00    +0.000 A 
ATOM     22  C   UNL     1      -3.476  11.786  18.529  0.00  0.00    +0.000 A 
ATOM     23  C   UNL     1      -3.844  12.419  19.716  0.00  0.00    +0.000 A 
ATOM     24  C   UNL     1      -5.130  12.263  20.237  0.00  0.00    +0.000 A 
ENDBRANCH  16  22
ENDBRANCH   1  16
BRANCH   3  25
ATOM     25  C   UNL     1       0.805  15.422  19.761  0.00  0.00    +0.000 C 
BRANCH  25  26
ATOM     26  C   UNL     1       1.802  15.854  18.737  0.00  0.00    +0.000 A 
ATOM     27  C   UNL     1       1.877  17.023  18.005  0.00  0.00    +0.000 A 
ATOM     28  N   UNL     1       2.941  16.868  17.157  0.00  0.00    +0.000 N 
ATOM     29  C   UNL     1       3.476  15.630  17.392  0.00  0.00    +0.000 A 
ATOM     30  N   UNL     1       2.826  15.000  18.340  0.00  0.00    +0.000 NA
ATOM     31  H   UNL     1       3.269  17.533  16.473  0.00  0.00    +0.000 HD
ENDBRANCH  25  26
ENDBRANCH   3  25
TORSDOF 5
ENDMDL
