MODEL 1
REMARK VINA RESULT:      -7.7      0.000      0.000
REMARK  Name = 
REMARK  5 active torsions:
REMARK  status: ('A' for Active; 'I' for Inactive)
REMARK    1  A    between atoms: C_1  and  O_2
REMARK    2  A    between atoms: O_2  and  C_3
REMARK    3  A    between atoms: C_8  and  C_9
REMARK    4  A    between atoms: N_11  and  N_12
REMARK    5  A    between atoms: C_13  and  C_15
REMARK                            x       y       z     vdW  Elec       q    Type
REMARK                         _______ _______ _______ _____ _____    ______ ____
ROOT
ATOM      1  C   UNL     1       3.179   3.571  17.612  0.00  0.00    +0.000 C 
ATOM      2  O   UNL     1       2.500   3.154  16.671  0.00  0.00    +0.000 OA
ATOM      3  N   UNL     1       4.400   4.176  17.409  0.00  0.00    +0.000 N 
ATOM      4  H   UNL     1       4.990   4.507  18.173  0.00  0.00    +0.000 HD
ENDROOT
BRANCH   1  10
ATOM      5  C   UNL     1       3.327   2.715  20.050  0.00  0.00    +0.000 A 
ATOM      6  C   UNL     1       2.721   2.647  21.318  0.00  0.00    +0.000 A 
ATOM      7  C   UNL     1       1.520   3.307  21.582  0.00  0.00    +0.000 A 
ATOM      8  C   UNL     1       0.898   4.039  20.581  0.00  0.00    +0.000 A 
ATOM      9  C   UNL     1       1.472   4.097  19.311  0.00  0.00    +0.000 A 
ATOM     10  C   UNL     1       2.683   3.435  19.022  0.00  0.00    +0.000 A 
BRANCH   5  12
ATOM     11  C   UNL     1       5.102   1.338  20.836  0.00  0.00    +0.000 C 
ATOM     12  O   UNL     1       4.504   2.067  19.764  0.00  0.00    +0.000 OA
ENDBRANCH   5  12
ENDBRANCH   1  10
BRANCH   3  13
ATOM     13  N   UNL     1       4.894   4.277  16.107  0.00  0.00    +0.000 N 
ATOM     14  C   UNL     1       6.250   4.369  15.889  0.00  0.00    +0.000 C 
ATOM     15  O   UNL     1       7.085   4.371  16.794  0.00  0.00    +0.000 OA
ATOM     16  H   UNL     1       4.228   4.251  15.333  0.00  0.00    +0.000 HD
BRANCH  14  17
ATOM     17  C   UNL     1       6.650   4.478  14.449  0.00  0.00    +0.000 A 
ATOM     18  C   UNL     1       6.036   3.669  13.500  0.00  0.00    +0.000 A 
ATOM     19  C   UNL     1       6.457   3.767  12.177  0.00  0.00    +0.000 A 
ATOM     20  C   UNL     1       7.466   4.666  11.848  0.00  0.00    +0.000 A 
ATOM     21  C   UNL     1       8.016   5.440  12.859  0.00  0.00    +0.000 A 
ATOM     22  N   UNL     1       7.635   5.372  14.154  0.00  0.00    +0.000 NA
ENDBRANCH  14  17
ENDBRANCH   3  13
TORSDOF 4
ENDMDL
MODEL 2
REMARK VINA RESULT:      -7.6      1.461      1.966
REMARK  Name = 
REMARK  5 active torsions:
REMARK  status: ('A' for Active; 'I' for Inactive)
REMARK    1  A    between atoms: C_1  and  O_2
REMARK    2  A    between atoms: O_2  and  C_3
REMARK    3  A    between atoms: C_8  and  C_9
REMARK    4  A    between atoms: N_11  and  N_12
REMARK    5  A    between atoms: C_13  and  C_15
REMARK                            x       y       z     vdW  Elec       q    Type
REMARK                         _______ _______ _______ _____ _____    ______ ____
ROOT
ATOM      1  C   UNL     1       3.395   3.497  17.740  0.00  0.00    +0.000 C 
ATOM      2  O   UNL     1       2.679   3.333  16.750  0.00  0.00    +0.000 OA
ATOM      3  N   UNL     1       4.757   3.671  17.625  0.00  0.00    +0.000 N 
ATOM      4  H   UNL     1       5.372   3.784  18.432  0.00  0.00    +0.000 HD
ENDROOT
BRANCH   1  10
ATOM      5  C   UNL     1       2.835   4.606  20.010  0.00  0.00    +0.000 A 
ATOM      6  C   UNL     1       2.254   4.466  21.283  0.00  0.00    +0.000 A 
ATOM      7  C   UNL     1       1.608   3.286  21.656  0.00  0.00    +0.000 A 
ATOM      8  C   UNL     1       1.539   2.224  20.768  0.00  0.00    +0.000 A 
ATOM      9  C   UNL     1       2.131   2.337  19.510  0.00  0.00    +0.000 A 
ATOM     10  C   UNL     1       2.792   3.518  19.114  0.00  0.00    +0.000 A 
BRANCH   5  12
ATOM     11  C   UNL     1       2.660   6.817  19.144  0.00  0.00    +0.000 C 
ATOM     12  O   UNL     1       3.484   5.754  19.623  0.00  0.00    +0.000 OA
ENDBRANCH   5  12
ENDBRANCH   1  10
BRANCH   3  13
ATOM     13  N   UNL     1       5.339   3.616  16.358  0.00  0.00    +0.000 N 
ATOM     14  C   UNL     1       5.561   4.776  15.649  0.00  0.00    +0.000 C 
ATOM     15  O   UNL     1       5.268   5.896  16.070  0.00  0.00    +0.000 OA
ATOM     16  H   UNL     1       5.618   2.705  15.993  0.00  0.00    +0.000 HD
BRANCH  14  17
ATOM     17  C   UNL     1       6.185   4.581  14.302  0.00  0.00    +0.000 A 
ATOM     18  C   UNL     1       5.651   3.643  13.425  0.00  0.00    +0.000 A 
ATOM     19  C   UNL     1       6.276   3.457  12.195  0.00  0.00    +0.000 A 
ATOM     20  C   UNL     1       7.403   4.211  11.883  0.00  0.00    +0.000 A 
ATOM     21  C   UNL     1       7.860   5.131  12.815  0.00  0.00    +0.000 A 
ATOM     22  N   UNL     1       7.281   5.338  14.019  0.00  0.00    +0.000 NA
ENDBRANCH  14  17
ENDBRANCH   3  13
TORSDOF 4
ENDMDL
MODEL 3
REMARK VINA RESULT:      -7.3      0.918      1.251
REMARK  Name = 
REMARK  5 active torsions:
REMARK  status: ('A' for Active; 'I' for Inactive)
REMARK    1  A    between atoms: C_1  and  O_2
REMARK    2  A    between atoms: O_2  and  C_3
REMARK    3  A    between atoms: C_8  and  C_9
REMARK    4  A    between atoms: N_11  and  N_12
REMARK    5  A    between atoms: C_13  and  C_15
REMARK                            x       y       z     vdW  Elec       q    Type
REMARK                         _______ _______ _______ _____ _____    ______ ____
ROOT
ATOM      1  C   UNL     1       3.406   3.188  17.709  0.00  0.00    +0.000 C 
ATOM      2  O   UNL     1       2.667   3.141  16.724  0.00  0.00    +0.000 OA
ATOM      3  N   UNL     1       4.772   3.311  17.580  0.00  0.00    +0.000 N 
ATOM      4  H   UNL     1       5.406   3.327  18.381  0.00  0.00    +0.000 HD
ENDROOT
BRANCH   1  10
ATOM      5  C   UNL     1       3.464   2.548  20.216  0.00  0.00    +0.000 A 
ATOM      6  C   UNL     1       2.782   2.522  21.446  0.00  0.00    +0.000 A 
ATOM      7  C   UNL     1       1.510   3.081  21.578  0.00  0.00    +0.000 A 
ATOM      8  C   UNL     1       0.893   3.666  20.481  0.00  0.00    +0.000 A 
ATOM      9  C   UNL     1       1.545   3.678  19.249  0.00  0.00    +0.000 A 
ATOM     10  C   UNL     1       2.829   3.117  19.092  0.00  0.00    +0.000 A 
BRANCH   5  12
ATOM     11  C   UNL     1       5.217   1.246  21.164  0.00  0.00    +0.000 C 
ATOM     12  O   UNL     1       4.713   1.997  20.060  0.00  0.00    +0.000 OA
ENDBRANCH   5  12
ENDBRANCH   1  10
BRANCH   3  13
ATOM     13  N   UNL     1       5.329   3.340  16.301  0.00  0.00    +0.000 N 
ATOM     14  C   UNL     1       5.729   4.536  15.749  0.00  0.00    +0.000 C 
ATOM     15  O   UNL     1       5.622   5.619  16.325  0.00  0.00    +0.000 OA
ATOM     16  H   UNL     1       5.456   2.455  15.808  0.00  0.00    +0.000 HD
BRANCH  14  17
ATOM     17  C   UNL     1       6.304   4.432  14.370  0.00  0.00    +0.000 A 
ATOM     18  C   UNL     1       7.369   5.248  14.003  0.00  0.00    +0.000 A 
ATOM     19  C   UNL     1       7.855   5.155  12.702  0.00  0.00    +0.000 A 
ATOM     20  C   UNL     1       7.269   4.254  11.819  0.00  0.00    +0.000 A 
ATOM     21  C   UNL     1       6.217   3.473  12.273  0.00  0.00    +0.000 A 
ATOM     22  N   UNL     1       5.717   3.536  13.527  0.00  0.00    +0.000 NA
ENDBRANCH  14  17
ENDBRANCH   3  13
TORSDOF 4
ENDMDL
MODEL 4
REMARK VINA RESULT:      -7.1      1.498      2.184
REMARK  Name = 
REMARK  5 active torsions:
REMARK  status: ('A' for Active; 'I' for Inactive)
REMARK    1  A    between atoms: C_1  and  O_2
REMARK    2  A    between atoms: O_2  and  C_3
REMARK    3  A    between atoms: C_8  and  C_9
REMARK    4  A    between atoms: N_11  and  N_12
REMARK    5  A    between atoms: C_13  and  C_15
REMARK                            x       y       z     vdW  Elec       q    Type
REMARK                         _______ _______ _______ _____ _____    ______ ____
ROOT
ATOM      1  C   UNL     1       3.115   3.681  17.620  0.00  0.00    +0.000 C 
ATOM      2  O   UNL     1       2.367   3.360  16.694  0.00  0.00    +0.000 OA
ATOM      3  N   UNL     1       4.408   4.097  17.392  0.00  0.00    +0.000 N 
ATOM      4  H   UNL     1       5.053   4.344  18.144  0.00  0.00    +0.000 HD
ENDROOT
BRANCH   1  10
ATOM      5  C   UNL     1       2.714   4.689  19.970  0.00  0.00    +0.000 A 
ATOM      6  C   UNL     1       2.244   4.484  21.280  0.00  0.00    +0.000 A 
ATOM      7  C   UNL     1       1.663   3.273  21.658  0.00  0.00    +0.000 A 
ATOM      8  C   UNL     1       1.549   2.242  20.736  0.00  0.00    +0.000 A 
ATOM      9  C   UNL     1       2.032   2.419  19.441  0.00  0.00    +0.000 A 
ATOM     10  C   UNL     1       2.627   3.633  19.039  0.00  0.00    +0.000 A 
BRANCH   5  12
ATOM     11  C   UNL     1       2.432   6.999  19.468  0.00  0.00    +0.000 C 
ATOM     12  O   UNL     1       3.298   5.869  19.577  0.00  0.00    +0.000 OA
ENDBRANCH   5  12
ENDBRANCH   1  10
BRANCH   3  13
ATOM     13  N   UNL     1       4.891   4.110  16.083  0.00  0.00    +0.000 N 
ATOM     14  C   UNL     1       6.219   4.380  15.839  0.00  0.00    +0.000 C 
ATOM     15  O   UNL     1       7.037   4.622  16.727  0.00  0.00    +0.000 OA
ATOM     16  H   UNL     1       4.243   3.888  15.325  0.00  0.00    +0.000 HD
BRANCH  14  17
ATOM     17  C   UNL     1       6.608   4.372  14.393  0.00  0.00    +0.000 A 
ATOM     18  C   UNL     1       7.576   5.259  13.934  0.00  0.00    +0.000 A 
ATOM     19  C   UNL     1       7.889   5.253  12.578  0.00  0.00    +0.000 A 
ATOM     20  C   UNL     1       7.231   4.365  11.732  0.00  0.00    +0.000 A 
ATOM     21  C   UNL     1       6.286   3.509  12.278  0.00  0.00    +0.000 A 
ATOM     22  N   UNL     1       5.956   3.487  13.588  0.00  0.00    +0.000 NA
ENDBRANCH  14  17
ENDBRANCH   3  13
TORSDOF 4
ENDMDL
MODEL 5
REMARK VINA RESULT:      -6.9      4.894      8.135
REMARK  Name = 
REMARK  5 active torsions:
REMARK  status: ('A' for Active; 'I' for Inactive)
REMARK    1  A    between atoms: C_1  and  O_2
REMARK    2  A    between atoms: O_2  and  C_3
REMARK    3  A    between atoms: C_8  and  C_9
REMARK    4  A    between atoms: N_11  and  N_12
REMARK    5  A    between atoms: C_13  and  C_15
REMARK                            x       y       z     vdW  Elec       q    Type
REMARK                         _______ _______ _______ _____ _____    ______ ____
ROOT
ATOM      1  C   UNL     1       1.978   5.367  20.076  0.00  0.00    +0.000 C 
ATOM      2  O   UNL     1       1.047   4.993  20.792  0.00  0.00    +0.000 OA
ATOM      3  N   UNL     1       2.384   6.683  20.049  0.00  0.00    +0.000 N 
ATOM      4  H   UNL     1       3.136   7.020  19.446  0.00  0.00    +0.000 HD
ENDROOT
BRANCH   1  10
ATOM      5  C   UNL     1       4.100   4.369  18.981  0.00  0.00    +0.000 A 
ATOM      6  C   UNL     1       4.639   3.404  18.112  0.00  0.00    +0.000 A 
ATOM      7  C   UNL     1       3.828   2.444  17.505  0.00  0.00    +0.000 A 
ATOM      8  C   UNL     1       2.462   2.438  17.748  0.00  0.00    +0.000 A 
ATOM      9  C   UNL     1       1.907   3.403  18.588  0.00  0.00    +0.000 A 
ATOM     10  C   UNL     1       2.708   4.383  19.209  0.00  0.00    +0.000 A 
BRANCH   5  12
ATOM     11  C   UNL     1       6.239   5.399  19.159  0.00  0.00    +0.000 C 
ATOM     12  O   UNL     1       4.877   5.328  19.584  0.00  0.00    +0.000 OA
ENDBRANCH   5  12
ENDBRANCH   1  10
BRANCH   3  13
ATOM     13  N   UNL     1       1.691   7.618  20.820  0.00  0.00    +0.000 N 
ATOM     14  C   UNL     1       1.242   8.788  20.248  0.00  0.00    +0.000 C 
ATOM     15  O   UNL     1       1.418   9.076  19.064  0.00  0.00    +0.000 OA
ATOM     16  H   UNL     1       1.506   7.397  21.799  0.00  0.00    +0.000 HD
BRANCH  14  17
ATOM     17  C   UNL     1       0.520   9.709  21.182  0.00  0.00    +0.000 A 
ATOM     18  C   UNL     1      -0.057   9.201  22.341  0.00  0.00    +0.000 A 
ATOM     19  C   UNL     1      -0.754  10.076  23.170  0.00  0.00    +0.000 A 
ATOM     20  C   UNL     1      -0.847  11.419  22.818  0.00  0.00    +0.000 A 
ATOM     21  C   UNL     1      -0.232  11.839  21.648  0.00  0.00    +0.000 A 
ATOM     22  N   UNL     1       0.452  11.020  20.818  0.00  0.00    +0.000 NA
ENDBRANCH  14  17
ENDBRANCH   3  13
TORSDOF 4
ENDMDL
MODEL 6
REMARK VINA RESULT:      -6.9      5.655      7.279
REMARK  Name = 
REMARK  5 active torsions:
REMARK  status: ('A' for Active; 'I' for Inactive)
REMARK    1  A    between atoms: C_1  and  O_2
REMARK    2  A    between atoms: O_2  and  C_3
REMARK    3  A    between atoms: C_8  and  C_9
REMARK    4  A    between atoms: N_11  and  N_12
REMARK    5  A    between atoms: C_13  and  C_15
REMARK                            x       y       z     vdW  Elec       q    Type
REMARK                         _______ _______ _______ _____ _____    ______ ____
ROOT
ATOM      1  C   UNL     1       7.507   6.270  18.463  0.00  0.00    +0.000 C 
ATOM      2  O   UNL     1       8.201   5.899  19.412  0.00  0.00    +0.000 OA
ATOM      3  N   UNL     1       7.654   7.521  17.906  0.00  0.00    +0.000 N 
ATOM      4  H   UNL     1       7.074   7.859  17.137  0.00  0.00    +0.000 HD
ENDROOT
BRANCH   1  10
ATOM      5  C   UNL     1       6.371   4.999  16.516  0.00  0.00    +0.000 A 
ATOM      6  C   UNL     1       5.324   4.153  16.107  0.00  0.00    +0.000 A 
ATOM      7  C   UNL     1       4.414   3.632  17.029  0.00  0.00    +0.000 A 
ATOM      8  C   UNL     1       4.529   3.956  18.373  0.00  0.00    +0.000 A 
ATOM      9  C   UNL     1       5.546   4.812  18.792  0.00  0.00    +0.000 A 
ATOM     10  C   UNL     1       6.473   5.352  17.878  0.00  0.00    +0.000 A 
BRANCH   5  12
ATOM     11  C   UNL     1       7.223   5.021  14.293  0.00  0.00    +0.000 C 
ATOM     12  O   UNL     1       7.272   5.530  15.626  0.00  0.00    +0.000 OA
ENDBRANCH   5  12
ENDBRANCH   1  10
BRANCH   3  13
ATOM     13  N   UNL     1       8.583   8.401  18.463  0.00  0.00    +0.000 N 
ATOM     14  C   UNL     1       8.491   9.752  18.213  0.00  0.00    +0.000 C 
ATOM     15  O   UNL     1       7.616  10.253  17.505  0.00  0.00    +0.000 OA
ATOM     16  H   UNL     1       9.305   8.020  19.076  0.00  0.00    +0.000 HD
BRANCH  14  17
ATOM     17  C   UNL     1       9.551  10.587  18.862  0.00  0.00    +0.000 A 
ATOM     18  C   UNL     1       9.447  10.905  20.212  0.00  0.00    +0.000 A 
ATOM     19  C   UNL     1      10.428  11.715  20.777  0.00  0.00    +0.000 A 
ATOM     20  C   UNL     1      11.475  12.173  19.982  0.00  0.00    +0.000 A 
ATOM     21  C   UNL     1      11.503  11.798  18.647  0.00  0.00    +0.000 A 
ATOM     22  N   UNL     1      10.569  11.015  18.063  0.00  0.00    +0.000 NA
ENDBRANCH  14  17
ENDBRANCH   3  13
TORSDOF 4
ENDMDL
MODEL 7
REMARK VINA RESULT:      -6.9      5.677      7.282
REMARK  Name = 
REMARK  5 active torsions:
REMARK  status: ('A' for Active; 'I' for Inactive)
REMARK    1  A    between atoms: C_1  and  O_2
REMARK    2  A    between atoms: O_2  and  C_3
REMARK    3  A    between atoms: C_8  and  C_9
REMARK    4  A    between atoms: N_11  and  N_12
REMARK    5  A    between atoms: C_13  and  C_15
REMARK                            x       y       z     vdW  Elec       q    Type
REMARK                         _______ _______ _______ _____ _____    ______ ____
ROOT
ATOM      1  C   UNL     1       7.499   6.268  18.470  0.00  0.00    +0.000 C 
ATOM      2  O   UNL     1       8.170   5.921  19.444  0.00  0.00    +0.000 OA
ATOM      3  N   UNL     1       7.661   7.506  17.886  0.00  0.00    +0.000 N 
ATOM      4  H   UNL     1       7.101   7.825  17.095  0.00  0.00    +0.000 HD
ENDROOT
BRANCH   1  10
ATOM      5  C   UNL     1       6.407   4.953  16.527  0.00  0.00    +0.000 A 
ATOM      6  C   UNL     1       5.370   4.098  16.114  0.00  0.00    +0.000 A 
ATOM      7  C   UNL     1       4.439   3.597  17.027  0.00  0.00    +0.000 A 
ATOM      8  C   UNL     1       4.524   3.951  18.365  0.00  0.00    +0.000 A 
ATOM      9  C   UNL     1       5.531   4.817  18.788  0.00  0.00    +0.000 A 
ATOM     10  C   UNL     1       6.479   5.337  17.882  0.00  0.00    +0.000 A 
BRANCH   5  12
ATOM     11  C   UNL     1       7.219   5.029  14.290  0.00  0.00    +0.000 C 
ATOM     12  O   UNL     1       7.329   5.464  15.646  0.00  0.00    +0.000 OA
ENDBRANCH   5  12
ENDBRANCH   1  10
BRANCH   3  13
ATOM     13  N   UNL     1       8.578   8.399  18.444  0.00  0.00    +0.000 N 
ATOM     14  C   UNL     1       8.455   9.750  18.208  0.00  0.00    +0.000 C 
ATOM     15  O   UNL     1       7.564  10.241  17.515  0.00  0.00    +0.000 OA
ATOM     16  H   UNL     1       9.313   8.025  19.046  0.00  0.00    +0.000 HD
BRANCH  14  17
ATOM     17  C   UNL     1       9.505  10.600  18.857  0.00  0.00    +0.000 A 
ATOM     18  C   UNL     1      10.592  11.040  18.111  0.00  0.00    +0.000 A 
ATOM     19  C   UNL     1      11.571  11.795  18.751  0.00  0.00    +0.000 A 
ATOM     20  C   UNL     1      11.429  12.086  20.104  0.00  0.00    +0.000 A 
ATOM     21  C   UNL     1      10.306  11.613  20.768  0.00  0.00    +0.000 A 
ATOM     22  N   UNL     1       9.337  10.877  20.180  0.00  0.00    +0.000 NA
ENDBRANCH  14  17
ENDBRANCH   3  13
TORSDOF 4
ENDMDL
MODEL 8
REMARK VINA RESULT:      -6.8      4.781      8.181
REMARK  Name = 
REMARK  5 active torsions:
REMARK  status: ('A' for Active; 'I' for Inactive)
REMARK    1  A    between atoms: C_1  and  O_2
REMARK    2  A    between atoms: O_2  and  C_3
REMARK    3  A    between atoms: C_8  and  C_9
REMARK    4  A    between atoms: N_11  and  N_12
REMARK    5  A    between atoms: C_13  and  C_15
REMARK                            x       y       z     vdW  Elec       q    Type
REMARK                         _______ _______ _______ _____ _____    ______ ____
ROOT
ATOM      1  C   UNL     1       1.860   5.249  20.053  0.00  0.00    +0.000 C 
ATOM      2  O   UNL     1       0.782   4.955  20.572  0.00  0.00    +0.000 OA
ATOM      3  N   UNL     1       2.420   6.498  20.211  0.00  0.00    +0.000 N 
ATOM      4  H   UNL     1       3.300   6.772  19.770  0.00  0.00    +0.000 HD
ENDROOT
BRANCH   1  10
ATOM      5  C   UNL     1       3.327   4.517  18.051  0.00  0.00    +0.000 A 
ATOM      6  C   UNL     1       3.947   3.457  17.364  0.00  0.00    +0.000 A 
ATOM      7  C   UNL     1       3.887   2.149  17.848  0.00  0.00    +0.000 A 
ATOM      8  C   UNL     1       3.199   1.876  19.021  0.00  0.00    +0.000 A 
ATOM      9  C   UNL     1       2.559   2.911  19.702  0.00  0.00    +0.000 A 
ATOM     10  C   UNL     1       2.604   4.239  19.229  0.00  0.00    +0.000 A 
BRANCH   5  12
ATOM     11  C   UNL     1       4.662   6.378  17.402  0.00  0.00    +0.000 C 
ATOM     12  O   UNL     1       3.366   5.810  17.589  0.00  0.00    +0.000 OA
ENDBRANCH   5  12
ENDBRANCH   1  10
BRANCH   3  13
ATOM     13  N   UNL     1       1.724   7.461  20.942  0.00  0.00    +0.000 N 
ATOM     14  C   UNL     1       1.301   8.620  20.329  0.00  0.00    +0.000 C 
ATOM     15  O   UNL     1       1.504   8.873  19.142  0.00  0.00    +0.000 OA
ATOM     16  H   UNL     1       1.516   7.268  21.923  0.00  0.00    +0.000 HD
BRANCH  14  17
ATOM     17  C   UNL     1       0.571   9.575  21.224  0.00  0.00    +0.000 A 
ATOM     18  C   UNL     1       0.014   9.116  22.413  0.00  0.00    +0.000 A 
ATOM     19  C   UNL     1      -0.690  10.019  23.204  0.00  0.00    +0.000 A 
ATOM     20  C   UNL     1      -0.811  11.341  22.786  0.00  0.00    +0.000 A 
ATOM     21  C   UNL     1      -0.214  11.712  21.590  0.00  0.00    +0.000 A 
ATOM     22  N   UNL     1       0.476  10.864  20.795  0.00  0.00    +0.000 NA
ENDBRANCH  14  17
ENDBRANCH   3  13
TORSDOF 4
ENDMDL
MODEL 9
REMARK VINA RESULT:      -6.8      1.042      1.042
REMARK  Name = 
REMARK  5 active torsions:
REMARK  status: ('A' for Active; 'I' for Inactive)
REMARK    1  A    between atoms: C_1  and  O_2
REMARK    2  A    between atoms: O_2  and  C_3
REMARK    3  A    between atoms: C_8  and  C_9
REMARK    4  A    between atoms: N_11  and  N_12
REMARK    5  A    between atoms: C_13  and  C_15
REMARK                            x       y       z     vdW  Elec       q    Type
REMARK                         _______ _______ _______ _____ _____    ______ ____
ROOT
ATOM      1  C   UNL     1       3.808   4.511  17.824  0.00  0.00    +0.000 C 
ATOM      2  O   UNL     1       3.627   5.622  17.323  0.00  0.00    +0.000 OA
ATOM      3  N   UNL     1       4.550   3.543  17.183  0.00  0.00    +0.000 N 
ATOM      4  H   UNL     1       4.692   2.607  17.567  0.00  0.00    +0.000 HD
ENDROOT
BRANCH   1  10
ATOM      5  C   UNL     1       3.504   3.022  19.918  0.00  0.00    +0.000 A 
ATOM      6  C   UNL     1       2.850   2.832  21.149  0.00  0.00    +0.000 A 
ATOM      7  C   UNL     1       1.962   3.785  21.650  0.00  0.00    +0.000 A 
ATOM      8  C   UNL     1       1.705   4.940  20.926  0.00  0.00    +0.000 A 
ATOM      9  C   UNL     1       2.326   5.133  19.693  0.00  0.00    +0.000 A 
ATOM     10  C   UNL     1       3.223   4.181  19.166  0.00  0.00    +0.000 A 
BRANCH   5  12
ATOM     11  C   UNL     1       3.788   0.948  18.784  0.00  0.00    +0.000 C 
ATOM     12  O   UNL     1       4.375   2.094  19.401  0.00  0.00    +0.000 OA
ENDBRANCH   5  12
ENDBRANCH   1  10
BRANCH   3  13
ATOM     13  N   UNL     1       5.068   3.819  15.917  0.00  0.00    +0.000 N 
ATOM     14  C   UNL     1       6.383   4.206  15.779  0.00  0.00    +0.000 C 
ATOM     15  O   UNL     1       7.157   4.332  16.728  0.00  0.00    +0.000 OA
ATOM     16  H   UNL     1       4.459   3.697  15.107  0.00  0.00    +0.000 HD
BRANCH  14  17
ATOM     17  C   UNL     1       6.814   4.479  14.371  0.00  0.00    +0.000 A 
ATOM     18  C   UNL     1       6.279   3.730  13.329  0.00  0.00    +0.000 A 
ATOM     19  C   UNL     1       6.728   3.981  12.035  0.00  0.00    +0.000 A 
ATOM     20  C   UNL     1       7.687   4.967  11.828  0.00  0.00    +0.000 A 
ATOM     21  C   UNL     1       8.159   5.672  12.926  0.00  0.00    +0.000 A 
ATOM     22  N   UNL     1       7.748   5.456  14.195  0.00  0.00    +0.000 NA
ENDBRANCH  14  17
ENDBRANCH   3  13
TORSDOF 4
ENDMDL
