MODEL 1
REMARK VINA RESULT:      -7.0      0.000      0.000
REMARK  Name = 
REMARK  4 active torsions:
REMARK  status: ('A' for Active; 'I' for Inactive)
REMARK    1  A    between atoms: C_1  and  C_2
REMARK    2  A    between atoms: C_5  and  C_6
REMARK    3  A    between atoms: N_11  and  C_12
REMARK    4  A    between atoms: C_12  and  C_13
REMARK                            x       y       z     vdW  Elec       q    Type
REMARK                         _______ _______ _______ _____ _____    ______ ____
ROOT
ATOM      1  C   UNL     1       0.368   8.711  20.854  0.00  0.00    +0.000 C 
ATOM      2  O   UNL     1      -0.267   8.330  21.843  0.00  0.00    +0.000 OA
ATOM      3  N   UNL     1       1.402   7.908  20.346  0.00  0.00    +0.000 N 
ATOM      4  C   UNL     1       1.718   6.639  21.011  0.00  0.00    +0.000 C 
ATOM      5  C   UNL     1       1.804   5.467  20.005  0.00  0.00    +0.000 C 
ATOM      6  N   UNL     1       2.659   5.719  18.817  0.00  0.00    +0.000 NA
ATOM      7  C   UNL     1       2.226   6.990  18.198  0.00  0.00    +0.000 C 
ATOM      8  C   UNL     1       2.214   8.194  19.157  0.00  0.00    +0.000 C 
ENDROOT
BRANCH   1  13
ATOM      9  C   UNL     1      -1.653  11.968  17.742  0.00  0.00    +0.000 C 
ATOM     10  C   UNL     1      -0.803  11.490  18.857  0.00  0.00    +0.000 A 
ATOM     11  N   UNL     1       0.017  12.328  19.495  0.00  0.00    +0.000 NA
ATOM     12  S   UNL     1       0.870  11.405  20.598  0.00  0.00    +0.000 S 
ATOM     13  C   UNL     1       0.041   9.962  20.186  0.00  0.00    +0.000 A 
ATOM     14  N   UNL     1      -0.840  10.148  19.220  0.00  0.00    +0.000 NA
ENDBRANCH   1  13
BRANCH   6  15
ATOM     15  C   UNL     1       4.085   5.707  19.198  0.00  0.00    +0.000 C 
BRANCH  15  16
ATOM     16  C   UNL     1       5.054   5.585  18.039  0.00  0.00    +0.000 A 
ATOM     17  C   UNL     1       6.322   6.208  18.092  0.00  0.00    +0.000 A 
ATOM     18  C   UNL     1       7.207   6.137  17.007  0.00  0.00    +0.000 A 
ATOM     19  C   UNL     1       6.803   5.431  15.896  0.00  0.00    +0.000 A 
ATOM     20  C   UNL     1       5.579   4.810  15.838  0.00  0.00    +0.000 A 
ATOM     21  C   UNL     1       4.684   4.869  16.885  0.00  0.00    +0.000 A 
ATOM     22  O   UNL     1       5.379   4.162  14.660  0.00  0.00    +0.000 OA
ATOM     23  C   UNL     1       6.628   4.433  13.988  0.00  0.00    +0.000 C 
ATOM     24  O   UNL     1       7.525   5.261  14.755  0.00  0.00    +0.000 OA
ENDBRANCH  15  16
ENDBRANCH   6  15
TORSDOF 3
ENDMDL
MODEL 2
REMARK VINA RESULT:      -6.9      1.186      1.353
REMARK  Name = 
REMARK  4 active torsions:
REMARK  status: ('A' for Active; 'I' for Inactive)
REMARK    1  A    between atoms: C_1  and  C_2
REMARK    2  A    between atoms: C_5  and  C_6
REMARK    3  A    between atoms: N_11  and  C_12
REMARK    4  A    between atoms: C_12  and  C_13
REMARK                            x       y       z     vdW  Elec       q    Type
REMARK                         _______ _______ _______ _____ _____    ______ ____
ROOT
ATOM      1  C   UNL     1       0.824   8.377  20.954  0.00  0.00    +0.000 C 
ATOM      2  O   UNL     1       0.071   8.013  21.864  0.00  0.00    +0.000 OA
ATOM      3  N   UNL     1       1.691   7.447  20.361  0.00  0.00    +0.000 N 
ATOM      4  C   UNL     1       1.699   6.062  20.846  0.00  0.00    +0.000 C 
ATOM      5  C   UNL     1       1.591   5.044  19.686  0.00  0.00    +0.000 C 
ATOM      6  N   UNL     1       2.541   5.263  18.566  0.00  0.00    +0.000 NA
ATOM      7  C   UNL     1       2.417   6.669  18.124  0.00  0.00    +0.000 C 
ATOM      8  C   UNL     1       2.608   7.708  19.244  0.00  0.00    +0.000 C 
ENDROOT
BRANCH   1  13
ATOM      9  C   UNL     1       1.287  13.289  20.759  0.00  0.00    +0.000 C 
ATOM     10  C   UNL     1       0.975  11.927  20.270  0.00  0.00    +0.000 A 
ATOM     11  N   UNL     1       0.443  11.742  19.059  0.00  0.00    +0.000 NA
ATOM     12  S   UNL     1       0.144  10.103  18.920  0.00  0.00    +0.000 S 
ATOM     13  C   UNL     1       0.801   9.748  20.463  0.00  0.00    +0.000 A 
ATOM     14  N   UNL     1       1.213  10.832  21.095  0.00  0.00    +0.000 NA
ENDBRANCH   1  13
BRANCH   6  15
ATOM     15  C   UNL     1       3.911   4.895  18.974  0.00  0.00    +0.000 C 
BRANCH  15  16
ATOM     16  C   UNL     1       4.959   5.028  17.887  0.00  0.00    +0.000 A 
ATOM     17  C   UNL     1       6.116   5.813  18.094  0.00  0.00    +0.000 A 
ATOM     18  C   UNL     1       7.068   5.976  17.078  0.00  0.00    +0.000 A 
ATOM     19  C   UNL     1       6.842   5.337  15.879  0.00  0.00    +0.000 A 
ATOM     20  C   UNL     1       5.728   4.560  15.671  0.00  0.00    +0.000 A 
ATOM     21  C   UNL     1       4.770   4.388  16.647  0.00  0.00    +0.000 A 
ATOM     22  O   UNL     1       5.700   4.014  14.426  0.00  0.00    +0.000 OA
ATOM     23  C   UNL     1       6.935   4.524  13.880  0.00  0.00    +0.000 C 
ATOM     24  O   UNL     1       7.652   5.386  14.786  0.00  0.00    +0.000 OA
ENDBRANCH  15  16
ENDBRANCH   6  15
TORSDOF 3
ENDMDL
MODEL 3
REMARK VINA RESULT:      -6.5      3.309      8.531
REMARK  Name = 
REMARK  4 active torsions:
REMARK  status: ('A' for Active; 'I' for Inactive)
REMARK    1  A    between atoms: C_1  and  C_2
REMARK    2  A    between atoms: C_5  and  C_6
REMARK    3  A    between atoms: N_11  and  C_12
REMARK    4  A    between atoms: C_12  and  C_13
REMARK                            x       y       z     vdW  Elec       q    Type
REMARK                         _______ _______ _______ _____ _____    ______ ____
ROOT
ATOM      1  C   UNL     1       4.007   3.967  17.031  0.00  0.00    +0.000 C 
ATOM      2  O   UNL     1       3.572   2.821  17.186  0.00  0.00    +0.000 OA
ATOM      3  N   UNL     1       3.371   5.040  17.674  0.00  0.00    +0.000 N 
ATOM      4  C   UNL     1       2.189   4.781  18.504  0.00  0.00    +0.000 C 
ATOM      5  C   UNL     1       2.303   5.452  19.894  0.00  0.00    +0.000 C 
ATOM      6  N   UNL     1       2.681   6.888  19.870  0.00  0.00    +0.000 NA
ATOM      7  C   UNL     1       3.904   7.029  19.050  0.00  0.00    +0.000 C 
ATOM      8  C   UNL     1       3.790   6.446  17.629  0.00  0.00    +0.000 C 
ENDROOT
BRANCH   1  13
ATOM      9  C   UNL     1       6.981   4.494  13.124  0.00  0.00    +0.000 C 
ATOM     10  C   UNL     1       6.593   4.483  14.553  0.00  0.00    +0.000 A 
ATOM     11  N   UNL     1       7.505   4.678  15.509  0.00  0.00    +0.000 NA
ATOM     12  S   UNL     1       6.709   4.489  16.966  0.00  0.00    +0.000 S 
ATOM     13  C   UNL     1       5.190   4.219  16.220  0.00  0.00    +0.000 A 
ATOM     14  N   UNL     1       5.268   4.237  14.902  0.00  0.00    +0.000 NA
ENDBRANCH   1  13
BRANCH   6  15
ATOM     15  C   UNL     1       1.554   7.709  19.387  0.00  0.00    +0.000 C 
BRANCH  15  16
ATOM     16  C   UNL     1       1.029   8.722  20.385  0.00  0.00    +0.000 A 
ATOM     17  C   UNL     1       0.809   8.357  21.734  0.00  0.00    +0.000 A 
ATOM     18  C   UNL     1       0.282   9.275  22.652  0.00  0.00    +0.000 A 
ATOM     19  C   UNL     1      -0.002  10.544  22.199  0.00  0.00    +0.000 A 
ATOM     20  C   UNL     1       0.221  10.914  20.894  0.00  0.00    +0.000 A 
ATOM     21  C   UNL     1       0.729  10.032  19.966  0.00  0.00    +0.000 A 
ATOM     22  O   UNL     1      -0.118  12.209  20.656  0.00  0.00    +0.000 OA
ATOM     23  C   UNL     1      -0.564  12.617  21.967  0.00  0.00    +0.000 C 
ATOM     24  O   UNL     1      -0.519  11.559  22.944  0.00  0.00    +0.000 OA
ENDBRANCH  15  16
ENDBRANCH   6  15
TORSDOF 3
ENDMDL
MODEL 4
REMARK VINA RESULT:      -6.5      3.842      9.719
REMARK  Name = 
REMARK  4 active torsions:
REMARK  status: ('A' for Active; 'I' for Inactive)
REMARK    1  A    between atoms: C_1  and  C_2
REMARK    2  A    between atoms: C_5  and  C_6
REMARK    3  A    between atoms: N_11  and  C_12
REMARK    4  A    between atoms: C_12  and  C_13
REMARK                            x       y       z     vdW  Elec       q    Type
REMARK                         _______ _______ _______ _____ _____    ______ ____
ROOT
ATOM      1  C   UNL     1       2.407   7.422  18.686  0.00  0.00    +0.000 C 
ATOM      2  O   UNL     1       2.643   7.692  17.504  0.00  0.00    +0.000 OA
ATOM      3  N   UNL     1       1.800   8.385  19.507  0.00  0.00    +0.000 N 
ATOM      4  C   UNL     1       1.471   9.701  18.947  0.00  0.00    +0.000 C 
ATOM      5  C   UNL     1       0.014  10.114  19.262  0.00  0.00    +0.000 C 
ATOM      6  N   UNL     1      -0.383   9.983  20.687  0.00  0.00    +0.000 NA
ATOM      7  C   UNL     1      -0.054   8.611  21.134  0.00  0.00    +0.000 C 
ATOM      8  C   UNL     1       1.414   8.204  20.912  0.00  0.00    +0.000 C 
ENDROOT
BRANCH   1  13
ATOM      9  C   UNL     1       1.943   3.079  20.990  0.00  0.00    +0.000 C 
ATOM     10  C   UNL     1       2.616   4.156  20.229  0.00  0.00    +0.000 A 
ATOM     11  N   UNL     1       3.918   4.075  19.941  0.00  0.00    +0.000 NA
ATOM     12  S   UNL     1       4.322   5.507  19.180  0.00  0.00    +0.000 S 
ATOM     13  C   UNL     1       2.718   6.109  19.234  0.00  0.00    +0.000 A 
ATOM     14  N   UNL     1       1.890   5.276  19.837  0.00  0.00    +0.000 NA
ENDBRANCH   1  13
BRANCH   6  15
ATOM     15  C   UNL     1       0.259  11.034  21.499  0.00  0.00    +0.000 C 
BRANCH  15  16
ATOM     16  C   UNL     1      -0.700  11.948  22.235  0.00  0.00    +0.000 A 
ATOM     17  C   UNL     1      -0.438  13.334  22.339  0.00  0.00    +0.000 A 
ATOM     18  C   UNL     1      -1.297  14.178  23.056  0.00  0.00    +0.000 A 
ATOM     19  C   UNL     1      -2.407  13.614  23.644  0.00  0.00    +0.000 A 
ATOM     20  C   UNL     1      -2.680  12.271  23.537  0.00  0.00    +0.000 A 
ATOM     21  C   UNL     1      -1.850  11.414  22.848  0.00  0.00    +0.000 A 
ATOM     22  O   UNL     1      -3.825  11.920  24.181  0.00  0.00    +0.000 OA
ATOM     23  C   UNL     1      -4.252  13.202  24.690  0.00  0.00    +0.000 C 
ATOM     24  O   UNL     1      -3.344  14.277  24.377  0.00  0.00    +0.000 OA
ENDBRANCH  15  16
ENDBRANCH   6  15
TORSDOF 3
ENDMDL
MODEL 5
REMARK VINA RESULT:      -6.4      1.288      1.388
REMARK  Name = 
REMARK  4 active torsions:
REMARK  status: ('A' for Active; 'I' for Inactive)
REMARK    1  A    between atoms: C_1  and  C_2
REMARK    2  A    between atoms: C_5  and  C_6
REMARK    3  A    between atoms: N_11  and  C_12
REMARK    4  A    between atoms: C_12  and  C_13
REMARK                            x       y       z     vdW  Elec       q    Type
REMARK                         _______ _______ _______ _____ _____    ______ ____
ROOT
ATOM      1  C   UNL     1       1.057   7.946  20.755  0.00  0.00    +0.000 C 
ATOM      2  O   UNL     1       0.348   7.665  21.727  0.00  0.00    +0.000 OA
ATOM      3  N   UNL     1       1.879   6.959  20.190  0.00  0.00    +0.000 N 
ATOM      4  C   UNL     1       1.891   5.614  20.777  0.00  0.00    +0.000 C 
ATOM      5  C   UNL     1       1.707   4.515  19.703  0.00  0.00    +0.000 C 
ATOM      6  N   UNL     1       2.602   4.633  18.523  0.00  0.00    +0.000 NA
ATOM      7  C   UNL     1       2.476   6.004  17.984  0.00  0.00    +0.000 C 
ATOM      8  C   UNL     1       2.739   7.120  19.012  0.00  0.00    +0.000 C 
ENDROOT
BRANCH   1  13
ATOM      9  C   UNL     1       2.195  11.852  17.956  0.00  0.00    +0.000 C 
ATOM     10  C   UNL     1       1.449  11.066  18.965  0.00  0.00    +0.000 A 
ATOM     11  N   UNL     1       0.472  11.629  19.681  0.00  0.00    +0.000 NA
ATOM     12  S   UNL     1      -0.045  10.469  20.768  0.00  0.00    +0.000 S 
ATOM     13  C   UNL     1       1.029   9.277  20.165  0.00  0.00    +0.000 A 
ATOM     14  N   UNL     1       1.790   9.736  19.187  0.00  0.00    +0.000 NA
ENDBRANCH   1  13
BRANCH   6  15
ATOM     15  C   UNL     1       3.985   4.271  18.888  0.00  0.00    +0.000 C 
BRANCH  15  16
ATOM     16  C   UNL     1       5.023   4.565  17.824  0.00  0.00    +0.000 A 
ATOM     17  C   UNL     1       6.133   5.394  18.110  0.00  0.00    +0.000 A 
ATOM     18  C   UNL     1       7.074   5.707  17.120  0.00  0.00    +0.000 A 
ATOM     19  C   UNL     1       6.887   5.171  15.865  0.00  0.00    +0.000 A 
ATOM     20  C   UNL     1       5.820   4.353  15.579  0.00  0.00    +0.000 A 
ATOM     21  C   UNL     1       4.874   4.034  16.529  0.00  0.00    +0.000 A 
ATOM     22  O   UNL     1       5.825   3.924  14.288  0.00  0.00    +0.000 OA
ATOM     23  C   UNL     1       7.028   4.554  13.799  0.00  0.00    +0.000 C 
ATOM     24  O   UNL     1       7.693   5.368  14.786  0.00  0.00    +0.000 OA
ENDBRANCH  15  16
ENDBRANCH   6  15
TORSDOF 3
ENDMDL
MODEL 6
REMARK VINA RESULT:      -6.4      1.604      1.758
REMARK  Name = 
REMARK  4 active torsions:
REMARK  status: ('A' for Active; 'I' for Inactive)
REMARK    1  A    between atoms: C_1  and  C_2
REMARK    2  A    between atoms: C_5  and  C_6
REMARK    3  A    between atoms: N_11  and  C_12
REMARK    4  A    between atoms: C_12  and  C_13
REMARK                            x       y       z     vdW  Elec       q    Type
REMARK                         _______ _______ _______ _____ _____    ______ ____
ROOT
ATOM      1  C   UNL     1       1.496   7.688  20.441  0.00  0.00    +0.000 C 
ATOM      2  O   UNL     1       0.870   7.594  21.502  0.00  0.00    +0.000 OA
ATOM      3  N   UNL     1       2.230   6.587  19.972  0.00  0.00    +0.000 N 
ATOM      4  C   UNL     1       2.252   5.350  20.761  0.00  0.00    +0.000 C 
ATOM      5  C   UNL     1       1.935   4.108  19.894  0.00  0.00    +0.000 C 
ATOM      6  N   UNL     1       2.721   4.000  18.639  0.00  0.00    +0.000 NA
ATOM      7  C   UNL     1       2.592   5.276  17.902  0.00  0.00    +0.000 C 
ATOM      8  C   UNL     1       2.985   6.524  18.714  0.00  0.00    +0.000 C 
ENDROOT
BRANCH   1  13
ATOM      9  C   UNL     1       0.611  12.346  19.063  0.00  0.00    +0.000 C 
ATOM     10  C   UNL     1       1.121  10.961  18.945  0.00  0.00    +0.000 A 
ATOM     11  N   UNL     1       1.678  10.534  17.809  0.00  0.00    +0.000 NA
ATOM     12  S   UNL     1       2.023   8.913  18.033  0.00  0.00    +0.000 S 
ATOM     13  C   UNL     1       1.459   8.911  19.651  0.00  0.00    +0.000 A 
ATOM     14  N   UNL     1       0.989  10.089  20.021  0.00  0.00    +0.000 NA
ENDBRANCH   1  13
BRANCH   6  15
ATOM     15  C   UNL     1       4.120   3.634  18.937  0.00  0.00    +0.000 C 
BRANCH  15  16
ATOM     16  C   UNL     1       5.131   4.075  17.898  0.00  0.00    +0.000 A 
ATOM     17  C   UNL     1       6.280   4.807  18.276  0.00  0.00    +0.000 A 
ATOM     18  C   UNL     1       7.197   5.256  17.315  0.00  0.00    +0.000 A 
ATOM     19  C   UNL     1       6.946   4.951  15.996  0.00  0.00    +0.000 A 
ATOM     20  C   UNL     1       5.839   4.228  15.619  0.00  0.00    +0.000 A 
ATOM     21  C   UNL     1       4.915   3.781  16.538  0.00  0.00    +0.000 A 
ATOM     22  O   UNL     1       5.782   4.029  14.275  0.00  0.00    +0.000 OA
ATOM     23  C   UNL     1       6.991   4.696  13.851  0.00  0.00    +0.000 C 
ATOM     24  O   UNL     1       7.720   5.306  14.935  0.00  0.00    +0.000 OA
ENDBRANCH  15  16
ENDBRANCH   6  15
TORSDOF 3
ENDMDL
MODEL 7
REMARK VINA RESULT:      -6.4      1.279      1.803
REMARK  Name = 
REMARK  4 active torsions:
REMARK  status: ('A' for Active; 'I' for Inactive)
REMARK    1  A    between atoms: C_1  and  C_2
REMARK    2  A    between atoms: C_5  and  C_6
REMARK    3  A    between atoms: N_11  and  C_12
REMARK    4  A    between atoms: C_12  and  C_13
REMARK                            x       y       z     vdW  Elec       q    Type
REMARK                         _______ _______ _______ _____ _____    ______ ____
ROOT
ATOM      1  C   UNL     1       0.428   9.732  20.658  0.00  0.00    +0.000 C 
ATOM      2  O   UNL     1       0.024   9.624  21.821  0.00  0.00    +0.000 OA
ATOM      3  N   UNL     1       1.330   8.784  20.150  0.00  0.00    +0.000 N 
ATOM      4  C   UNL     1       1.787   7.691  21.016  0.00  0.00    +0.000 C 
ATOM      5  C   UNL     1       1.658   6.314  20.323  0.00  0.00    +0.000 C 
ATOM      6  N   UNL     1       2.234   6.240  18.957  0.00  0.00    +0.000 NA
ATOM      7  C   UNL     1       1.672   7.351  18.158  0.00  0.00    +0.000 C 
ATOM      8  C   UNL     1       1.864   8.745  18.783  0.00  0.00    +0.000 C 
ENDROOT
BRANCH   1  13
ATOM      9  C   UNL     1      -0.131  14.195  18.621  0.00  0.00    +0.000 C 
ATOM     10  C   UNL     1      -0.360  12.745  18.818  0.00  0.00    +0.000 A 
ATOM     11  N   UNL     1      -1.296  12.102  18.115  0.00  0.00    +0.000 NA
ATOM     12  S   UNL     1      -1.322  10.532  18.691  0.00  0.00    +0.000 S 
ATOM     13  C   UNL     1      -0.041  10.807  19.796  0.00  0.00    +0.000 A 
ATOM     14  N   UNL     1       0.387  12.056  19.767  0.00  0.00    +0.000 NA
ENDBRANCH   1  13
BRANCH   6  15
ATOM     15  C   UNL     1       3.708   6.249  19.019  0.00  0.00    +0.000 C 
BRANCH  15  16
ATOM     16  C   UNL     1       4.401   5.583  17.847  0.00  0.00    +0.000 A 
ATOM     17  C   UNL     1       3.937   4.345  17.345  0.00  0.00    +0.000 A 
ATOM     18  C   UNL     1       4.598   3.701  16.290  0.00  0.00    +0.000 A 
ATOM     19  C   UNL     1       5.706   4.320  15.755  0.00  0.00    +0.000 A 
ATOM     20  C   UNL     1       6.158   5.529  16.225  0.00  0.00    +0.000 A 
ATOM     21  C   UNL     1       5.535   6.183  17.266  0.00  0.00    +0.000 A 
ATOM     22  O   UNL     1       7.257   5.970  15.556  0.00  0.00    +0.000 OA
ATOM     23  C   UNL     1       7.434   4.905  14.598  0.00  0.00    +0.000 C 
ATOM     24  O   UNL     1       6.470   3.841  14.735  0.00  0.00    +0.000 OA
ENDBRANCH  15  16
ENDBRANCH   6  15
TORSDOF 3
ENDMDL
MODEL 8
REMARK VINA RESULT:      -6.3      3.082      4.561
REMARK  Name = 
REMARK  4 active torsions:
REMARK  status: ('A' for Active; 'I' for Inactive)
REMARK    1  A    between atoms: C_1  and  C_2
REMARK    2  A    between atoms: C_5  and  C_6
REMARK    3  A    between atoms: N_11  and  C_12
REMARK    4  A    between atoms: C_12  and  C_13
REMARK                            x       y       z     vdW  Elec       q    Type
REMARK                         _______ _______ _______ _____ _____    ______ ____
ROOT
ATOM      1  C   UNL     1      -1.364  11.741  20.670  0.00  0.00    +0.000 C 
ATOM      2  O   UNL     1      -1.584  12.228  19.556  0.00  0.00    +0.000 OA
ATOM      3  N   UNL     1      -0.703  10.507  20.767  0.00  0.00    +0.000 N 
ATOM      4  C   UNL     1      -0.301   9.810  19.539  0.00  0.00    +0.000 C 
ATOM      5  C   UNL     1       1.178   9.357  19.591  0.00  0.00    +0.000 C 
ATOM      6  N   UNL     1       1.568   8.621  20.820  0.00  0.00    +0.000 NA
ATOM      7  C   UNL     1       1.162   9.430  21.990  0.00  0.00    +0.000 C 
ATOM      8  C   UNL     1      -0.326   9.822  22.009  0.00  0.00    +0.000 C 
ENDROOT
BRANCH   1  13
ATOM      9  C   UNL     1      -3.975  13.248  24.581  0.00  0.00    +0.000 C 
ATOM     10  C   UNL     1      -2.822  13.175  23.655  0.00  0.00    +0.000 A 
ATOM     11  N   UNL     1      -1.770  13.983  23.811  0.00  0.00    +0.000 NA
ATOM     12  S   UNL     1      -0.744  13.676  22.528  0.00  0.00    +0.000 S 
ATOM     13  C   UNL     1      -1.748  12.443  21.887  0.00  0.00    +0.000 A 
ATOM     14  N   UNL     1      -2.851  12.275  22.594  0.00  0.00    +0.000 NA
ENDBRANCH   1  13
BRANCH   6  15
ATOM     15  C   UNL     1       0.985   7.265  20.814  0.00  0.00    +0.000 C 
BRANCH  15  16
ATOM     16  C   UNL     1       1.928   6.168  20.360  0.00  0.00    +0.000 A 
ATOM     17  C   UNL     1       1.744   4.835  20.796  0.00  0.00    +0.000 A 
ATOM     18  C   UNL     1       2.637   3.823  20.417  0.00  0.00    +0.000 A 
ATOM     19  C   UNL     1       3.688   4.169  19.597  0.00  0.00    +0.000 A 
ATOM     20  C   UNL     1       3.868   5.458  19.156  0.00  0.00    +0.000 A 
ATOM     21  C   UNL     1       3.013   6.477  19.519  0.00  0.00    +0.000 A 
ATOM     22  O   UNL     1       4.958   5.585  18.352  0.00  0.00    +0.000 OA
ATOM     23  C   UNL     1       5.434   4.223  18.325  0.00  0.00    +0.000 C 
ATOM     24  O   UNL     1       4.649   3.324  19.134  0.00  0.00    +0.000 OA
ENDBRANCH  15  16
ENDBRANCH   6  15
TORSDOF 3
ENDMDL
MODEL 9
REMARK VINA RESULT:      -6.3      1.009      1.552
REMARK  Name = 
REMARK  4 active torsions:
REMARK  status: ('A' for Active; 'I' for Inactive)
REMARK    1  A    between atoms: C_1  and  C_2
REMARK    2  A    between atoms: C_5  and  C_6
REMARK    3  A    between atoms: N_11  and  C_12
REMARK    4  A    between atoms: C_12  and  C_13
REMARK                            x       y       z     vdW  Elec       q    Type
REMARK                         _______ _______ _______ _____ _____    ______ ____
ROOT
ATOM      1  C   UNL     1       0.305   9.677  20.540  0.00  0.00    +0.000 C 
ATOM      2  O   UNL     1      -0.020   9.706  21.732  0.00  0.00    +0.000 OA
ATOM      3  N   UNL     1       1.240   8.726  20.102  0.00  0.00    +0.000 N 
ATOM      4  C   UNL     1       1.825   7.795  21.073  0.00  0.00    +0.000 C 
ATOM      5  C   UNL     1       1.752   6.329  20.582  0.00  0.00    +0.000 C 
ATOM      6  N   UNL     1       2.249   6.102  19.201  0.00  0.00    +0.000 NA
ATOM      7  C   UNL     1       1.563   7.055  18.302  0.00  0.00    +0.000 C 
ATOM      8  C   UNL     1       1.692   8.531  18.719  0.00  0.00    +0.000 C 
ENDROOT
BRANCH   1  13
ATOM      9  C   UNL     1      -2.567  11.476  16.948  0.00  0.00    +0.000 C 
ATOM     10  C   UNL     1      -1.519  11.489  17.994  0.00  0.00    +0.000 A 
ATOM     11  N   UNL     1      -0.760  12.571  18.185  0.00  0.00    +0.000 NA
ATOM     12  S   UNL     1       0.357  12.163  19.360  0.00  0.00    +0.000 S 
ATOM     13  C   UNL     1      -0.291  10.591  19.575  0.00  0.00    +0.000 A 
ATOM     14  N   UNL     1      -1.306  10.351  18.765  0.00  0.00    +0.000 NA
ENDBRANCH   1  13
BRANCH   6  15
ATOM     15  C   UNL     1       3.720   6.212  19.160  0.00  0.00    +0.000 C 
BRANCH  15  16
ATOM     16  C   UNL     1       4.380   5.511  17.989  0.00  0.00    +0.000 A 
ATOM     17  C   UNL     1       4.006   4.194  17.635  0.00  0.00    +0.000 A 
ATOM     18  C   UNL     1       4.642   3.523  16.581  0.00  0.00    +0.000 A 
ATOM     19  C   UNL     1       5.633   4.193  15.899  0.00  0.00    +0.000 A 
ATOM     20  C   UNL     1       5.995   5.478  16.225  0.00  0.00    +0.000 A 
ATOM     21  C   UNL     1       5.395   6.161  17.261  0.00  0.00    +0.000 A 
ATOM     22  O   UNL     1       6.984   5.959  15.425  0.00  0.00    +0.000 OA
ATOM     23  C   UNL     1       7.191   4.832  14.545  0.00  0.00    +0.000 C 
ATOM     24  O   UNL     1       6.356   3.699  14.857  0.00  0.00    +0.000 OA
ENDBRANCH  15  16
ENDBRANCH   6  15
TORSDOF 3
ENDMDL
