MODEL 1
REMARK VINA RESULT:      -5.1      0.000      0.000
REMARK  Name = 
REMARK  16 active torsions:
REMARK  status: ('A' for Active; 'I' for Inactive)
REMARK    1  A    between atoms: C_1  and  C_2
REMARK    2  A    between atoms: C_2  and  C_3
REMARK    3  A    between atoms: C_3  and  C_4
REMARK    4  A    between atoms: C_4  and  O_5
REMARK    5  A    between atoms: O_5  and  C_6
REMARK    6  A    between atoms: C_6  and  C_8
REMARK    7  A    between atoms: C_9  and  C_10
REMARK    8  A    between atoms: C_12  and  C_13
REMARK    9  A    between atoms: C_14  and  C_15
REMARK   10  A    between atoms: N_17  and  C_18
REMARK   11  A    between atoms: N_17  and  C_20
REMARK   12  A    between atoms: C_18  and  C_19
REMARK   13  A    between atoms: C_20  and  C_21
REMARK   14  A    between atoms: C_22  and  C_23
REMARK   15  A    between atoms: C_26  and  N_27
REMARK   16  A    between atoms: N_30  and  C_31
REMARK                            x       y       z     vdW  Elec       q    Type
REMARK                         _______ _______ _______ _____ _____    ______ ____
ROOT
ATOM      1  C   UNL     1      -1.395  11.473  19.118  0.00  0.00    +0.000 C 
ATOM      2  C   UNL     1      -2.308  11.290  18.130  0.00  0.00    +0.000 C 
ATOM      3  C   UNL     1      -2.159  10.452  16.879  0.00  0.00    +0.000 C 
ATOM      4  N   UNL     1      -3.549  11.885  18.283  0.00  0.00    +0.000 N 
ATOM      5  C   UNL     1      -4.050  12.359  19.496  0.00  0.00    +0.000 C 
ATOM      6  C   UNL     1      -5.528  12.685  19.454  0.00  0.00    +0.000 C 
ATOM      7  C   UNL     1      -3.218  12.575  20.562  0.00  0.00    +0.000 C 
ATOM      8  C   UNL     1      -1.724  12.431  20.280  0.00  0.00    +0.000 C 
ATOM      9  H   UNL     1      -4.240  11.648  17.572  0.00  0.00    +0.000 HD
ENDROOT
BRANCH   8  10
ATOM     10  C   UNL     1      -0.927  13.732  20.156  0.00  0.00    +0.000 A 
ATOM     11  N   UNL     1      -0.764  14.350  18.995  0.00  0.00    +0.000 NA
ATOM     12  C   UNL     1       0.072  15.402  19.227  0.00  0.00    +0.000 A 
ATOM     13  C   UNL     1       0.431  15.438  20.548  0.00  0.00    +0.000 A 
ATOM     14  N   UNL     1      -0.284  14.442  21.171  0.00  0.00    +0.000 N 
ATOM     15  C   UNL     1      -0.412  14.188  22.587  0.00  0.00    +0.000 C 
BRANCH  13  16
ATOM     16  N   UNL     1       1.374  16.320  21.147  0.00  0.00    +0.000 N 
ATOM     17  O   UNL     1       0.942  17.427  21.493  0.00  0.00    +0.000 OA
ATOM     18  O   UNL     1       2.546  15.948  21.252  0.00  0.00    +0.000 OA
ENDBRANCH  13  16
ENDBRANCH   8  10
BRANCH   7  19
ATOM     19  C   UNL     1      -3.761  13.147  21.862  0.00  0.00    +0.000 C 
ATOM     20  O   UNL     1      -4.076  12.319  22.733  0.00  0.00    +0.000 OA
ATOM     21  N   UNL     1      -3.976  14.494  22.164  0.00  0.00    +0.000 N 
BRANCH  21  22
ATOM     22  C   UNL     1      -3.641  15.706  21.406  0.00  0.00    +0.000 C 
ATOM     23  C   UNL     1      -4.807  16.171  20.538  0.00  0.00    +0.000 C 
ENDBRANCH  21  22
BRANCH  21  24
ATOM     24  C   UNL     1      -4.575  14.772  23.487  0.00  0.00    +0.000 C 
ATOM     25  C   UNL     1      -3.846  15.865  24.263  0.00  0.00    +0.000 C 
ENDBRANCH  21  24
ENDBRANCH   7  19
BRANCH   1  26
ATOM     26  C   UNL     1      -0.137  10.677  19.205  0.00  0.00    +0.000 C 
ATOM     27  O   UNL     1       0.902  10.876  18.595  0.00  0.00    +0.000 OA
BRANCH  26  28
ATOM     28  O   UNL     1      -0.400   9.548  19.907  0.00  0.00    +0.000 OA
BRANCH  28  29
ATOM     29  C   UNL     1       0.697   9.034  20.659  0.00  0.00    +0.000 C 
BRANCH  29  30
ATOM     30  C   UNL     1       0.936   9.896  21.882  0.00  0.00    +0.000 C 
BRANCH  30  32
ATOM     31  C   UNL     1      -1.094  10.501  23.229  0.00  0.00    +0.000 C 
ATOM     32  C   UNL     1       0.003   9.477  23.014  0.00  0.00    +0.000 C 
ENDBRANCH  30  32
ENDBRANCH  29  30
ENDBRANCH  28  29
ENDBRANCH  26  28
ENDBRANCH   1  26
TORSDOF 10
ENDMDL
MODEL 2
REMARK VINA RESULT:      -5.0      1.763      2.268
REMARK  Name = 
REMARK  16 active torsions:
REMARK  status: ('A' for Active; 'I' for Inactive)
REMARK    1  A    between atoms: C_1  and  C_2
REMARK    2  A    between atoms: C_2  and  C_3
REMARK    3  A    between atoms: C_3  and  C_4
REMARK    4  A    between atoms: C_4  and  O_5
REMARK    5  A    between atoms: O_5  and  C_6
REMARK    6  A    between atoms: C_6  and  C_8
REMARK    7  A    between atoms: C_9  and  C_10
REMARK    8  A    between atoms: C_12  and  C_13
REMARK    9  A    between atoms: C_14  and  C_15
REMARK   10  A    between atoms: N_17  and  C_18
REMARK   11  A    between atoms: N_17  and  C_20
REMARK   12  A    between atoms: C_18  and  C_19
REMARK   13  A    between atoms: C_20  and  C_21
REMARK   14  A    between atoms: C_22  and  C_23
REMARK   15  A    between atoms: C_26  and  N_27
REMARK   16  A    between atoms: N_30  and  C_31
REMARK                            x       y       z     vdW  Elec       q    Type
REMARK                         _______ _______ _______ _____ _____    ______ ____
ROOT
ATOM      1  C   UNL     1      -0.399  12.198  19.444  0.00  0.00    +0.000 C 
ATOM      2  C   UNL     1      -1.441  11.700  18.732  0.00  0.00    +0.000 C 
ATOM      3  C   UNL     1      -1.414  10.577  17.718  0.00  0.00    +0.000 C 
ATOM      4  N   UNL     1      -2.699  12.224  18.978  0.00  0.00    +0.000 N 
ATOM      5  C   UNL     1      -3.034  12.962  20.114  0.00  0.00    +0.000 C 
ATOM      6  C   UNL     1      -4.525  13.161  20.288  0.00  0.00    +0.000 C 
ATOM      7  C   UNL     1      -2.061  13.508  20.909  0.00  0.00    +0.000 C 
ATOM      8  C   UNL     1      -0.633  13.401  20.379  0.00  0.00    +0.000 C 
ATOM      9  H   UNL     1      -3.470  11.762  18.498  0.00  0.00    +0.000 HD
ENDROOT
BRANCH   8  10
ATOM     10  C   UNL     1      -0.029  14.677  19.787  0.00  0.00    +0.000 A 
ATOM     11  N   UNL     1      -0.716  15.470  18.976  0.00  0.00    +0.000 NA
ATOM     12  C   UNL     1       0.145  16.443  18.560  0.00  0.00    +0.000 A 
ATOM     13  C   UNL     1       1.380  16.251  19.121  0.00  0.00    +0.000 A 
ATOM     14  N   UNL     1       1.252  15.192  19.989  0.00  0.00    +0.000 N 
ATOM     15  C   UNL     1       2.207  14.716  20.961  0.00  0.00    +0.000 C 
BRANCH  13  16
ATOM     16  N   UNL     1       2.562  16.993  18.840  0.00  0.00    +0.000 N 
ATOM     17  O   UNL     1       3.249  16.587  17.893  0.00  0.00    +0.000 OA
ATOM     18  O   UNL     1       2.841  17.954  19.562  0.00  0.00    +0.000 OA
ENDBRANCH  13  16
ENDBRANCH   8  10
BRANCH   7  19
ATOM     19  C   UNL     1      -2.434  14.360  22.111  0.00  0.00    +0.000 C 
ATOM     20  O   UNL     1      -2.357  15.590  21.951  0.00  0.00    +0.000 OA
ATOM     21  N   UNL     1      -2.814  13.910  23.377  0.00  0.00    +0.000 N 
BRANCH  21  22
ATOM     22  C   UNL     1      -3.078  12.552  23.866  0.00  0.00    +0.000 C 
ATOM     23  C   UNL     1      -4.427  12.455  24.574  0.00  0.00    +0.000 C 
ENDBRANCH  21  22
BRANCH  21  24
ATOM     24  C   UNL     1      -3.063  14.960  24.389  0.00  0.00    +0.000 C 
ATOM     25  C   UNL     1      -1.912  15.135  25.374  0.00  0.00    +0.000 C 
ENDBRANCH  21  24
ENDBRANCH   7  19
BRANCH   1  26
ATOM     26  C   UNL     1       0.941  11.543  19.470  0.00  0.00    +0.000 C 
ATOM     27  O   UNL     1       1.707  11.400  18.531  0.00  0.00    +0.000 OA
BRANCH  26  28
ATOM     28  O   UNL     1       1.083  10.924  20.666  0.00  0.00    +0.000 OA
BRANCH  28  29
ATOM     29  C   UNL     1       1.027   9.499  20.619  0.00  0.00    +0.000 C 
BRANCH  29  30
ATOM     30  C   UNL     1      -0.295   9.015  21.181  0.00  0.00    +0.000 C 
BRANCH  30  32
ATOM     31  C   UNL     1       0.153   9.473  23.608  0.00  0.00    +0.000 C 
ATOM     32  C   UNL     1      -0.686   9.843  22.401  0.00  0.00    +0.000 C 
ENDBRANCH  30  32
ENDBRANCH  29  30
ENDBRANCH  28  29
ENDBRANCH  26  28
ENDBRANCH   1  26
TORSDOF 10
ENDMDL
MODEL 3
REMARK VINA RESULT:      -5.0      1.703      2.110
REMARK  Name = 
REMARK  16 active torsions:
REMARK  status: ('A' for Active; 'I' for Inactive)
REMARK    1  A    between atoms: C_1  and  C_2
REMARK    2  A    between atoms: C_2  and  C_3
REMARK    3  A    between atoms: C_3  and  C_4
REMARK    4  A    between atoms: C_4  and  O_5
REMARK    5  A    between atoms: O_5  and  C_6
REMARK    6  A    between atoms: C_6  and  C_8
REMARK    7  A    between atoms: C_9  and  C_10
REMARK    8  A    between atoms: C_12  and  C_13
REMARK    9  A    between atoms: C_14  and  C_15
REMARK   10  A    between atoms: N_17  and  C_18
REMARK   11  A    between atoms: N_17  and  C_20
REMARK   12  A    between atoms: C_18  and  C_19
REMARK   13  A    between atoms: C_20  and  C_21
REMARK   14  A    between atoms: C_22  and  C_23
REMARK   15  A    between atoms: C_26  and  N_27
REMARK   16  A    between atoms: N_30  and  C_31
REMARK                            x       y       z     vdW  Elec       q    Type
REMARK                         _______ _______ _______ _____ _____    ______ ____
ROOT
ATOM      1  C   UNL     1      -1.940  11.585  19.108  0.00  0.00    +0.000 C 
ATOM      2  C   UNL     1      -3.217  11.775  18.691  0.00  0.00    +0.000 C 
ATOM      3  C   UNL     1      -3.915  11.110  17.524  0.00  0.00    +0.000 C 
ATOM      4  N   UNL     1      -4.016  12.630  19.430  0.00  0.00    +0.000 N 
ATOM      5  C   UNL     1      -3.735  13.039  20.735  0.00  0.00    +0.000 C 
ATOM      6  C   UNL     1      -4.898  13.723  21.420  0.00  0.00    +0.000 C 
ATOM      7  C   UNL     1      -2.478  12.890  21.260  0.00  0.00    +0.000 C 
ATOM      8  C   UNL     1      -1.400  12.423  20.285  0.00  0.00    +0.000 C 
ATOM      9  H   UNL     1      -4.994  12.674  19.147  0.00  0.00    +0.000 HD
ENDROOT
BRANCH   8  10
ATOM     10  C   UNL     1      -0.420  13.489  19.791  0.00  0.00    +0.000 A 
ATOM     11  N   UNL     1      -0.818  14.533  19.077  0.00  0.00    +0.000 NA
ATOM     12  C   UNL     1       0.309  15.215  18.722  0.00  0.00    +0.000 A 
ATOM     13  C   UNL     1       1.418  14.586  19.223  0.00  0.00    +0.000 A 
ATOM     14  N   UNL     1       0.959  13.545  19.995  0.00  0.00    +0.000 N 
ATOM     15  C   UNL     1       1.712  12.699  20.889  0.00  0.00    +0.000 C 
BRANCH  13  16
ATOM     16  N   UNL     1       2.776  14.935  18.971  0.00  0.00    +0.000 N 
ATOM     17  O   UNL     1       3.370  14.243  18.134  0.00  0.00    +0.000 OA
ATOM     18  O   UNL     1       3.275  15.864  19.611  0.00  0.00    +0.000 OA
ENDBRANCH  13  16
ENDBRANCH   8  10
BRANCH   7  19
ATOM     19  C   UNL     1      -2.163  13.391  22.660  0.00  0.00    +0.000 C 
ATOM     20  O   UNL     1      -2.207  12.541  23.566  0.00  0.00    +0.000 OA
ATOM     21  N   UNL     1      -1.867  14.702  23.039  0.00  0.00    +0.000 N 
BRANCH  21  22
ATOM     22  C   UNL     1      -1.658  15.905  22.225  0.00  0.00    +0.000 C 
ATOM     23  C   UNL     1      -0.204  16.369  22.260  0.00  0.00    +0.000 C 
ENDBRANCH  21  22
BRANCH  21  24
ATOM     24  C   UNL     1      -1.660  14.926  24.487  0.00  0.00    +0.000 C 
ATOM     25  C   UNL     1      -2.861  15.565  25.177  0.00  0.00    +0.000 C 
ENDBRANCH  21  24
ENDBRANCH   7  19
BRANCH   1  26
ATOM     26  C   UNL     1      -1.072  10.498  18.569  0.00  0.00    +0.000 C 
ATOM     27  O   UNL     1      -0.866  10.238  17.395  0.00  0.00    +0.000 OA
BRANCH  26  28
ATOM     28  O   UNL     1      -0.720   9.691  19.598  0.00  0.00    +0.000 OA
BRANCH  28  29
ATOM     29  C   UNL     1       0.679   9.448  19.725  0.00  0.00    +0.000 C 
BRANCH  29  30
ATOM     30  C   UNL     1       1.007   9.039  21.146  0.00  0.00    +0.000 C 
BRANCH  30  32
ATOM     31  C   UNL     1      -0.225   9.657  23.245  0.00  0.00    +0.000 C 
ATOM     32  C   UNL     1      -0.275   8.862  21.954  0.00  0.00    +0.000 C 
ENDBRANCH  30  32
ENDBRANCH  29  30
ENDBRANCH  28  29
ENDBRANCH  26  28
ENDBRANCH   1  26
TORSDOF 10
ENDMDL
MODEL 4
REMARK VINA RESULT:      -4.9      1.564      2.014
REMARK  Name = 
REMARK  16 active torsions:
REMARK  status: ('A' for Active; 'I' for Inactive)
REMARK    1  A    between atoms: C_1  and  C_2
REMARK    2  A    between atoms: C_2  and  C_3
REMARK    3  A    between atoms: C_3  and  C_4
REMARK    4  A    between atoms: C_4  and  O_5
REMARK    5  A    between atoms: O_5  and  C_6
REMARK    6  A    between atoms: C_6  and  C_8
REMARK    7  A    between atoms: C_9  and  C_10
REMARK    8  A    between atoms: C_12  and  C_13
REMARK    9  A    between atoms: C_14  and  C_15
REMARK   10  A    between atoms: N_17  and  C_18
REMARK   11  A    between atoms: N_17  and  C_20
REMARK   12  A    between atoms: C_18  and  C_19
REMARK   13  A    between atoms: C_20  and  C_21
REMARK   14  A    between atoms: C_22  and  C_23
REMARK   15  A    between atoms: C_26  and  N_27
REMARK   16  A    between atoms: N_30  and  C_31
REMARK                            x       y       z     vdW  Elec       q    Type
REMARK                         _______ _______ _______ _____ _____    ______ ____
ROOT
ATOM      1  C   UNL     1      -1.354  11.645  19.222  0.00  0.00    +0.000 C 
ATOM      2  C   UNL     1      -2.479  11.490  18.478  0.00  0.00    +0.000 C 
ATOM      3  C   UNL     1      -2.740  10.456  17.405  0.00  0.00    +0.000 C 
ATOM      4  N   UNL     1      -3.549  12.326  18.747  0.00  0.00    +0.000 N 
ATOM      5  C   UNL     1      -3.692  13.069  19.920  0.00  0.00    +0.000 C 
ATOM      6  C   UNL     1      -5.074  13.660  20.098  0.00  0.00    +0.000 C 
ATOM      7  C   UNL     1      -2.622  13.284  20.748  0.00  0.00    +0.000 C 
ATOM      8  C   UNL     1      -1.268  12.817  20.221  0.00  0.00    +0.000 C 
ATOM      9  H   UNL     1      -4.407  12.119  18.239  0.00  0.00    +0.000 HD
ENDROOT
BRANCH   8  10
ATOM     10  C   UNL     1      -0.326  13.906  19.703  0.00  0.00    +0.000 A 
ATOM     11  N   UNL     1      -0.766  14.941  18.999  0.00  0.00    +0.000 NA
ATOM     12  C   UNL     1       0.335  15.649  18.618  0.00  0.00    +0.000 A 
ATOM     13  C   UNL     1       1.471  15.047  19.090  0.00  0.00    +0.000 A 
ATOM     14  N   UNL     1       1.056  13.995  19.873  0.00  0.00    +0.000 N 
ATOM     15  C   UNL     1       1.851  13.167  20.749  0.00  0.00    +0.000 C 
BRANCH  13  16
ATOM     16  N   UNL     1       2.813  15.428  18.805  0.00  0.00    +0.000 N 
ATOM     17  O   UNL     1       3.368  16.144  19.649  0.00  0.00    +0.000 OA
ATOM     18  O   UNL     1       3.320  15.055  17.744  0.00  0.00    +0.000 OA
ENDBRANCH  13  16
ENDBRANCH   8  10
BRANCH   7  19
ATOM     19  C   UNL     1      -2.771  14.143  21.994  0.00  0.00    +0.000 C 
ATOM     20  O   UNL     1      -2.136  15.212  21.997  0.00  0.00    +0.000 OA
ATOM     21  N   UNL     1      -3.510  13.844  23.140  0.00  0.00    +0.000 N 
BRANCH  21  22
ATOM     22  C   UNL     1      -4.420  12.727  23.423  0.00  0.00    +0.000 C 
ATOM     23  C   UNL     1      -4.383  12.323  24.894  0.00  0.00    +0.000 C 
ENDBRANCH  21  22
BRANCH  21  24
ATOM     24  C   UNL     1      -3.432  14.833  24.237  0.00  0.00    +0.000 C 
ATOM     25  C   UNL     1      -4.584  15.833  24.232  0.00  0.00    +0.000 C 
ENDBRANCH  21  24
ENDBRANCH   7  19
BRANCH   1  26
ATOM     26  C   UNL     1      -0.246  10.647  19.219  0.00  0.00    +0.000 C 
ATOM     27  O   UNL     1       0.732  10.637  18.488  0.00  0.00    +0.000 OA
BRANCH  26  28
ATOM     28  O   UNL     1      -0.609   9.612  20.013  0.00  0.00    +0.000 OA
BRANCH  28  29
ATOM     29  C   UNL     1       0.394   9.166  20.923  0.00  0.00    +0.000 C 
BRANCH  29  30
ATOM     30  C   UNL     1      -0.252   8.606  22.174  0.00  0.00    +0.000 C 
BRANCH  30  32
ATOM     31  C   UNL     1      -1.134  10.748  23.143  0.00  0.00    +0.000 C 
ATOM     32  C   UNL     1      -0.147   9.610  23.318  0.00  0.00    +0.000 C 
ENDBRANCH  30  32
ENDBRANCH  29  30
ENDBRANCH  28  29
ENDBRANCH  26  28
ENDBRANCH   1  26
TORSDOF 10
ENDMDL
MODEL 5
REMARK VINA RESULT:      -4.9      1.313      2.053
REMARK  Name = 
REMARK  16 active torsions:
REMARK  status: ('A' for Active; 'I' for Inactive)
REMARK    1  A    between atoms: C_1  and  C_2
REMARK    2  A    between atoms: C_2  and  C_3
REMARK    3  A    between atoms: C_3  and  C_4
REMARK    4  A    between atoms: C_4  and  O_5
REMARK    5  A    between atoms: O_5  and  C_6
REMARK    6  A    between atoms: C_6  and  C_8
REMARK    7  A    between atoms: C_9  and  C_10
REMARK    8  A    between atoms: C_12  and  C_13
REMARK    9  A    between atoms: C_14  and  C_15
REMARK   10  A    between atoms: N_17  and  C_18
REMARK   11  A    between atoms: N_17  and  C_20
REMARK   12  A    between atoms: C_18  and  C_19
REMARK   13  A    between atoms: C_20  and  C_21
REMARK   14  A    between atoms: C_22  and  C_23
REMARK   15  A    between atoms: C_26  and  N_27
REMARK   16  A    between atoms: N_30  and  C_31
REMARK                            x       y       z     vdW  Elec       q    Type
REMARK                         _______ _______ _______ _____ _____    ______ ____
ROOT
ATOM      1  C   UNL     1      -1.762  11.304  19.415  0.00  0.00    +0.000 C 
ATOM      2  C   UNL     1      -2.578  11.330  18.331  0.00  0.00    +0.000 C 
ATOM      3  C   UNL     1      -2.420  10.560  17.038  0.00  0.00    +0.000 C 
ATOM      4  N   UNL     1      -3.726  12.101  18.407  0.00  0.00    +0.000 N 
ATOM      5  C   UNL     1      -4.281  12.569  19.599  0.00  0.00    +0.000 C 
ATOM      6  C   UNL     1      -5.680  13.125  19.439  0.00  0.00    +0.000 C 
ATOM      7  C   UNL     1      -3.547  12.584  20.756  0.00  0.00    +0.000 C 
ATOM      8  C   UNL     1      -2.070  12.227  20.611  0.00  0.00    +0.000 C 
ATOM      9  H   UNL     1      -4.363  12.020  17.616  0.00  0.00    +0.000 HD
ENDROOT
BRANCH   8  10
ATOM     10  C   UNL     1      -1.079  13.392  20.671  0.00  0.00    +0.000 A 
ATOM     11  N   UNL     1      -0.682  14.034  19.581  0.00  0.00    +0.000 NA
ATOM     12  C   UNL     1       0.265  14.931  19.980  0.00  0.00    +0.000 A 
ATOM     13  C   UNL     1       0.457  14.843  21.333  0.00  0.00    +0.000 A 
ATOM     14  N   UNL     1      -0.470  13.941  21.800  0.00  0.00    +0.000 N 
ATOM     15  C   UNL     1      -0.810  13.639  23.170  0.00  0.00    +0.000 C 
BRANCH  13  16
ATOM     16  N   UNL     1       1.439  15.537  22.096  0.00  0.00    +0.000 N 
ATOM     17  O   UNL     1       1.213  16.734  22.318  0.00  0.00    +0.000 OA
ATOM     18  O   UNL     1       2.449  14.924  22.455  0.00  0.00    +0.000 OA
ENDBRANCH  13  16
ENDBRANCH   8  10
BRANCH   7  19
ATOM     19  C   UNL     1      -4.137  13.151  22.037  0.00  0.00    +0.000 C 
ATOM     20  O   UNL     1      -4.551  12.318  22.862  0.00  0.00    +0.000 OA
ATOM     21  N   UNL     1      -4.296  14.498  22.367  0.00  0.00    +0.000 N 
BRANCH  21  22
ATOM     22  C   UNL     1      -3.849  15.709  21.669  0.00  0.00    +0.000 C 
ATOM     23  C   UNL     1      -2.906  16.546  22.530  0.00  0.00    +0.000 C 
ENDBRANCH  21  22
BRANCH  21  24
ATOM     24  C   UNL     1      -4.961  14.774  23.660  0.00  0.00    +0.000 C 
ATOM     25  C   UNL     1      -6.362  15.356  23.507  0.00  0.00    +0.000 C 
ENDBRANCH  21  24
ENDBRANCH   7  19
BRANCH   1  26
ATOM     26  C   UNL     1      -0.654  10.317  19.562  0.00  0.00    +0.000 C 
ATOM     27  O   UNL     1      -0.511   9.500  20.457  0.00  0.00    +0.000 OA
BRANCH  26  28
ATOM     28  O   UNL     1       0.304  10.623  18.654  0.00  0.00    +0.000 OA
BRANCH  28  29
ATOM     29  C   UNL     1       0.731   9.535  17.836  0.00  0.00    +0.000 C 
BRANCH  29  30
ATOM     30  C   UNL     1       2.217   9.304  18.014  0.00  0.00    +0.000 C 
BRANCH  30  32
ATOM     31  C   UNL     1       2.272   7.317  19.547  0.00  0.00    +0.000 C 
ATOM     32  C   UNL     1       2.510   7.812  18.134  0.00  0.00    +0.000 C 
ENDBRANCH  30  32
ENDBRANCH  29  30
ENDBRANCH  28  29
ENDBRANCH  26  28
ENDBRANCH   1  26
TORSDOF 10
ENDMDL
MODEL 6
REMARK VINA RESULT:      -4.8      1.646      1.958
REMARK  Name = 
REMARK  16 active torsions:
REMARK  status: ('A' for Active; 'I' for Inactive)
REMARK    1  A    between atoms: C_1  and  C_2
REMARK    2  A    between atoms: C_2  and  C_3
REMARK    3  A    between atoms: C_3  and  C_4
REMARK    4  A    between atoms: C_4  and  O_5
REMARK    5  A    between atoms: O_5  and  C_6
REMARK    6  A    between atoms: C_6  and  C_8
REMARK    7  A    between atoms: C_9  and  C_10
REMARK    8  A    between atoms: C_12  and  C_13
REMARK    9  A    between atoms: C_14  and  C_15
REMARK   10  A    between atoms: N_17  and  C_18
REMARK   11  A    between atoms: N_17  and  C_20
REMARK   12  A    between atoms: C_18  and  C_19
REMARK   13  A    between atoms: C_20  and  C_21
REMARK   14  A    between atoms: C_22  and  C_23
REMARK   15  A    between atoms: C_26  and  N_27
REMARK   16  A    between atoms: N_30  and  C_31
REMARK                            x       y       z     vdW  Elec       q    Type
REMARK                         _______ _______ _______ _____ _____    ______ ____
ROOT
ATOM      1  C   UNL     1      -0.464  11.800  19.252  0.00  0.00    +0.000 C 
ATOM      2  C   UNL     1      -1.660  11.528  18.673  0.00  0.00    +0.000 C 
ATOM      3  C   UNL     1      -1.941  10.559  17.545  0.00  0.00    +0.000 C 
ATOM      4  N   UNL     1      -2.782  12.156  19.187  0.00  0.00    +0.000 N 
ATOM      5  C   UNL     1      -2.837  12.765  20.441  0.00  0.00    +0.000 C 
ATOM      6  C   UNL     1      -4.242  13.110  20.886  0.00  0.00    +0.000 C 
ATOM      7  C   UNL     1      -1.689  13.080  21.119  0.00  0.00    +0.000 C 
ATOM      8  C   UNL     1      -0.386  12.883  20.347  0.00  0.00    +0.000 C 
ATOM      9  H   UNL     1      -3.673  11.856  18.793  0.00  0.00    +0.000 HD
ENDROOT
BRANCH   8  10
ATOM     10  C   UNL     1       0.289  14.150  19.815  0.00  0.00    +0.000 A 
ATOM     11  N   UNL     1      -0.374  15.057  19.110  0.00  0.00    +0.000 NA
ATOM     12  C   UNL     1       0.541  15.987  18.715  0.00  0.00    +0.000 A 
ATOM     13  C   UNL     1       1.785  15.653  19.180  0.00  0.00    +0.000 A 
ATOM     14  N   UNL     1       1.619  14.542  19.972  0.00  0.00    +0.000 N 
ATOM     15  C   UNL     1       2.584  13.915  20.844  0.00  0.00    +0.000 C 
BRANCH  13  16
ATOM     16  N   UNL     1       3.009  16.318  18.880  0.00  0.00    +0.000 N 
ATOM     17  O   UNL     1       3.165  17.433  19.396  0.00  0.00    +0.000 OA
ATOM     18  O   UNL     1       3.807  15.769  18.116  0.00  0.00    +0.000 OA
ENDBRANCH  13  16
ENDBRANCH   8  10
BRANCH   7  19
ATOM     19  C   UNL     1      -1.754  13.797  22.458  0.00  0.00    +0.000 C 
ATOM     20  O   UNL     1      -1.513  13.103  23.460  0.00  0.00    +0.000 OA
ATOM     21  N   UNL     1      -2.090  15.134  22.682  0.00  0.00    +0.000 N 
BRANCH  21  22
ATOM     22  C   UNL     1      -2.343  16.225  21.733  0.00  0.00    +0.000 C 
ATOM     23  C   UNL     1      -1.268  17.306  21.811  0.00  0.00    +0.000 C 
ENDBRANCH  21  22
BRANCH  21  24
ATOM     24  C   UNL     1      -2.137  15.561  24.097  0.00  0.00    +0.000 C 
ATOM     25  C   UNL     1      -3.553  15.830  24.600  0.00  0.00    +0.000 C 
ENDBRANCH  21  24
ENDBRANCH   7  19
BRANCH   1  26
ATOM     26  C   UNL     1       0.763  10.998  18.976  0.00  0.00    +0.000 C 
ATOM     27  O   UNL     1       1.708  11.319  18.273  0.00  0.00    +0.000 OA
BRANCH  26  28
ATOM     28  O   UNL     1       0.562   9.745  19.452  0.00  0.00    +0.000 OA
BRANCH  28  29
ATOM     29  C   UNL     1       1.385   9.380  20.558  0.00  0.00    +0.000 C 
BRANCH  29  30
ATOM     30  C   UNL     1       0.721   8.274  21.354  0.00  0.00    +0.000 C 
BRANCH  30  32
ATOM     31  C   UNL     1      -0.269   9.801  23.083  0.00  0.00    +0.000 C 
ATOM     32  C   UNL     1      -0.565   8.785  21.997  0.00  0.00    +0.000 C 
ENDBRANCH  30  32
ENDBRANCH  29  30
ENDBRANCH  28  29
ENDBRANCH  26  28
ENDBRANCH   1  26
TORSDOF 10
ENDMDL
MODEL 7
REMARK VINA RESULT:      -4.8      2.282      5.363
REMARK  Name = 
REMARK  16 active torsions:
REMARK  status: ('A' for Active; 'I' for Inactive)
REMARK    1  A    between atoms: C_1  and  C_2
REMARK    2  A    between atoms: C_2  and  C_3
REMARK    3  A    between atoms: C_3  and  C_4
REMARK    4  A    between atoms: C_4  and  O_5
REMARK    5  A    between atoms: O_5  and  C_6
REMARK    6  A    between atoms: C_6  and  C_8
REMARK    7  A    between atoms: C_9  and  C_10
REMARK    8  A    between atoms: C_12  and  C_13
REMARK    9  A    between atoms: C_14  and  C_15
REMARK   10  A    between atoms: N_17  and  C_18
REMARK   11  A    between atoms: N_17  and  C_20
REMARK   12  A    between atoms: C_18  and  C_19
REMARK   13  A    between atoms: C_20  and  C_21
REMARK   14  A    between atoms: C_22  and  C_23
REMARK   15  A    between atoms: C_26  and  N_27
REMARK   16  A    between atoms: N_30  and  C_31
REMARK                            x       y       z     vdW  Elec       q    Type
REMARK                         _______ _______ _______ _____ _____    ______ ____
ROOT
ATOM      1  C   UNL     1      -1.065  11.369  18.769  0.00  0.00    +0.000 C 
ATOM      2  C   UNL     1       0.136  10.841  18.421  0.00  0.00    +0.000 C 
ATOM      3  C   UNL     1       0.404   9.490  17.795  0.00  0.00    +0.000 C 
ATOM      4  N   UNL     1       1.261  11.629  18.597  0.00  0.00    +0.000 N 
ATOM      5  C   UNL     1       1.231  13.013  18.775  0.00  0.00    +0.000 C 
ATOM      6  C   UNL     1       2.589  13.669  18.646  0.00  0.00    +0.000 C 
ATOM      7  C   UNL     1       0.070  13.651  19.124  0.00  0.00    +0.000 C 
ATOM      8  C   UNL     1      -1.111  12.744  19.464  0.00  0.00    +0.000 C 
ATOM      9  H   UNL     1       2.131  11.240  18.236  0.00  0.00    +0.000 HD
ENDROOT
BRANCH   8  10
ATOM     10  C   UNL     1      -1.448  12.594  20.949  0.00  0.00    +0.000 A 
ATOM     11  N   UNL     1      -0.711  11.855  21.767  0.00  0.00    +0.000 NA
ATOM     12  C   UNL     1      -1.345  11.859  22.974  0.00  0.00    +0.000 A 
ATOM     13  C   UNL     1      -2.489  12.609  22.904  0.00  0.00    +0.000 A 
ATOM     14  N   UNL     1      -2.509  13.170  21.649  0.00  0.00    +0.000 N 
ATOM     15  C   UNL     1      -3.396  14.190  21.142  0.00  0.00    +0.000 C 
BRANCH  13  16
ATOM     16  N   UNL     1      -3.470  12.757  23.926  0.00  0.00    +0.000 N 
ATOM     17  O   UNL     1      -3.423  13.807  24.579  0.00  0.00    +0.000 OA
ATOM     18  O   UNL     1      -4.269  11.835  24.115  0.00  0.00    +0.000 OA
ENDBRANCH  13  16
ENDBRANCH   8  10
BRANCH   7  19
ATOM     19  C   UNL     1       0.058  15.150  19.374  0.00  0.00    +0.000 C 
ATOM     20  O   UNL     1      -0.302  15.859  18.419  0.00  0.00    +0.000 OA
ATOM     21  N   UNL     1       0.441  15.812  20.543  0.00  0.00    +0.000 N 
BRANCH  21  22
ATOM     22  C   UNL     1       0.829  15.280  21.855  0.00  0.00    +0.000 C 
ATOM     23  C   UNL     1      -0.196  15.624  22.933  0.00  0.00    +0.000 C 
ENDBRANCH  21  22
BRANCH  21  24
ATOM     24  C   UNL     1       0.390  17.289  20.496  0.00  0.00    +0.000 C 
ATOM     25  C   UNL     1       1.767  17.939  20.405  0.00  0.00    +0.000 C 
ENDBRANCH  21  24
ENDBRANCH   7  19
BRANCH   1  26
ATOM     26  C   UNL     1      -2.361  10.739  18.382  0.00  0.00    +0.000 C 
ATOM     27  O   UNL     1      -2.541   9.582  18.039  0.00  0.00    +0.000 OA
BRANCH  26  28
ATOM     28  O   UNL     1      -3.285  11.721  18.253  0.00  0.00    +0.000 OA
BRANCH  28  29
ATOM     29  C   UNL     1      -4.449  11.362  17.512  0.00  0.00    +0.000 C 
BRANCH  29  30
ATOM     30  C   UNL     1      -5.562  12.354  17.784  0.00  0.00    +0.000 C 
BRANCH  30  32
ATOM     31  C   UNL     1      -6.646  10.389  18.910  0.00  0.00    +0.000 C 
ATOM     32  C   UNL     1      -6.871  11.619  18.052  0.00  0.00    +0.000 C 
ENDBRANCH  30  32
ENDBRANCH  29  30
ENDBRANCH  28  29
ENDBRANCH  26  28
ENDBRANCH   1  26
TORSDOF 10
ENDMDL
MODEL 8
REMARK VINA RESULT:      -4.8      1.884      5.670
REMARK  Name = 
REMARK  16 active torsions:
REMARK  status: ('A' for Active; 'I' for Inactive)
REMARK    1  A    between atoms: C_1  and  C_2
REMARK    2  A    between atoms: C_2  and  C_3
REMARK    3  A    between atoms: C_3  and  C_4
REMARK    4  A    between atoms: C_4  and  O_5
REMARK    5  A    between atoms: O_5  and  C_6
REMARK    6  A    between atoms: C_6  and  C_8
REMARK    7  A    between atoms: C_9  and  C_10
REMARK    8  A    between atoms: C_12  and  C_13
REMARK    9  A    between atoms: C_14  and  C_15
REMARK   10  A    between atoms: N_17  and  C_18
REMARK   11  A    between atoms: N_17  and  C_20
REMARK   12  A    between atoms: C_18  and  C_19
REMARK   13  A    between atoms: C_20  and  C_21
REMARK   14  A    between atoms: C_22  and  C_23
REMARK   15  A    between atoms: C_26  and  N_27
REMARK   16  A    between atoms: N_30  and  C_31
REMARK                            x       y       z     vdW  Elec       q    Type
REMARK                         _______ _______ _______ _____ _____    ______ ____
ROOT
ATOM      1  C   UNL     1      -2.938  13.049  22.061  0.00  0.00    +0.000 C 
ATOM      2  C   UNL     1      -2.986  12.329  23.211  0.00  0.00    +0.000 C 
ATOM      3  C   UNL     1      -4.094  12.309  24.242  0.00  0.00    +0.000 C 
ATOM      4  N   UNL     1      -1.938  11.462  23.472  0.00  0.00    +0.000 N 
ATOM      5  C   UNL     1      -1.027  11.019  22.513  0.00  0.00    +0.000 C 
ATOM      6  C   UNL     1      -0.173   9.860  22.979  0.00  0.00    +0.000 C 
ATOM      7  C   UNL     1      -0.898  11.669  21.314  0.00  0.00    +0.000 C 
ATOM      8  C   UNL     1      -1.675  12.977  21.180  0.00  0.00    +0.000 C 
ATOM      9  H   UNL     1      -2.053  10.868  24.292  0.00  0.00    +0.000 HD
ENDROOT
BRANCH   8  10
ATOM     10  C   UNL     1      -0.859  14.267  21.289  0.00  0.00    +0.000 A 
ATOM     11  N   UNL     1      -0.574  14.823  22.458  0.00  0.00    +0.000 NA
ATOM     12  C   UNL     1       0.066  15.996  22.187  0.00  0.00    +0.000 A 
ATOM     13  C   UNL     1       0.179  16.170  20.833  0.00  0.00    +0.000 A 
ATOM     14  N   UNL     1      -0.312  15.024  20.252  0.00  0.00    +0.000 N 
ATOM     15  C   UNL     1      -0.242  14.627  18.866  0.00  0.00    +0.000 C 
BRANCH  13  16
ATOM     16  N   UNL     1       0.685  17.322  20.166  0.00  0.00    +0.000 N 
ATOM     17  O   UNL     1      -0.140  18.205  19.900  0.00  0.00    +0.000 OA
ATOM     18  O   UNL     1       1.883  17.354  19.871  0.00  0.00    +0.000 OA
ENDBRANCH  13  16
ENDBRANCH   8  10
BRANCH   7  19
ATOM     19  C   UNL     1       0.138  11.217  20.298  0.00  0.00    +0.000 C 
ATOM     20  O   UNL     1       1.304  11.596  20.503  0.00  0.00    +0.000 OA
ATOM     21  N   UNL     1      -0.086  10.458  19.147  0.00  0.00    +0.000 N 
BRANCH  21  22
ATOM     22  C   UNL     1      -1.304   9.796  18.664  0.00  0.00    +0.000 C 
ATOM     23  C   UNL     1      -1.642  10.203  17.232  0.00  0.00    +0.000 C 
ENDBRANCH  21  22
BRANCH  21  24
ATOM     24  C   UNL     1       1.097  10.212  18.294  0.00  0.00    +0.000 C 
ATOM     25  C   UNL     1       1.686   8.815  18.468  0.00  0.00    +0.000 C 
ENDBRANCH  21  24
ENDBRANCH   7  19
BRANCH   1  26
ATOM     26  C   UNL     1      -4.113  13.803  21.537  0.00  0.00    +0.000 C 
ATOM     27  O   UNL     1      -4.352  14.990  21.691  0.00  0.00    +0.000 OA
BRANCH  26  28
ATOM     28  O   UNL     1      -5.003  12.908  21.046  0.00  0.00    +0.000 OA
BRANCH  28  29
ATOM     29  C   UNL     1      -5.266  13.021  19.649  0.00  0.00    +0.000 C 
BRANCH  29  30
ATOM     30  C   UNL     1      -4.510  11.948  18.892  0.00  0.00    +0.000 C 
BRANCH  30  32
ATOM     31  C   UNL     1      -6.210  12.767  17.235  0.00  0.00    +0.000 C 
ATOM     32  C   UNL     1      -5.124  11.744  17.510  0.00  0.00    +0.000 C 
ENDBRANCH  30  32
ENDBRANCH  29  30
ENDBRANCH  28  29
ENDBRANCH  26  28
ENDBRANCH   1  26
TORSDOF 10
ENDMDL
MODEL 9
REMARK VINA RESULT:      -4.8      2.113      5.831
REMARK  Name = 
REMARK  16 active torsions:
REMARK  status: ('A' for Active; 'I' for Inactive)
REMARK    1  A    between atoms: C_1  and  C_2
REMARK    2  A    between atoms: C_2  and  C_3
REMARK    3  A    between atoms: C_3  and  C_4
REMARK    4  A    between atoms: C_4  and  O_5
REMARK    5  A    between atoms: O_5  and  C_6
REMARK    6  A    between atoms: C_6  and  C_8
REMARK    7  A    between atoms: C_9  and  C_10
REMARK    8  A    between atoms: C_12  and  C_13
REMARK    9  A    between atoms: C_14  and  C_15
REMARK   10  A    between atoms: N_17  and  C_18
REMARK   11  A    between atoms: N_17  and  C_20
REMARK   12  A    between atoms: C_18  and  C_19
REMARK   13  A    between atoms: C_20  and  C_21
REMARK   14  A    between atoms: C_22  and  C_23
REMARK   15  A    between atoms: C_26  and  N_27
REMARK   16  A    between atoms: N_30  and  C_31
REMARK                            x       y       z     vdW  Elec       q    Type
REMARK                         _______ _______ _______ _____ _____    ______ ____
ROOT
ATOM      1  C   UNL     1      -2.365  13.297  22.413  0.00  0.00    +0.000 C 
ATOM      2  C   UNL     1      -2.941  14.417  22.919  0.00  0.00    +0.000 C 
ATOM      3  C   UNL     1      -3.762  14.543  24.183  0.00  0.00    +0.000 C 
ATOM      4  N   UNL     1      -2.725  15.610  22.249  0.00  0.00    +0.000 N 
ATOM      5  C   UNL     1      -1.708  15.816  21.317  0.00  0.00    +0.000 C 
ATOM      6  C   UNL     1      -1.501  17.272  20.958  0.00  0.00    +0.000 C 
ATOM      7  C   UNL     1      -1.055  14.755  20.746  0.00  0.00    +0.000 C 
ATOM      8  C   UNL     1      -1.625  13.375  21.063  0.00  0.00    +0.000 C 
ATOM      9  H   UNL     1      -3.090  16.444  22.709  0.00  0.00    +0.000 HD
ENDROOT
BRANCH   8  10
ATOM     10  C   UNL     1      -2.440  12.703  19.955  0.00  0.00    +0.000 A 
ATOM     11  N   UNL     1      -3.752  12.865  19.849  0.00  0.00    +0.000 NA
ATOM     12  C   UNL     1      -4.164  12.056  18.832  0.00  0.00    +0.000 A 
ATOM     13  C   UNL     1      -3.095  11.385  18.300  0.00  0.00    +0.000 A 
ATOM     14  N   UNL     1      -1.976  11.869  18.936  0.00  0.00    +0.000 N 
ATOM     15  C   UNL     1      -0.591  11.631  18.610  0.00  0.00    +0.000 C 
BRANCH  13  16
ATOM     16  N   UNL     1      -3.142  10.372  17.301  0.00  0.00    +0.000 N 
ATOM     17  O   UNL     1      -3.402   9.227  17.695  0.00  0.00    +0.000 OA
ATOM     18  O   UNL     1      -2.895  10.683  16.132  0.00  0.00    +0.000 OA
ENDBRANCH  13  16
ENDBRANCH   8  10
BRANCH   7  19
ATOM     19  C   UNL     1       0.011  14.984  19.686  0.00  0.00    +0.000 C 
ATOM     20  O   UNL     1      -0.399  15.115  18.520  0.00  0.00    +0.000 OA
ATOM     21  N   UNL     1       1.393  15.026  19.878  0.00  0.00    +0.000 N 
BRANCH  21  22
ATOM     22  C   UNL     1       2.185  14.990  21.113  0.00  0.00    +0.000 C 
ATOM     23  C   UNL     1       3.277  13.924  21.056  0.00  0.00    +0.000 C 
ENDBRANCH  21  22
BRANCH  21  24
ATOM     24  C   UNL     1       2.211  15.203  18.658  0.00  0.00    +0.000 C 
ATOM     25  C   UNL     1       2.765  16.616  18.501  0.00  0.00    +0.000 C 
ENDBRANCH  21  24
ENDBRANCH   7  19
BRANCH   1  26
ATOM     26  C   UNL     1      -2.295  12.017  23.175  0.00  0.00    +0.000 C 
ATOM     27  O   UNL     1      -3.203  11.475  23.786  0.00  0.00    +0.000 OA
BRANCH  26  28
ATOM     28  O   UNL     1      -0.993  11.657  23.275  0.00  0.00    +0.000 OA
BRANCH  28  29
ATOM     29  C   UNL     1      -0.750  10.252  23.244  0.00  0.00    +0.000 C 
BRANCH  29  30
ATOM     30  C   UNL     1      -0.259   9.842  21.871  0.00  0.00    +0.000 C 
BRANCH  30  32
ATOM     31  C   UNL     1       1.369   8.366  20.656  0.00  0.00    +0.000 C 
ATOM     32  C   UNL     1       0.986   8.969  21.994  0.00  0.00    +0.000 C 
ENDBRANCH  30  32
ENDBRANCH  29  30
ENDBRANCH  28  29
ENDBRANCH  26  28
ENDBRANCH   1  26
TORSDOF 10
ENDMDL
