MODEL 1
REMARK VINA RESULT:      -5.2      0.000      0.000
REMARK  Name = 
REMARK  13 active torsions:
REMARK  status: ('A' for Active; 'I' for Inactive)
REMARK    1  A    between atoms: C_1  and  C_2
REMARK    2  A    between atoms: C_2  and  C_3
REMARK    3  A    between atoms: C_3  and  C_4
REMARK    4  A    between atoms: C_3  and  C_5
REMARK    5  A    between atoms: C_3  and  S_6
REMARK    6  A    between atoms: S_6  and  C_7
REMARK    7  A    between atoms: C_7  and  O_9
REMARK    8  A    between atoms: O_9  and  C_10
REMARK    9  A    between atoms: C_10  and  C_11
REMARK   10  A    between atoms: C_11  and  N_12
REMARK   11  A    between atoms: N_12  and  C_13
REMARK   12  A    between atoms: N_12  and  C_14
REMARK   13  A    between atoms: N_12  and  C_15
REMARK                            x       y       z     vdW  Elec       q    Type
REMARK                         _______ _______ _______ _____ _____    ______ ____
ROOT
ATOM      1  C   UNL     1       4.585   2.494  19.790  0.00  0.00    +0.000 C 
ATOM      2  O   UNL     1       4.877   1.705  20.686  0.00  0.00    +0.000 OA
ENDROOT
BRANCH   1   3
ATOM      3  S   UNL     1       3.384   2.082  18.582  0.00  0.00    +0.000 S 
BRANCH   3   4
ATOM      4  C   UNL     1       1.960   3.162  19.019  0.00  0.00    +0.000 C 
ATOM      5  C   UNL     1       0.672   2.344  18.776  0.00  0.00    +0.000 C 
ATOM      6  C   UNL     1       1.970   4.366  18.064  0.00  0.00    +0.000 C 
BRANCH   4   8
ATOM      7  C   UNL     1       1.887   5.152  20.681  0.00  0.00    +0.000 C 
ATOM      8  C   UNL     1       1.981   3.641  20.492  0.00  0.00    +0.000 C 
ENDBRANCH   4   8
ENDBRANCH   3   4
ENDBRANCH   1   3
BRANCH   1   9
ATOM      9  O   UNL     1       5.086   3.759  19.757  0.00  0.00    +0.000 OA
BRANCH   9  10
ATOM     10  C   UNL     1       5.594   4.198  18.490  0.00  0.00    +0.000 C 
BRANCH  10  11
ATOM     11  C   UNL     1       5.486   5.715  18.245  0.00  0.00    +0.000 C 
BRANCH  11  12
ATOM     12  N   UNL     1       6.177   6.175  16.934  0.00  0.00    +0.000 N 
ATOM     13  C   UNL     1       5.158   6.592  15.882  0.00  0.00    +0.000 C 
ATOM     14  C   UNL     1       7.147   7.323  17.208  0.00  0.00    +0.000 C 
ATOM     15  C   UNL     1       6.986   4.999  16.377  0.00  0.00    +0.000 C 
ENDBRANCH  11  12
ENDBRANCH  10  11
ENDBRANCH   9  10
ENDBRANCH   1   9
TORSDOF 7
ENDMDL
MODEL 2
REMARK VINA RESULT:      -5.1      0.908      1.111
REMARK  Name = 
REMARK  13 active torsions:
REMARK  status: ('A' for Active; 'I' for Inactive)
REMARK    1  A    between atoms: C_1  and  C_2
REMARK    2  A    between atoms: C_2  and  C_3
REMARK    3  A    between atoms: C_3  and  C_4
REMARK    4  A    between atoms: C_3  and  C_5
REMARK    5  A    between atoms: C_3  and  S_6
REMARK    6  A    between atoms: S_6  and  C_7
REMARK    7  A    between atoms: C_7  and  O_9
REMARK    8  A    between atoms: O_9  and  C_10
REMARK    9  A    between atoms: C_10  and  C_11
REMARK   10  A    between atoms: C_11  and  N_12
REMARK   11  A    between atoms: N_12  and  C_13
REMARK   12  A    between atoms: N_12  and  C_14
REMARK   13  A    between atoms: N_12  and  C_15
REMARK                            x       y       z     vdW  Elec       q    Type
REMARK                         _______ _______ _______ _____ _____    ______ ____
ROOT
ATOM      1  C   UNL     1       4.399   2.986  19.605  0.00  0.00    +0.000 C 
ATOM      2  O   UNL     1       5.138   2.290  20.297  0.00  0.00    +0.000 OA
ENDROOT
BRANCH   1   3
ATOM      3  S   UNL     1       3.232   2.258  18.518  0.00  0.00    +0.000 S 
BRANCH   3   4
ATOM      4  C   UNL     1       1.682   3.179  18.887  0.00  0.00    +0.000 C 
ATOM      5  C   UNL     1       0.508   2.191  18.714  0.00  0.00    +0.000 C 
ATOM      6  C   UNL     1       1.542   4.302  17.847  0.00  0.00    +0.000 C 
BRANCH   4   8
ATOM      7  C   UNL     1       1.348   2.749  21.423  0.00  0.00    +0.000 C 
ATOM      8  C   UNL     1       1.640   3.763  20.321  0.00  0.00    +0.000 C 
ENDBRANCH   4   8
ENDBRANCH   3   4
ENDBRANCH   1   3
BRANCH   1   9
ATOM      9  O   UNL     1       4.363   4.341  19.731  0.00  0.00    +0.000 OA
BRANCH   9  10
ATOM     10  C   UNL     1       5.494   5.048  19.204  0.00  0.00    +0.000 C 
BRANCH  10  11
ATOM     11  C   UNL     1       5.402   5.375  17.702  0.00  0.00    +0.000 C 
BRANCH  11  12
ATOM     12  N   UNL     1       6.790   5.528  17.022  0.00  0.00    +0.000 N 
ATOM     13  C   UNL     1       6.717   5.227  15.531  0.00  0.00    +0.000 C 
ATOM     14  C   UNL     1       7.351   6.930  17.248  0.00  0.00    +0.000 C 
ATOM     15  C   UNL     1       7.754   4.526  17.666  0.00  0.00    +0.000 C 
ENDBRANCH  11  12
ENDBRANCH  10  11
ENDBRANCH   9  10
ENDBRANCH   1   9
TORSDOF 7
ENDMDL
MODEL 3
REMARK VINA RESULT:      -5.1      2.455      5.754
REMARK  Name = 
REMARK  13 active torsions:
REMARK  status: ('A' for Active; 'I' for Inactive)
REMARK    1  A    between atoms: C_1  and  C_2
REMARK    2  A    between atoms: C_2  and  C_3
REMARK    3  A    between atoms: C_3  and  C_4
REMARK    4  A    between atoms: C_3  and  C_5
REMARK    5  A    between atoms: C_3  and  S_6
REMARK    6  A    between atoms: S_6  and  C_7
REMARK    7  A    between atoms: C_7  and  O_9
REMARK    8  A    between atoms: O_9  and  C_10
REMARK    9  A    between atoms: C_10  and  C_11
REMARK   10  A    between atoms: C_11  and  N_12
REMARK   11  A    between atoms: N_12  and  C_13
REMARK   12  A    between atoms: N_12  and  C_14
REMARK   13  A    between atoms: N_12  and  C_15
REMARK                            x       y       z     vdW  Elec       q    Type
REMARK                         _______ _______ _______ _____ _____    ______ ____
ROOT
ATOM      1  C   UNL     1       3.904   4.341  17.737  0.00  0.00    +0.000 C 
ATOM      2  O   UNL     1       2.835   4.845  17.403  0.00  0.00    +0.000 OA
ENDROOT
BRANCH   1   3
ATOM      3  S   UNL     1       5.208   5.327  18.367  0.00  0.00    +0.000 S 
BRANCH   3   4
ATOM      4  C   UNL     1       6.185   5.743  16.863  0.00  0.00    +0.000 C 
ATOM      5  C   UNL     1       7.303   6.716  17.296  0.00  0.00    +0.000 C 
ATOM      6  C   UNL     1       5.252   6.466  15.880  0.00  0.00    +0.000 C 
BRANCH   4   8
ATOM      7  C   UNL     1       6.289   4.174  14.799  0.00  0.00    +0.000 C 
ATOM      8  C   UNL     1       6.829   4.507  16.188  0.00  0.00    +0.000 C 
ENDBRANCH   4   8
ENDBRANCH   3   4
ENDBRANCH   1   3
BRANCH   1   9
ATOM      9  O   UNL     1       4.089   2.992  17.749  0.00  0.00    +0.000 OA
BRANCH   9  10
ATOM     10  C   UNL     1       3.199   2.246  18.591  0.00  0.00    +0.000 C 
BRANCH  10  11
ATOM     11  C   UNL     1       3.291   2.594  20.088  0.00  0.00    +0.000 C 
BRANCH  11  12
ATOM     12  N   UNL     1       1.977   3.193  20.659  0.00  0.00    +0.000 N 
ATOM     13  C   UNL     1       1.559   2.497  21.947  0.00  0.00    +0.000 C 
ATOM     14  C   UNL     1       2.128   4.694  20.899  0.00  0.00    +0.000 C 
ATOM     15  C   UNL     1       0.866   2.993  19.624  0.00  0.00    +0.000 C 
ENDBRANCH  11  12
ENDBRANCH  10  11
ENDBRANCH   9  10
ENDBRANCH   1   9
TORSDOF 7
ENDMDL
MODEL 4
REMARK VINA RESULT:      -5.1      1.837      2.344
REMARK  Name = 
REMARK  13 active torsions:
REMARK  status: ('A' for Active; 'I' for Inactive)
REMARK    1  A    between atoms: C_1  and  C_2
REMARK    2  A    between atoms: C_2  and  C_3
REMARK    3  A    between atoms: C_3  and  C_4
REMARK    4  A    between atoms: C_3  and  C_5
REMARK    5  A    between atoms: C_3  and  S_6
REMARK    6  A    between atoms: S_6  and  C_7
REMARK    7  A    between atoms: C_7  and  O_9
REMARK    8  A    between atoms: O_9  and  C_10
REMARK    9  A    between atoms: C_10  and  C_11
REMARK   10  A    between atoms: C_11  and  N_12
REMARK   11  A    between atoms: N_12  and  C_13
REMARK   12  A    between atoms: N_12  and  C_14
REMARK   13  A    between atoms: N_12  and  C_15
REMARK                            x       y       z     vdW  Elec       q    Type
REMARK                         _______ _______ _______ _____ _____    ______ ____
ROOT
ATOM      1  C   UNL     1       2.731   3.310  17.632  0.00  0.00    +0.000 C 
ATOM      2  O   UNL     1       1.711   3.777  17.131  0.00  0.00    +0.000 OA
ENDROOT
BRANCH   1   3
ATOM      3  S   UNL     1       2.648   2.251  19.026  0.00  0.00    +0.000 S 
BRANCH   3   4
ATOM      4  C   UNL     1       2.132   3.381  20.383  0.00  0.00    +0.000 C 
ATOM      5  C   UNL     1       2.395   2.648  21.717  0.00  0.00    +0.000 C 
ATOM      6  C   UNL     1       0.622   3.628  20.243  0.00  0.00    +0.000 C 
BRANCH   4   8
ATOM      7  C   UNL     1       2.033   5.967  20.195  0.00  0.00    +0.000 C 
ATOM      8  C   UNL     1       2.900   4.726  20.389  0.00  0.00    +0.000 C 
ENDBRANCH   4   8
ENDBRANCH   3   4
ENDBRANCH   1   3
BRANCH   1   9
ATOM      9  O   UNL     1       3.956   3.492  17.067  0.00  0.00    +0.000 OA
BRANCH   9  10
ATOM     10  C   UNL     1       4.346   4.854  16.844  0.00  0.00    +0.000 C 
BRANCH  10  11
ATOM     11  C   UNL     1       5.406   5.387  17.826  0.00  0.00    +0.000 C 
BRANCH  11  12
ATOM     12  N   UNL     1       6.809   5.554  17.183  0.00  0.00    +0.000 N 
ATOM     13  C   UNL     1       6.786   5.220  15.697  0.00  0.00    +0.000 C 
ATOM     14  C   UNL     1       7.334   6.973  17.393  0.00  0.00    +0.000 C 
ATOM     15  C   UNL     1       7.774   4.588  17.876  0.00  0.00    +0.000 C 
ENDBRANCH  11  12
ENDBRANCH  10  11
ENDBRANCH   9  10
ENDBRANCH   1   9
TORSDOF 7
ENDMDL
MODEL 5
REMARK VINA RESULT:      -5.0      1.727      2.356
REMARK  Name = 
REMARK  13 active torsions:
REMARK  status: ('A' for Active; 'I' for Inactive)
REMARK    1  A    between atoms: C_1  and  C_2
REMARK    2  A    between atoms: C_2  and  C_3
REMARK    3  A    between atoms: C_3  and  C_4
REMARK    4  A    between atoms: C_3  and  C_5
REMARK    5  A    between atoms: C_3  and  S_6
REMARK    6  A    between atoms: S_6  and  C_7
REMARK    7  A    between atoms: C_7  and  O_9
REMARK    8  A    between atoms: O_9  and  C_10
REMARK    9  A    between atoms: C_10  and  C_11
REMARK   10  A    between atoms: C_11  and  N_12
REMARK   11  A    between atoms: N_12  and  C_13
REMARK   12  A    between atoms: N_12  and  C_14
REMARK   13  A    between atoms: N_12  and  C_15
REMARK                            x       y       z     vdW  Elec       q    Type
REMARK                         _______ _______ _______ _____ _____    ______ ____
ROOT
ATOM      1  C   UNL     1       3.421   3.153  18.089  0.00  0.00    +0.000 C 
ATOM      2  O   UNL     1       3.781   2.136  17.500  0.00  0.00    +0.000 OA
ENDROOT
BRANCH   1   3
ATOM      3  S   UNL     1       3.401   3.222  19.840  0.00  0.00    +0.000 S 
BRANCH   3   4
ATOM      4  C   UNL     1       1.606   3.173  20.242  0.00  0.00    +0.000 C 
ATOM      5  C   UNL     1       1.466   2.533  21.641  0.00  0.00    +0.000 C 
ATOM      6  C   UNL     1       0.916   2.265  19.211  0.00  0.00    +0.000 C 
BRANCH   4   8
ATOM      7  C   UNL     1       1.870   5.724  20.634  0.00  0.00    +0.000 C 
ATOM      8  C   UNL     1       0.941   4.571  20.261  0.00  0.00    +0.000 C 
ENDBRANCH   4   8
ENDBRANCH   3   4
ENDBRANCH   1   3
BRANCH   1   9
ATOM      9  O   UNL     1       3.135   4.305  17.421  0.00  0.00    +0.000 OA
BRANCH   9  10
ATOM     10  C   UNL     1       4.013   5.409  17.676  0.00  0.00    +0.000 C 
BRANCH  10  11
ATOM     11  C   UNL     1       5.332   5.377  16.881  0.00  0.00    +0.000 C 
BRANCH  11  12
ATOM     12  N   UNL     1       6.590   5.556  17.773  0.00  0.00    +0.000 N 
ATOM     13  C   UNL     1       6.244   5.458  19.253  0.00  0.00    +0.000 C 
ATOM     14  C   UNL     1       7.657   4.523  17.415  0.00  0.00    +0.000 C 
ATOM     15  C   UNL     1       7.174   6.947  17.508  0.00  0.00    +0.000 C 
ENDBRANCH  11  12
ENDBRANCH  10  11
ENDBRANCH   9  10
ENDBRANCH   1   9
TORSDOF 7
ENDMDL
MODEL 6
REMARK VINA RESULT:      -5.0      2.223      5.631
REMARK  Name = 
REMARK  13 active torsions:
REMARK  status: ('A' for Active; 'I' for Inactive)
REMARK    1  A    between atoms: C_1  and  C_2
REMARK    2  A    between atoms: C_2  and  C_3
REMARK    3  A    between atoms: C_3  and  C_4
REMARK    4  A    between atoms: C_3  and  C_5
REMARK    5  A    between atoms: C_3  and  S_6
REMARK    6  A    between atoms: S_6  and  C_7
REMARK    7  A    between atoms: C_7  and  O_9
REMARK    8  A    between atoms: O_9  and  C_10
REMARK    9  A    between atoms: C_10  and  C_11
REMARK   10  A    between atoms: C_11  and  N_12
REMARK   11  A    between atoms: N_12  and  C_13
REMARK   12  A    between atoms: N_12  and  C_14
REMARK   13  A    between atoms: N_12  and  C_15
REMARK                            x       y       z     vdW  Elec       q    Type
REMARK                         _______ _______ _______ _____ _____    ______ ____
ROOT
ATOM      1  C   UNL     1       5.691   4.767  19.156  0.00  0.00    +0.000 C 
ATOM      2  O   UNL     1       6.617   5.158  19.864  0.00  0.00    +0.000 OA
ENDROOT
BRANCH   1   3
ATOM      3  S   UNL     1       4.858   5.864  18.073  0.00  0.00    +0.000 S 
BRANCH   3   4
ATOM      4  C   UNL     1       6.041   6.054  16.676  0.00  0.00    +0.000 C 
ATOM      5  C   UNL     1       7.108   7.081  17.113  0.00  0.00    +0.000 C 
ATOM      6  C   UNL     1       5.267   6.623  15.477  0.00  0.00    +0.000 C 
BRANCH   4   8
ATOM      7  C   UNL     1       6.456   4.237  14.871  0.00  0.00    +0.000 C 
ATOM      8  C   UNL     1       6.748   4.732  16.284  0.00  0.00    +0.000 C 
ENDBRANCH   4   8
ENDBRANCH   3   4
ENDBRANCH   1   3
BRANCH   1   9
ATOM      9  O   UNL     1       5.346   3.452  19.090  0.00  0.00    +0.000 OA
BRANCH   9  10
ATOM     10  C   UNL     1       4.458   2.985  20.115  0.00  0.00    +0.000 C 
BRANCH  10  11
ATOM     11  C   UNL     1       3.112   2.444  19.601  0.00  0.00    +0.000 C 
BRANCH  11  12
ATOM     12  N   UNL     1       1.884   3.148  20.240  0.00  0.00    +0.000 N 
ATOM     13  C   UNL     1       1.549   2.558  21.603  0.00  0.00    +0.000 C 
ATOM     14  C   UNL     1       2.128   4.651  20.364  0.00  0.00    +0.000 C 
ATOM     15  C   UNL     1       0.678   2.943  19.318  0.00  0.00    +0.000 C 
ENDBRANCH  11  12
ENDBRANCH  10  11
ENDBRANCH   9  10
ENDBRANCH   1   9
TORSDOF 7
ENDMDL
MODEL 7
REMARK VINA RESULT:      -5.0      2.401      5.387
REMARK  Name = 
REMARK  13 active torsions:
REMARK  status: ('A' for Active; 'I' for Inactive)
REMARK    1  A    between atoms: C_1  and  C_2
REMARK    2  A    between atoms: C_2  and  C_3
REMARK    3  A    between atoms: C_3  and  C_4
REMARK    4  A    between atoms: C_3  and  C_5
REMARK    5  A    between atoms: C_3  and  S_6
REMARK    6  A    between atoms: S_6  and  C_7
REMARK    7  A    between atoms: C_7  and  O_9
REMARK    8  A    between atoms: O_9  and  C_10
REMARK    9  A    between atoms: C_10  and  C_11
REMARK   10  A    between atoms: C_11  and  N_12
REMARK   11  A    between atoms: N_12  and  C_13
REMARK   12  A    between atoms: N_12  and  C_14
REMARK   13  A    between atoms: N_12  and  C_15
REMARK                            x       y       z     vdW  Elec       q    Type
REMARK                         _______ _______ _______ _____ _____    ______ ____
ROOT
ATOM      1  C   UNL     1       6.407   4.681  18.919  0.00  0.00    +0.000 C 
ATOM      2  O   UNL     1       6.661   5.545  19.754  0.00  0.00    +0.000 OA
ENDROOT
BRANCH   1   3
ATOM      3  S   UNL     1       7.281   4.610  17.401  0.00  0.00    +0.000 S 
BRANCH   3   4
ATOM      4  C   UNL     1       5.969   4.915  16.146  0.00  0.00    +0.000 C 
ATOM      5  C   UNL     1       5.207   6.187  16.578  0.00  0.00    +0.000 C 
ATOM      6  C   UNL     1       5.000   3.722  16.178  0.00  0.00    +0.000 C 
BRANCH   4   8
ATOM      7  C   UNL     1       6.237   3.985  13.739  0.00  0.00    +0.000 C 
ATOM      8  C   UNL     1       6.524   5.123  14.715  0.00  0.00    +0.000 C 
ENDBRANCH   4   8
ENDBRANCH   3   4
ENDBRANCH   1   3
BRANCH   1   9
ATOM      9  O   UNL     1       5.528   3.674  19.173  0.00  0.00    +0.000 OA
BRANCH   9  10
ATOM     10  C   UNL     1       4.223   4.078  19.609  0.00  0.00    +0.000 C 
BRANCH  10  11
ATOM     11  C   UNL     1       3.142   2.986  19.497  0.00  0.00    +0.000 C 
BRANCH  11  12
ATOM     12  N   UNL     1       1.728   3.552  19.198  0.00  0.00    +0.000 N 
ATOM     13  C   UNL     1       0.759   2.449  18.794  0.00  0.00    +0.000 C 
ATOM     14  C   UNL     1       1.184   4.312  20.406  0.00  0.00    +0.000 C 
ATOM     15  C   UNL     1       1.841   4.541  18.033  0.00  0.00    +0.000 C 
ENDBRANCH  11  12
ENDBRANCH  10  11
ENDBRANCH   9  10
ENDBRANCH   1   9
TORSDOF 7
ENDMDL
MODEL 8
REMARK VINA RESULT:      -5.0      2.173      5.493
REMARK  Name = 
REMARK  13 active torsions:
REMARK  status: ('A' for Active; 'I' for Inactive)
REMARK    1  A    between atoms: C_1  and  C_2
REMARK    2  A    between atoms: C_2  and  C_3
REMARK    3  A    between atoms: C_3  and  C_4
REMARK    4  A    between atoms: C_3  and  C_5
REMARK    5  A    between atoms: C_3  and  S_6
REMARK    6  A    between atoms: S_6  and  C_7
REMARK    7  A    between atoms: C_7  and  O_9
REMARK    8  A    between atoms: O_9  and  C_10
REMARK    9  A    between atoms: C_10  and  C_11
REMARK   10  A    between atoms: C_11  and  N_12
REMARK   11  A    between atoms: N_12  and  C_13
REMARK   12  A    between atoms: N_12  and  C_14
REMARK   13  A    between atoms: N_12  and  C_15
REMARK                            x       y       z     vdW  Elec       q    Type
REMARK                         _______ _______ _______ _____ _____    ______ ____
ROOT
ATOM      1  C   UNL     1       5.961   4.904  19.309  0.00  0.00    +0.000 C 
ATOM      2  O   UNL     1       6.868   5.421  19.958  0.00  0.00    +0.000 OA
ENDROOT
BRANCH   1   3
ATOM      3  S   UNL     1       5.164   5.780  18.018  0.00  0.00    +0.000 S 
BRANCH   3   4
ATOM      4  C   UNL     1       6.425   5.793  16.677  0.00  0.00    +0.000 C 
ATOM      5  C   UNL     1       7.259   4.501  16.819  0.00  0.00    +0.000 C 
ATOM      6  C   UNL     1       7.343   7.004  16.906  0.00  0.00    +0.000 C 
BRANCH   4   8
ATOM      7  C   UNL     1       5.563   4.481  14.612  0.00  0.00    +0.000 C 
ATOM      8  C   UNL     1       5.811   5.842  15.257  0.00  0.00    +0.000 C 
ENDBRANCH   4   8
ENDBRANCH   3   4
ENDBRANCH   1   3
BRANCH   1   9
ATOM      9  O   UNL     1       5.613   3.599  19.477  0.00  0.00    +0.000 OA
BRANCH   9  10
ATOM     10  C   UNL     1       4.321   3.227  18.979  0.00  0.00    +0.000 C 
BRANCH  10  11
ATOM     11  C   UNL     1       3.174   3.374  19.996  0.00  0.00    +0.000 C 
BRANCH  11  12
ATOM     12  N   UNL     1       1.776   3.486  19.331  0.00  0.00    +0.000 N 
ATOM     13  C   UNL     1       1.795   4.443  18.147  0.00  0.00    +0.000 C 
ATOM     14  C   UNL     1       1.278   2.112  18.886  0.00  0.00    +0.000 C 
ATOM     15  C   UNL     1       0.790   4.029  20.370  0.00  0.00    +0.000 C 
ENDBRANCH  11  12
ENDBRANCH  10  11
ENDBRANCH   9  10
ENDBRANCH   1   9
TORSDOF 7
ENDMDL
MODEL 9
REMARK VINA RESULT:      -5.0      2.217      5.487
REMARK  Name = 
REMARK  13 active torsions:
REMARK  status: ('A' for Active; 'I' for Inactive)
REMARK    1  A    between atoms: C_1  and  C_2
REMARK    2  A    between atoms: C_2  and  C_3
REMARK    3  A    between atoms: C_3  and  C_4
REMARK    4  A    between atoms: C_3  and  C_5
REMARK    5  A    between atoms: C_3  and  S_6
REMARK    6  A    between atoms: S_6  and  C_7
REMARK    7  A    between atoms: C_7  and  O_9
REMARK    8  A    between atoms: O_9  and  C_10
REMARK    9  A    between atoms: C_10  and  C_11
REMARK   10  A    between atoms: C_11  and  N_12
REMARK   11  A    between atoms: N_12  and  C_13
REMARK   12  A    between atoms: N_12  and  C_14
REMARK   13  A    between atoms: N_12  and  C_15
REMARK                            x       y       z     vdW  Elec       q    Type
REMARK                         _______ _______ _______ _____ _____    ______ ____
ROOT
ATOM      1  C   UNL     1       5.588   5.123  18.999  0.00  0.00    +0.000 C 
ATOM      2  O   UNL     1       6.397   4.967  19.911  0.00  0.00    +0.000 OA
ENDROOT
BRANCH   1   3
ATOM      3  S   UNL     1       5.748   4.245  17.492  0.00  0.00    +0.000 S 
BRANCH   3   4
ATOM      4  C   UNL     1       6.331   5.533  16.314  0.00  0.00    +0.000 C 
ATOM      5  C   UNL     1       7.340   6.424  17.070  0.00  0.00    +0.000 C 
ATOM      6  C   UNL     1       5.118   6.388  15.913  0.00  0.00    +0.000 C 
BRANCH   4   8
ATOM      7  C   UNL     1       6.185   3.943  14.269  0.00  0.00    +0.000 C 
ATOM      8  C   UNL     1       7.020   4.950  15.056  0.00  0.00    +0.000 C 
ENDBRANCH   4   8
ENDBRANCH   3   4
ENDBRANCH   1   3
BRANCH   1   9
ATOM      9  O   UNL     1       4.472   5.887  19.154  0.00  0.00    +0.000 OA
BRANCH   9  10
ATOM     10  C   UNL     1       3.387   5.273  19.864  0.00  0.00    +0.000 C 
BRANCH  10  11
ATOM     11  C   UNL     1       2.333   4.599  18.966  0.00  0.00    +0.000 C 
BRANCH  11  12
ATOM     12  N   UNL     1       2.211   3.070  19.206  0.00  0.00    +0.000 N 
ATOM     13  C   UNL     1       0.788   2.674  19.575  0.00  0.00    +0.000 C 
ATOM     14  C   UNL     1       2.670   2.292  17.975  0.00  0.00    +0.000 C 
ATOM     15  C   UNL     1       3.131   2.691  20.371  0.00  0.00    +0.000 C 
ENDBRANCH  11  12
ENDBRANCH  10  11
ENDBRANCH   9  10
ENDBRANCH   1   9
TORSDOF 7
ENDMDL
