MODEL 1
REMARK VINA RESULT:      -8.8      0.000      0.000
REMARK  Name = 
REMARK  4 active torsions:
REMARK  status: ('A' for Active; 'I' for Inactive)
REMARK    1  A    between atoms: C_2  and  C_10
REMARK    2  A    between atoms: N_3  and  C_4
REMARK    3  A    between atoms: C_13  and  N_14
REMARK    4  A    between atoms: N_15  and  C_16
REMARK                            x       y       z     vdW  Elec       q    Type
REMARK                         _______ _______ _______ _____ _____    ______ ____
ROOT
ATOM      1  C   UNL     1       7.885   8.074  18.178  0.00  0.00    +0.000 A 
ATOM      2  C   UNL     1       8.295   6.984  18.940  0.00  0.00    +0.000 A 
ATOM      3  C   UNL     1       7.599   5.785  18.827  0.00  0.00    +0.000 A 
ATOM      4  C   UNL     1       6.468   5.639  17.980  0.00  0.00    +0.000 A 
ATOM      5  C   UNL     1       6.138   6.732  17.163  0.00  0.00    +0.000 A 
ATOM      6  C   UNL     1       6.841   7.947  17.261  0.00  0.00    +0.000 A 
ENDROOT
BRANCH   1   8
ATOM      7  O   UNL     1       8.253  10.224  17.418  0.00  0.00    +0.000 OA
ATOM      8  C   UNL     1       8.530   9.406  18.287  0.00  0.00    +0.000 C 
ATOM      9  N   UNL     1       9.365   9.614  19.370  0.00  0.00    +0.000 N 
ATOM     10  H   UNL     1       9.611   8.825  19.950  0.00  0.00    +0.000 HD
BRANCH   9  11
ATOM     11  C   UNL     1       9.915  10.864  19.737  0.00  0.00    +0.000 A 
ATOM     12  C   UNL     1       9.445  11.612  20.824  0.00  0.00    +0.000 A 
ATOM     13  C   UNL     1      10.008  12.857  21.129  0.00  0.00    +0.000 A 
ATOM     14  C   UNL     1      11.042  13.360  20.352  0.00  0.00    +0.000 A 
ATOM     15  C   UNL     1      11.538  12.614  19.286  0.00  0.00    +0.000 A 
ATOM     16  C   UNL     1      10.985  11.364  18.989  0.00  0.00    +0.000 A 
ENDBRANCH   9  11
ENDBRANCH   1   8
BRANCH   4  17
ATOM     17  N   UNL     1       5.685   4.494  17.961  0.00  0.00    +0.000 NA
ATOM     18  N   UNL     1       5.477   4.047  19.106  0.00  0.00    +0.000 NA
BRANCH  18  19
ATOM     19  C   UNL     1       4.451   3.109  19.068  0.00  0.00    +0.000 A 
ATOM     20  C   UNL     1       4.560   1.743  19.037  0.00  0.00    +0.000 A 
ATOM     21  N   UNL     1       3.341   1.370  18.531  0.00  0.00    +0.000 N 
ATOM     22  C   UNL     1       2.397   2.216  19.070  0.00  0.00    +0.000 A 
ATOM     23  C   UNL     1       1.022   2.091  19.256  0.00  0.00    +0.000 A 
ATOM     24  C   UNL     1       0.385   3.148  19.917  0.00  0.00    +0.000 A 
ATOM     25  C   UNL     1       1.081   4.298  20.303  0.00  0.00    +0.000 A 
ATOM     26  C   UNL     1       2.435   4.439  20.012  0.00  0.00    +0.000 A 
ATOM     27  C   UNL     1       3.097   3.373  19.415  0.00  0.00    +0.000 A 
ATOM     28  H   UNL     1       3.172   0.710  17.782  0.00  0.00    +0.000 HD
ENDBRANCH  18  19
ENDBRANCH   4  17
TORSDOF 4
ENDMDL
MODEL 2
REMARK VINA RESULT:      -8.4      6.326      8.698
REMARK  Name = 
REMARK  4 active torsions:
REMARK  status: ('A' for Active; 'I' for Inactive)
REMARK    1  A    between atoms: C_2  and  C_10
REMARK    2  A    between atoms: N_3  and  C_4
REMARK    3  A    between atoms: C_13  and  N_14
REMARK    4  A    between atoms: N_15  and  C_16
REMARK                            x       y       z     vdW  Elec       q    Type
REMARK                         _______ _______ _______ _____ _____    ______ ____
ROOT
ATOM      1  C   UNL     1       0.331   9.883  20.524  0.00  0.00    +0.000 A 
ATOM      2  C   UNL     1       0.957   9.820  19.283  0.00  0.00    +0.000 A 
ATOM      3  C   UNL     1       1.726   8.704  18.975  0.00  0.00    +0.000 A 
ATOM      4  C   UNL     1       1.916   7.634  19.890  0.00  0.00    +0.000 A 
ATOM      5  C   UNL     1       1.201   7.692  21.096  0.00  0.00    +0.000 A 
ATOM      6  C   UNL     1       0.411   8.812  21.416  0.00  0.00    +0.000 A 
ENDROOT
BRANCH   1   8
ATOM      7  O   UNL     1      -0.981  11.731  20.077  0.00  0.00    +0.000 OA
ATOM      8  C   UNL     1      -0.453  11.066  20.960  0.00  0.00    +0.000 C 
ATOM      9  N   UNL     1      -0.537  11.298  22.320  0.00  0.00    +0.000 N 
ATOM     10  H   UNL     1       0.042  10.752  22.942  0.00  0.00    +0.000 HD
BRANCH   9  11
ATOM     11  C   UNL     1      -1.383  12.256  22.925  0.00  0.00    +0.000 A 
ATOM     12  C   UNL     1      -0.998  13.586  23.135  0.00  0.00    +0.000 A 
ATOM     13  C   UNL     1      -1.865  14.489  23.762  0.00  0.00    +0.000 A 
ATOM     14  C   UNL     1      -3.118  14.069  24.185  0.00  0.00    +0.000 A 
ATOM     15  C   UNL     1      -3.525  12.756  23.957  0.00  0.00    +0.000 A 
ATOM     16  C   UNL     1      -2.665  11.858  23.317  0.00  0.00    +0.000 A 
ENDBRANCH   9  11
ENDBRANCH   1   8
BRANCH   4  17
ATOM     17  N   UNL     1       2.788   6.582  19.648  0.00  0.00    +0.000 NA
ATOM     18  N   UNL     1       3.284   6.636  18.505  0.00  0.00    +0.000 NA
BRANCH  18  19
ATOM     19  C   UNL     1       4.367   5.767  18.419  0.00  0.00    +0.000 A 
ATOM     20  C   UNL     1       4.674   4.720  19.247  0.00  0.00    +0.000 A 
ATOM     21  N   UNL     1       6.014   4.549  19.007  0.00  0.00    +0.000 N 
ATOM     22  C   UNL     1       6.220   4.762  17.662  0.00  0.00    +0.000 A 
ATOM     23  C   UNL     1       7.227   4.353  16.791  0.00  0.00    +0.000 A 
ATOM     24  C   UNL     1       7.067   4.705  15.446  0.00  0.00    +0.000 A 
ATOM     25  C   UNL     1       5.990   5.488  15.015  0.00  0.00    +0.000 A 
ATOM     26  C   UNL     1       5.054   5.968  15.926  0.00  0.00    +0.000 A 
ATOM     27  C   UNL     1       5.161   5.574  17.254  0.00  0.00    +0.000 A 
ATOM     28  H   UNL     1       6.745   4.445  19.700  0.00  0.00    +0.000 HD
ENDBRANCH  18  19
ENDBRANCH   4  17
TORSDOF 4
ENDMDL
MODEL 3
REMARK VINA RESULT:      -8.3      1.601      1.839
REMARK  Name = 
REMARK  4 active torsions:
REMARK  status: ('A' for Active; 'I' for Inactive)
REMARK    1  A    between atoms: C_2  and  C_10
REMARK    2  A    between atoms: N_3  and  C_4
REMARK    3  A    between atoms: C_13  and  N_14
REMARK    4  A    between atoms: N_15  and  C_16
REMARK                            x       y       z     vdW  Elec       q    Type
REMARK                         _______ _______ _______ _____ _____    ______ ____
ROOT
ATOM      1  C   UNL     1       8.337   8.603  18.473  0.00  0.00    +0.000 A 
ATOM      2  C   UNL     1       8.581   7.420  19.164  0.00  0.00    +0.000 A 
ATOM      3  C   UNL     1       7.818   6.297  18.866  0.00  0.00    +0.000 A 
ATOM      4  C   UNL     1       6.780   6.318  17.896  0.00  0.00    +0.000 A 
ATOM      5  C   UNL     1       6.620   7.502  17.159  0.00  0.00    +0.000 A 
ATOM      6  C   UNL     1       7.393   8.643  17.445  0.00  0.00    +0.000 A 
ENDROOT
BRANCH   1   8
ATOM      7  O   UNL     1       9.454  10.010  19.924  0.00  0.00    +0.000 OA
ATOM      8  C   UNL     1       9.059   9.864  18.775  0.00  0.00    +0.000 C 
ATOM      9  N   UNL     1       9.244  10.748  17.728  0.00  0.00    +0.000 N 
ATOM     10  H   UNL     1       8.766  10.573  16.855  0.00  0.00    +0.000 HD
BRANCH   9  11
ATOM     11  C   UNL     1      10.060  11.902  17.779  0.00  0.00    +0.000 A 
ATOM     12  C   UNL     1      11.457  11.843  17.865  0.00  0.00    +0.000 A 
ATOM     13  C   UNL     1      12.217  13.016  17.940  0.00  0.00    +0.000 A 
ATOM     14  C   UNL     1      11.587  14.252  17.930  0.00  0.00    +0.000 A 
ATOM     15  C   UNL     1      10.201  14.327  17.817  0.00  0.00    +0.000 A 
ATOM     16  C   UNL     1       9.443  13.155  17.728  0.00  0.00    +0.000 A 
ENDBRANCH   9  11
ENDBRANCH   1   8
BRANCH   4  17
ATOM     17  N   UNL     1       5.924   5.247  17.686  0.00  0.00    +0.000 NA
ATOM     18  N   UNL     1       5.182   5.038  18.666  0.00  0.00    +0.000 NA
BRANCH  18  19
ATOM     19  C   UNL     1       4.148   4.183  18.303  0.00  0.00    +0.000 A 
ATOM     20  C   UNL     1       4.156   3.217  17.330  0.00  0.00    +0.000 A 
ATOM     21  N   UNL     1       2.817   3.047  17.084  0.00  0.00    +0.000 N 
ATOM     22  C   UNL     1       2.163   3.145  18.293  0.00  0.00    +0.000 A 
ATOM     23  C   UNL     1       0.925   2.677  18.730  0.00  0.00    +0.000 A 
ATOM     24  C   UNL     1       0.614   2.907  20.075  0.00  0.00    +0.000 A 
ATOM     25  C   UNL     1       1.467   3.632  20.913  0.00  0.00    +0.000 A 
ATOM     26  C   UNL     1       2.651   4.175  20.421  0.00  0.00    +0.000 A 
ATOM     27  C   UNL     1       3.008   3.901  19.106  0.00  0.00    +0.000 A 
ATOM     28  H   UNL     1       2.368   3.016  16.178  0.00  0.00    +0.000 HD
ENDBRANCH  18  19
ENDBRANCH   4  17
TORSDOF 4
ENDMDL
MODEL 4
REMARK VINA RESULT:      -8.2      7.023      9.317
REMARK  Name = 
REMARK  4 active torsions:
REMARK  status: ('A' for Active; 'I' for Inactive)
REMARK    1  A    between atoms: C_2  and  C_10
REMARK    2  A    between atoms: N_3  and  C_4
REMARK    3  A    between atoms: C_13  and  N_14
REMARK    4  A    between atoms: N_15  and  C_16
REMARK                            x       y       z     vdW  Elec       q    Type
REMARK                         _______ _______ _______ _____ _____    ______ ____
ROOT
ATOM      1  C   UNL     1       2.379   7.770  18.681  0.00  0.00    +0.000 A 
ATOM      2  C   UNL     1       1.917   8.751  17.810  0.00  0.00    +0.000 A 
ATOM      3  C   UNL     1       0.989   9.677  18.272  0.00  0.00    +0.000 A 
ATOM      4  C   UNL     1       0.476   9.644  19.597  0.00  0.00    +0.000 A 
ATOM      5  C   UNL     1       1.029   8.696  20.471  0.00  0.00    +0.000 A 
ATOM      6  C   UNL     1       1.977   7.759  20.017  0.00  0.00    +0.000 A 
ENDROOT
BRANCH   1   8
ATOM      7  O   UNL     1       3.025   5.556  18.555  0.00  0.00    +0.000 OA
ATOM      8  C   UNL     1       3.319   6.704  18.251  0.00  0.00    +0.000 C 
ATOM      9  N   UNL     1       4.428   7.100  17.524  0.00  0.00    +0.000 N 
ATOM     10  H   UNL     1       4.626   8.087  17.442  0.00  0.00    +0.000 HD
BRANCH   9  11
ATOM     11  C   UNL     1       5.326   6.220  16.878  0.00  0.00    +0.000 A 
ATOM     12  C   UNL     1       5.236   5.906  15.516  0.00  0.00    +0.000 A 
ATOM     13  C   UNL     1       6.135   5.007  14.930  0.00  0.00    +0.000 A 
ATOM     14  C   UNL     1       7.127   4.417  15.701  0.00  0.00    +0.000 A 
ATOM     15  C   UNL     1       7.246   4.742  17.050  0.00  0.00    +0.000 A 
ATOM     16  C   UNL     1       6.357   5.650  17.632  0.00  0.00    +0.000 A 
ENDBRANCH   9  11
ENDBRANCH   1   8
BRANCH   4  17
ATOM     17  N   UNL     1      -0.548  10.475  20.028  0.00  0.00    +0.000 NA
ATOM     18  N   UNL     1      -0.838  11.343  19.182  0.00  0.00    +0.000 NA
BRANCH  18  19
ATOM     19  C   UNL     1      -2.051  11.937  19.511  0.00  0.00    +0.000 A 
ATOM     20  C   UNL     1      -2.274  12.968  20.386  0.00  0.00    +0.000 A 
ATOM     21  N   UNL     1      -3.605  12.813  20.679  0.00  0.00    +0.000 N 
ATOM     22  C   UNL     1      -4.237  12.426  19.517  0.00  0.00    +0.000 A 
ATOM     23  C   UNL     1      -5.563  12.512  19.098  0.00  0.00    +0.000 A 
ATOM     24  C   UNL     1      -5.833  12.071  17.797  0.00  0.00    +0.000 A 
ATOM     25  C   UNL     1      -4.838  11.507  16.991  0.00  0.00    +0.000 A 
ATOM     26  C   UNL     1      -3.543  11.340  17.476  0.00  0.00    +0.000 A 
ATOM     27  C   UNL     1      -3.242  11.832  18.740  0.00  0.00    +0.000 A 
ATOM     28  H   UNL     1      -4.028  12.822  21.598  0.00  0.00    +0.000 HD
ENDBRANCH  18  19
ENDBRANCH   4  17
TORSDOF 4
ENDMDL
MODEL 5
REMARK VINA RESULT:      -8.1      1.967     10.065
REMARK  Name = 
REMARK  4 active torsions:
REMARK  status: ('A' for Active; 'I' for Inactive)
REMARK    1  A    between atoms: C_2  and  C_10
REMARK    2  A    between atoms: N_3  and  C_4
REMARK    3  A    between atoms: C_13  and  N_14
REMARK    4  A    between atoms: N_15  and  C_16
REMARK                            x       y       z     vdW  Elec       q    Type
REMARK                         _______ _______ _______ _____ _____    ______ ____
ROOT
ATOM      1  C   UNL     1       6.110   5.890  18.325  0.00  0.00    +0.000 A 
ATOM      2  C   UNL     1       5.818   6.815  17.327  0.00  0.00    +0.000 A 
ATOM      3  C   UNL     1       6.705   7.860  17.099  0.00  0.00    +0.000 A 
ATOM      4  C   UNL     1       7.890   8.033  17.864  0.00  0.00    +0.000 A 
ATOM      5  C   UNL     1       8.194   7.035  18.802  0.00  0.00    +0.000 A 
ATOM      6  C   UNL     1       7.309   5.967  19.036  0.00  0.00    +0.000 A 
ENDROOT
BRANCH   1   8
ATOM      7  O   UNL     1       5.696   3.750  19.089  0.00  0.00    +0.000 OA
ATOM      8  C   UNL     1       5.185   4.784  18.678  0.00  0.00    +0.000 C 
ATOM      9  N   UNL     1       3.831   5.027  18.536  0.00  0.00    +0.000 N 
ATOM     10  H   UNL     1       3.537   5.874  18.073  0.00  0.00    +0.000 HD
BRANCH   9  11
ATOM     11  C   UNL     1       2.804   4.169  18.994  0.00  0.00    +0.000 A 
ATOM     12  C   UNL     1       2.135   3.269  18.155  0.00  0.00    +0.000 A 
ATOM     13  C   UNL     1       1.107   2.460  18.654  0.00  0.00    +0.000 A 
ATOM     14  C   UNL     1       0.742   2.545  19.990  0.00  0.00    +0.000 A 
ATOM     15  C   UNL     1       1.419   3.415  20.842  0.00  0.00    +0.000 A 
ATOM     16  C   UNL     1       2.455   4.214  20.347  0.00  0.00    +0.000 A 
ENDBRANCH   9  11
ENDBRANCH   1   8
BRANCH   4  17
ATOM     17  N   UNL     1       8.711   9.144  17.738  0.00  0.00    +0.000 NA
ATOM     18  N   UNL     1       8.564   9.947  18.680  0.00  0.00    +0.000 NA
BRANCH  18  19
ATOM     19  C   UNL     1       9.607  10.868  18.684  0.00  0.00    +0.000 A 
ATOM     20  C   UNL     1      10.493  11.140  17.674  0.00  0.00    +0.000 A 
ATOM     21  N   UNL     1      11.534  11.718  18.356  0.00  0.00    +0.000 N 
ATOM     22  C   UNL     1      10.989  12.499  19.351  0.00  0.00    +0.000 A 
ATOM     23  C   UNL     1      11.483  13.590  20.063  0.00  0.00    +0.000 A 
ATOM     24  C   UNL     1      10.602  14.190  20.971  0.00  0.00    +0.000 A 
ATOM     25  C   UNL     1       9.322  13.674  21.202  0.00  0.00    +0.000 A 
ATOM     26  C   UNL     1       8.894  12.521  20.550  0.00  0.00    +0.000 A 
ATOM     27  C   UNL     1       9.730  11.951  19.598  0.00  0.00    +0.000 A 
ATOM     28  H   UNL     1      12.517  11.497  18.260  0.00  0.00    +0.000 HD
ENDBRANCH  18  19
ENDBRANCH   4  17
TORSDOF 4
ENDMDL
MODEL 6
REMARK VINA RESULT:      -8.1      6.881      9.344
REMARK  Name = 
REMARK  4 active torsions:
REMARK  status: ('A' for Active; 'I' for Inactive)
REMARK    1  A    between atoms: C_2  and  C_10
REMARK    2  A    between atoms: N_3  and  C_4
REMARK    3  A    between atoms: C_13  and  N_14
REMARK    4  A    between atoms: N_15  and  C_16
REMARK                            x       y       z     vdW  Elec       q    Type
REMARK                         _______ _______ _______ _____ _____    ______ ____
ROOT
ATOM      1  C   UNL     1       2.389   7.511  18.810  0.00  0.00    +0.000 A 
ATOM      2  C   UNL     1       1.966   7.454  20.134  0.00  0.00    +0.000 A 
ATOM      3  C   UNL     1       1.185   8.489  20.636  0.00  0.00    +0.000 A 
ATOM      4  C   UNL     1       0.822   9.616  19.852  0.00  0.00    +0.000 A 
ATOM      5  C   UNL     1       1.193   9.598  18.499  0.00  0.00    +0.000 A 
ATOM      6  C   UNL     1       1.975   8.552  17.977  0.00  0.00    +0.000 A 
ENDROOT
BRANCH   1   8
ATOM      7  O   UNL     1       2.902   5.320  18.288  0.00  0.00    +0.000 OA
ATOM      8  C   UNL     1       3.279   6.483  18.215  0.00  0.00    +0.000 C 
ATOM      9  N   UNL     1       4.440   6.931  17.610  0.00  0.00    +0.000 N 
ATOM     10  H   UNL     1       4.701   7.900  17.721  0.00  0.00    +0.000 HD
BRANCH   9  11
ATOM     11  C   UNL     1       5.308   6.128  16.836  0.00  0.00    +0.000 A 
ATOM     12  C   UNL     1       5.189   5.998  15.446  0.00  0.00    +0.000 A 
ATOM     13  C   UNL     1       6.060   5.168  14.731  0.00  0.00    +0.000 A 
ATOM     14  C   UNL     1       7.053   4.464  15.397  0.00  0.00    +0.000 A 
ATOM     15  C   UNL     1       7.201   4.606  16.775  0.00  0.00    +0.000 A 
ATOM     16  C   UNL     1       6.340   5.445  17.488  0.00  0.00    +0.000 A 
ENDBRANCH   9  11
ENDBRANCH   1   8
BRANCH   4  17
ATOM     17  N   UNL     1       0.160  10.717  20.378  0.00  0.00    +0.000 NA
ATOM     18  N   UNL     1       0.585  11.024  21.509  0.00  0.00    +0.000 NA
BRANCH  18  19
ATOM     19  C   UNL     1       0.129  12.292  21.856  0.00  0.00    +0.000 A 
ATOM     20  C   UNL     1       0.479  13.494  21.301  0.00  0.00    +0.000 A 
ATOM     21  N   UNL     1       0.139  14.378  22.293  0.00  0.00    +0.000 N 
ATOM     22  C   UNL     1      -1.029  13.923  22.865  0.00  0.00    +0.000 A 
ATOM     23  C   UNL     1      -2.029  14.565  23.592  0.00  0.00    +0.000 A 
ATOM     24  C   UNL     1      -3.129  13.781  23.961  0.00  0.00    +0.000 A 
ATOM     25  C   UNL     1      -3.183  12.412  23.678  0.00  0.00    +0.000 A 
ATOM     26  C   UNL     1      -2.121  11.778  23.039  0.00  0.00    +0.000 A 
ATOM     27  C   UNL     1      -1.051  12.551  22.608  0.00  0.00    +0.000 A 
ATOM     28  H   UNL     1       0.710  15.133  22.653  0.00  0.00    +0.000 HD
ENDBRANCH  18  19
ENDBRANCH   4  17
TORSDOF 4
ENDMDL
MODEL 7
REMARK VINA RESULT:      -8.1      6.674      8.510
REMARK  Name = 
REMARK  4 active torsions:
REMARK  status: ('A' for Active; 'I' for Inactive)
REMARK    1  A    between atoms: C_2  and  C_10
REMARK    2  A    between atoms: N_3  and  C_4
REMARK    3  A    between atoms: C_13  and  N_14
REMARK    4  A    between atoms: N_15  and  C_16
REMARK                            x       y       z     vdW  Elec       q    Type
REMARK                         _______ _______ _______ _____ _____    ______ ____
ROOT
ATOM      1  C   UNL     1       0.055  10.594  20.348  0.00  0.00    +0.000 A 
ATOM      2  C   UNL     1       0.353  10.552  18.990  0.00  0.00    +0.000 A 
ATOM      3  C   UNL     1       1.113   9.495  18.501  0.00  0.00    +0.000 A 
ATOM      4  C   UNL     1       1.617   8.467  19.343  0.00  0.00    +0.000 A 
ATOM      5  C   UNL     1       1.224   8.497  20.690  0.00  0.00    +0.000 A 
ATOM      6  C   UNL     1       0.448   9.556  21.195  0.00  0.00    +0.000 A 
ENDROOT
BRANCH   1   8
ATOM      7  O   UNL     1      -1.135  12.569  20.199  0.00  0.00    +0.000 OA
ATOM      8  C   UNL     1      -0.693  11.720  20.963  0.00  0.00    +0.000 C 
ATOM      9  N   UNL     1      -0.846  11.696  22.337  0.00  0.00    +0.000 N 
ATOM     10  H   UNL     1      -0.333  11.009  22.870  0.00  0.00    +0.000 HD
BRANCH   9  11
ATOM     11  C   UNL     1      -1.677  12.573  23.072  0.00  0.00    +0.000 A 
ATOM     12  C   UNL     1      -1.264  13.846  23.484  0.00  0.00    +0.000 A 
ATOM     13  C   UNL     1      -2.118  14.665  24.233  0.00  0.00    +0.000 A 
ATOM     14  C   UNL     1      -3.386  14.217  24.574  0.00  0.00    +0.000 A 
ATOM     15  C   UNL     1      -3.821  12.965  24.147  0.00  0.00    +0.000 A 
ATOM     16  C   UNL     1      -2.973  12.152  23.387  0.00  0.00    +0.000 A 
ENDBRANCH   9  11
ENDBRANCH   1   8
BRANCH   4  17
ATOM     17  N   UNL     1       2.487   7.485  18.893  0.00  0.00    +0.000 NA
ATOM     18  N   UNL     1       2.817   6.696  19.800  0.00  0.00    +0.000 NA
BRANCH  18  19
ATOM     19  C   UNL     1       3.420   5.570  19.251  0.00  0.00    +0.000 A 
ATOM     20  C   UNL     1       4.752   5.252  19.233  0.00  0.00    +0.000 A 
ATOM     21  N   UNL     1       4.819   4.354  18.198  0.00  0.00    +0.000 N 
ATOM     22  C   UNL     1       3.679   3.582  18.251  0.00  0.00    +0.000 A 
ATOM     23  C   UNL     1       3.382   2.313  17.760  0.00  0.00    +0.000 A 
ATOM     24  C   UNL     1       2.116   1.806  18.072  0.00  0.00    +0.000 A 
ATOM     25  C   UNL     1       1.175   2.563  18.777  0.00  0.00    +0.000 A 
ATOM     26  C   UNL     1       1.464   3.868  19.168  0.00  0.00    +0.000 A 
ATOM     27  C   UNL     1       2.739   4.364  18.923  0.00  0.00    +0.000 A 
ATOM     28  H   UNL     1       5.489   4.354  17.439  0.00  0.00    +0.000 HD
ENDBRANCH  18  19
ENDBRANCH   4  17
TORSDOF 4
ENDMDL
MODEL 8
REMARK VINA RESULT:      -8.0      6.205      8.355
REMARK  Name = 
REMARK  4 active torsions:
REMARK  status: ('A' for Active; 'I' for Inactive)
REMARK    1  A    between atoms: C_2  and  C_10
REMARK    2  A    between atoms: N_3  and  C_4
REMARK    3  A    between atoms: C_13  and  N_14
REMARK    4  A    between atoms: N_15  and  C_16
REMARK                            x       y       z     vdW  Elec       q    Type
REMARK                         _______ _______ _______ _____ _____    ______ ____
ROOT
ATOM      1  C   UNL     1       0.612   9.598  20.556  0.00  0.00    +0.000 A 
ATOM      2  C   UNL     1       0.884   8.605  21.492  0.00  0.00    +0.000 A 
ATOM      3  C   UNL     1       1.642   7.506  21.104  0.00  0.00    +0.000 A 
ATOM      4  C   UNL     1       2.130   7.347  19.779  0.00  0.00    +0.000 A 
ATOM      5  C   UNL     1       1.910   8.409  18.888  0.00  0.00    +0.000 A 
ATOM      6  C   UNL     1       1.153   9.531  19.271  0.00  0.00    +0.000 A 
ENDROOT
BRANCH   1   8
ATOM      7  O   UNL     1      -0.889  11.242  19.941  0.00  0.00    +0.000 OA
ATOM      8  C   UNL     1      -0.244  10.770  20.868  0.00  0.00    +0.000 C 
ATOM      9  N   UNL     1      -0.255  11.209  22.179  0.00  0.00    +0.000 N 
ATOM     10  H   UNL     1       0.413  10.817  22.827  0.00  0.00    +0.000 HD
BRANCH   9  11
ATOM     11  C   UNL     1      -1.139  12.183  22.698  0.00  0.00    +0.000 A 
ATOM     12  C   UNL     1      -0.820  13.545  22.761  0.00  0.00    +0.000 A 
ATOM     13  C   UNL     1      -1.723  14.464  23.308  0.00  0.00    +0.000 A 
ATOM     14  C   UNL     1      -2.947  14.029  23.795  0.00  0.00    +0.000 A 
ATOM     15  C   UNL     1      -3.290  12.682  23.712  0.00  0.00    +0.000 A 
ATOM     16  C   UNL     1      -2.394  11.765  23.153  0.00  0.00    +0.000 A 
ENDBRANCH   9  11
ENDBRANCH   1   8
BRANCH   4  17
ATOM     17  N   UNL     1       2.769   6.195  19.346  0.00  0.00    +0.000 NA
ATOM     18  N   UNL     1       2.294   5.768  18.275  0.00  0.00    +0.000 NA
BRANCH  18  19
ATOM     19  C   UNL     1       3.149   4.819  17.724  0.00  0.00    +0.000 A 
ATOM     20  C   UNL     1       2.913   3.482  17.534  0.00  0.00    +0.000 A 
ATOM     21  N   UNL     1       4.186   2.979  17.435  0.00  0.00    +0.000 N 
ATOM     22  C   UNL     1       4.937   3.899  16.737  0.00  0.00    +0.000 A 
ATOM     23  C   UNL     1       6.114   3.784  16.001  0.00  0.00    +0.000 A 
ATOM     24  C   UNL     1       6.560   4.944  15.357  0.00  0.00    +0.000 A 
ATOM     25  C   UNL     1       5.898   6.167  15.505  0.00  0.00    +0.000 A 
ATOM     26  C   UNL     1       4.782   6.274  16.330  0.00  0.00    +0.000 A 
ATOM     27  C   UNL     1       4.287   5.120  16.925  0.00  0.00    +0.000 A 
ATOM     28  H   UNL     1       4.554   2.167  17.914  0.00  0.00    +0.000 HD
ENDBRANCH  18  19
ENDBRANCH   4  17
TORSDOF 4
ENDMDL
MODEL 9
REMARK VINA RESULT:      -8.0      6.837      8.562
REMARK  Name = 
REMARK  4 active torsions:
REMARK  status: ('A' for Active; 'I' for Inactive)
REMARK    1  A    between atoms: C_2  and  C_10
REMARK    2  A    between atoms: N_3  and  C_4
REMARK    3  A    between atoms: C_13  and  N_14
REMARK    4  A    between atoms: N_15  and  C_16
REMARK                            x       y       z     vdW  Elec       q    Type
REMARK                         _______ _______ _______ _____ _____    ______ ____
ROOT
ATOM      1  C   UNL     1      -0.043  10.697  20.474  0.00  0.00    +0.000 A 
ATOM      2  C   UNL     1       0.480   9.657  21.235  0.00  0.00    +0.000 A 
ATOM      3  C   UNL     1       1.233   8.675  20.602  0.00  0.00    +0.000 A 
ATOM      4  C   UNL     1       1.470   8.682  19.201  0.00  0.00    +0.000 A 
ATOM      5  C   UNL     1       1.001   9.791  18.481  0.00  0.00    +0.000 A 
ATOM      6  C   UNL     1       0.245  10.796  19.112  0.00  0.00    +0.000 A 
ENDROOT
BRANCH   1   8
ATOM      7  O   UNL     1      -1.583  12.408  20.273  0.00  0.00    +0.000 OA
ATOM      8  C   UNL     1      -0.913  11.750  21.058  0.00  0.00    +0.000 C 
ATOM      9  N   UNL     1      -0.908  11.876  22.435  0.00  0.00    +0.000 N 
ATOM     10  H   UNL     1      -0.222  11.359  22.967  0.00  0.00    +0.000 HD
BRANCH   9  11
ATOM     11  C   UNL     1      -1.799  12.686  23.175  0.00  0.00    +0.000 A 
ATOM     12  C   UNL     1      -3.094  12.278  23.519  0.00  0.00    +0.000 A 
ATOM     13  C   UNL     1      -3.946  13.130  24.230  0.00  0.00    +0.000 A 
ATOM     14  C   UNL     1      -3.511  14.394  24.602  0.00  0.00    +0.000 A 
ATOM     15  C   UNL     1      -2.216  14.804  24.292  0.00  0.00    +0.000 A 
ATOM     16  C   UNL     1      -1.359  13.947  23.593  0.00  0.00    +0.000 A 
ENDBRANCH   9  11
ENDBRANCH   1   8
BRANCH   4  17
ATOM     17  N   UNL     1       2.102   7.639  18.540  0.00  0.00    +0.000 NA
ATOM     18  N   UNL     1       2.784   6.936  19.312  0.00  0.00    +0.000 NA
BRANCH  18  19
ATOM     19  C   UNL     1       3.135   5.747  18.683  0.00  0.00    +0.000 A 
ATOM     20  C   UNL     1       4.347   5.404  18.144  0.00  0.00    +0.000 A 
ATOM     21  N   UNL     1       4.002   4.400  17.275  0.00  0.00    +0.000 N 
ATOM     22  C   UNL     1       3.010   3.659  17.879  0.00  0.00    +0.000 A 
ATOM     23  C   UNL     1       2.571   2.351  17.691  0.00  0.00    +0.000 A 
ATOM     24  C   UNL     1       1.564   1.903  18.555  0.00  0.00    +0.000 A 
ATOM     25  C   UNL     1       0.981   2.749  19.504  0.00  0.00    +0.000 A 
ATOM     26  C   UNL     1       1.370   4.082  19.600  0.00  0.00    +0.000 A 
ATOM     27  C   UNL     1       2.413   4.526  18.796  0.00  0.00    +0.000 A 
ATOM     28  H   UNL     1       4.295   4.307  16.311  0.00  0.00    +0.000 HD
ENDBRANCH  18  19
ENDBRANCH   4  17
TORSDOF 4
ENDMDL
