MODEL 1
REMARK VINA RESULT:      -6.9      0.000      0.000
REMARK  Name = 
REMARK  10 active torsions:
REMARK  status: ('A' for Active; 'I' for Inactive)
REMARK    1  A    between atoms: C_1  and  C_2
REMARK    2  A    between atoms: C_2  and  O_3
REMARK    3  A    between atoms: O_3  and  C_4
REMARK    4  A    between atoms: C_4  and  C_6
REMARK    5  A    between atoms: N_10  and  C_11
REMARK    6  A    between atoms: C_11  and  C_12
REMARK    7  A    between atoms: C_13  and  C_14
REMARK    8  A    between atoms: C_14  and  N_15
REMARK    9  A    between atoms: N_15  and  C_16
REMARK   10  A    between atoms: C_17  and  C_18
REMARK                            x       y       z     vdW  Elec       q    Type
REMARK                         _______ _______ _______ _____ _____    ______ ____
ROOT
ATOM      1  C   UNL     1       6.306   4.094  16.083  0.00  0.00    +0.000 C 
ATOM      2  C   UNL     1       4.824   4.325  16.428  0.00  0.00    +0.000 C 
ATOM      3  C   UNL     1       4.549   5.731  16.970  0.00  0.00    +0.000 C 
ATOM      4  C   UNL     1       5.560   6.176  18.031  0.00  0.00    +0.000 C 
ATOM      5  N   UNL     1       6.926   5.953  17.555  0.00  0.00    +0.000 NA
ATOM      6  C   UNL     1       7.169   4.530  17.269  0.00  0.00    +0.000 C 
ENDROOT
BRANCH   1   7
ATOM      7  C   UNL     1       6.787   4.825  14.841  0.00  0.00    +0.000 C 
ATOM      8  O   UNL     1       7.835   5.467  14.780  0.00  0.00    +0.000 OA
BRANCH   7   9
ATOM      9  O   UNL     1       5.944   4.645  13.795  0.00  0.00    +0.000 OA
BRANCH   9  11
ATOM     10  C   UNL     1       5.085   3.353  11.992  0.00  0.00    +0.000 C 
ATOM     11  C   UNL     1       6.290   3.592  12.883  0.00  0.00    +0.000 C 
ENDBRANCH   9  11
ENDBRANCH   7   9
ENDBRANCH   1   7
BRANCH   5  12
ATOM     12  C   UNL     1       7.953   6.537  18.425  0.00  0.00    +0.000 C 
BRANCH  12  13
ATOM     13  C   UNL     1       8.099   7.983  18.230  0.00  0.00    +0.000 C 
ATOM     14  C   UNL     1       8.347   9.150  18.100  0.00  0.00    +0.000 C 
BRANCH  14  15
ATOM     15  C   UNL     1       8.745  10.554  17.941  0.00  0.00    +0.000 C 
BRANCH  15  16
ATOM     16  N   UNL     1       9.645  10.963  19.015  0.00  0.00    +0.000 N 
ATOM     17  C   UNL     1       9.240  10.656  20.379  0.00  0.00    +0.000 C 
ATOM     18  C   UNL     1      10.857  11.549  18.687  0.00  0.00    +0.000 C 
ATOM     19  C   UNL     1      11.803  11.924  19.806  0.00  0.00    +0.000 C 
ATOM     20  O   UNL     1      11.192  11.772  17.523  0.00  0.00    +0.000 OA
ENDBRANCH  15  16
ENDBRANCH  14  15
ENDBRANCH  12  13
ENDBRANCH   5  12
TORSDOF 7
ENDMDL
MODEL 2
REMARK VINA RESULT:      -6.3      1.971      3.370
REMARK  Name = 
REMARK  10 active torsions:
REMARK  status: ('A' for Active; 'I' for Inactive)
REMARK    1  A    between atoms: C_1  and  C_2
REMARK    2  A    between atoms: C_2  and  O_3
REMARK    3  A    between atoms: O_3  and  C_4
REMARK    4  A    between atoms: C_4  and  C_6
REMARK    5  A    between atoms: N_10  and  C_11
REMARK    6  A    between atoms: C_11  and  C_12
REMARK    7  A    between atoms: C_13  and  C_14
REMARK    8  A    between atoms: C_14  and  N_15
REMARK    9  A    between atoms: N_15  and  C_16
REMARK   10  A    between atoms: C_17  and  C_18
REMARK                            x       y       z     vdW  Elec       q    Type
REMARK                         _______ _______ _______ _____ _____    ______ ____
ROOT
ATOM      1  C   UNL     1       4.937   6.194  16.311  0.00  0.00    +0.000 C 
ATOM      2  C   UNL     1       5.442   5.080  15.377  0.00  0.00    +0.000 C 
ATOM      3  C   UNL     1       6.440   4.137  16.059  0.00  0.00    +0.000 C 
ATOM      4  C   UNL     1       7.514   4.876  16.862  0.00  0.00    +0.000 C 
ATOM      5  N   UNL     1       6.896   5.865  17.746  0.00  0.00    +0.000 NA
ATOM      6  C   UNL     1       6.136   6.867  16.981  0.00  0.00    +0.000 C 
ENDROOT
BRANCH   1   7
ATOM      7  C   UNL     1       3.978   5.727  17.393  0.00  0.00    +0.000 C 
ATOM      8  O   UNL     1       3.575   4.570  17.506  0.00  0.00    +0.000 OA
BRANCH   7   9
ATOM      9  O   UNL     1       3.658   6.730  18.247  0.00  0.00    +0.000 OA
BRANCH   9  11
ATOM     10  C   UNL     1       2.380   8.696  17.848  0.00  0.00    +0.000 C 
ATOM     11  C   UNL     1       2.310   7.215  18.170  0.00  0.00    +0.000 C 
ENDBRANCH   9  11
ENDBRANCH   7   9
ENDBRANCH   1   7
BRANCH   5  12
ATOM     12  C   UNL     1       7.836   6.474  18.694  0.00  0.00    +0.000 C 
BRANCH  12  13
ATOM     13  C   UNL     1       8.179   7.854  18.336  0.00  0.00    +0.000 C 
ATOM     14  C   UNL     1       8.409   9.020  18.161  0.00  0.00    +0.000 C 
BRANCH  14  15
ATOM     15  C   UNL     1       8.674  10.459  18.041  0.00  0.00    +0.000 C 
BRANCH  15  16
ATOM     16  N   UNL     1       9.611  10.900  19.070  0.00  0.00    +0.000 N 
ATOM     17  C   UNL     1       9.237  10.666  20.457  0.00  0.00    +0.000 C 
ATOM     18  C   UNL     1      10.823  11.446  18.682  0.00  0.00    +0.000 C 
ATOM     19  C   UNL     1      11.806  11.855  19.756  0.00  0.00    +0.000 C 
ATOM     20  O   UNL     1      11.131  11.607  17.500  0.00  0.00    +0.000 OA
ENDBRANCH  15  16
ENDBRANCH  14  15
ENDBRANCH  12  13
ENDBRANCH   5  12
TORSDOF 7
ENDMDL
MODEL 3
REMARK VINA RESULT:      -6.3      4.243      6.118
REMARK  Name = 
REMARK  10 active torsions:
REMARK  status: ('A' for Active; 'I' for Inactive)
REMARK    1  A    between atoms: C_1  and  C_2
REMARK    2  A    between atoms: C_2  and  O_3
REMARK    3  A    between atoms: O_3  and  C_4
REMARK    4  A    between atoms: C_4  and  C_6
REMARK    5  A    between atoms: N_10  and  C_11
REMARK    6  A    between atoms: C_11  and  C_12
REMARK    7  A    between atoms: C_13  and  C_14
REMARK    8  A    between atoms: C_14  and  N_15
REMARK    9  A    between atoms: N_15  and  C_16
REMARK   10  A    between atoms: C_17  and  C_18
REMARK                            x       y       z     vdW  Elec       q    Type
REMARK                         _______ _______ _______ _____ _____    ______ ____
ROOT
ATOM      1  C   UNL     1       6.909   6.559  17.046  0.00  0.00    +0.000 C 
ATOM      2  C   UNL     1       7.562   6.444  18.434  0.00  0.00    +0.000 C 
ATOM      3  C   UNL     1       6.878   5.408  19.332  0.00  0.00    +0.000 C 
ATOM      4  C   UNL     1       5.350   5.515  19.318  0.00  0.00    +0.000 C 
ATOM      5  N   UNL     1       4.857   5.562  17.941  0.00  0.00    +0.000 NA
ATOM      6  C   UNL     1       5.397   6.724  17.217  0.00  0.00    +0.000 C 
ENDROOT
BRANCH   1   7
ATOM      7  C   UNL     1       7.164   5.378  16.125  0.00  0.00    +0.000 C 
ATOM      8  O   UNL     1       7.860   4.407  16.423  0.00  0.00    +0.000 OA
BRANCH   7   9
ATOM      9  O   UNL     1       6.494   5.501  14.953  0.00  0.00    +0.000 OA
BRANCH   9  11
ATOM     10  C   UNL     1       6.048   3.754  13.403  0.00  0.00    +0.000 C 
ATOM     11  C   UNL     1       7.055   4.804  13.831  0.00  0.00    +0.000 C 
ENDBRANCH   9  11
ENDBRANCH   7   9
ENDBRANCH   1   7
BRANCH   5  12
ATOM     12  C   UNL     1       3.396   5.463  17.837  0.00  0.00    +0.000 C 
BRANCH  12  13
ATOM     13  C   UNL     1       2.737   6.770  17.927  0.00  0.00    +0.000 C 
ATOM     14  C   UNL     1       2.265   7.858  18.114  0.00  0.00    +0.000 C 
BRANCH  14  15
ATOM     15  C   UNL     1       1.757   9.203  18.409  0.00  0.00    +0.000 C 
BRANCH  15  16
ATOM     16  N   UNL     1       1.111   9.238  19.718  0.00  0.00    +0.000 N 
ATOM     17  C   UNL     1       1.506   8.224  20.684  0.00  0.00    +0.000 C 
ATOM     18  C   UNL     1       0.220  10.261  19.998  0.00  0.00    +0.000 C 
ATOM     19  C   UNL     1      -0.407  10.315  21.373  0.00  0.00    +0.000 C 
ATOM     20  O   UNL     1      -0.077  11.127  19.173  0.00  0.00    +0.000 OA
ENDBRANCH  15  16
ENDBRANCH  14  15
ENDBRANCH  12  13
ENDBRANCH   5  12
TORSDOF 7
ENDMDL
MODEL 4
REMARK VINA RESULT:      -6.3      3.735      7.349
REMARK  Name = 
REMARK  10 active torsions:
REMARK  status: ('A' for Active; 'I' for Inactive)
REMARK    1  A    between atoms: C_1  and  C_2
REMARK    2  A    between atoms: C_2  and  O_3
REMARK    3  A    between atoms: O_3  and  C_4
REMARK    4  A    between atoms: C_4  and  C_6
REMARK    5  A    between atoms: N_10  and  C_11
REMARK    6  A    between atoms: C_11  and  C_12
REMARK    7  A    between atoms: C_13  and  C_14
REMARK    8  A    between atoms: C_14  and  N_15
REMARK    9  A    between atoms: N_15  and  C_16
REMARK   10  A    between atoms: C_17  and  C_18
REMARK                            x       y       z     vdW  Elec       q    Type
REMARK                         _______ _______ _______ _____ _____    ______ ____
ROOT
ATOM      1  C   UNL     1       7.476   6.469  17.276  0.00  0.00    +0.000 C 
ATOM      2  C   UNL     1       7.790   6.158  18.750  0.00  0.00    +0.000 C 
ATOM      3  C   UNL     1       6.653   5.414  19.458  0.00  0.00    +0.000 C 
ATOM      4  C   UNL     1       5.274   6.019  19.181  0.00  0.00    +0.000 C 
ATOM      5  N   UNL     1       5.084   6.212  17.743  0.00  0.00    +0.000 NA
ATOM      6  C   UNL     1       6.096   7.124  17.186  0.00  0.00    +0.000 C 
ENDROOT
BRANCH   1   7
ATOM      7  C   UNL     1       7.498   5.261  16.356  0.00  0.00    +0.000 C 
ATOM      8  O   UNL     1       8.043   4.192  16.630  0.00  0.00    +0.000 OA
BRANCH   7   9
ATOM      9  O   UNL     1       6.802   5.488  15.214  0.00  0.00    +0.000 OA
BRANCH   9  11
ATOM     10  C   UNL     1       6.481   4.160  13.267  0.00  0.00    +0.000 C 
ATOM     11  C   UNL     1       6.049   4.376  14.705  0.00  0.00    +0.000 C 
ENDBRANCH   9  11
ENDBRANCH   7   9
ENDBRANCH   1   7
BRANCH   5  12
ATOM     12  C   UNL     1       3.716   6.598  17.378  0.00  0.00    +0.000 C 
BRANCH  12  13
ATOM     13  C   UNL     1       2.746   5.528  17.629  0.00  0.00    +0.000 C 
ATOM     14  C   UNL     1       2.054   4.567  17.830  0.00  0.00    +0.000 C 
BRANCH  14  15
ATOM     15  C   UNL     1       1.289   3.342  18.096  0.00  0.00    +0.000 C 
BRANCH  15  16
ATOM     16  N   UNL     1       1.768   2.686  19.310  0.00  0.00    +0.000 N 
ATOM     17  C   UNL     1       2.678   1.562  19.146  0.00  0.00    +0.000 C 
ATOM     18  C   UNL     1       1.398   3.202  20.541  0.00  0.00    +0.000 C 
ATOM     19  C   UNL     1       1.938   2.544  21.791  0.00  0.00    +0.000 C 
ATOM     20  O   UNL     1       0.649   4.174  20.655  0.00  0.00    +0.000 OA
ENDBRANCH  15  16
ENDBRANCH  14  15
ENDBRANCH  12  13
ENDBRANCH   5  12
TORSDOF 7
ENDMDL
MODEL 5
REMARK VINA RESULT:      -6.2      2.184      3.093
REMARK  Name = 
REMARK  10 active torsions:
REMARK  status: ('A' for Active; 'I' for Inactive)
REMARK    1  A    between atoms: C_1  and  C_2
REMARK    2  A    between atoms: C_2  and  O_3
REMARK    3  A    between atoms: O_3  and  C_4
REMARK    4  A    between atoms: C_4  and  C_6
REMARK    5  A    between atoms: N_10  and  C_11
REMARK    6  A    between atoms: C_11  and  C_12
REMARK    7  A    between atoms: C_13  and  C_14
REMARK    8  A    between atoms: C_14  and  N_15
REMARK    9  A    between atoms: N_15  and  C_16
REMARK   10  A    between atoms: C_17  and  C_18
REMARK                            x       y       z     vdW  Elec       q    Type
REMARK                         _______ _______ _______ _____ _____    ______ ____
ROOT
ATOM      1  C   UNL     1       4.779   6.377  16.826  0.00  0.00    +0.000 C 
ATOM      2  C   UNL     1       5.127   5.284  15.800  0.00  0.00    +0.000 C 
ATOM      3  C   UNL     1       6.218   4.328  16.294  0.00  0.00    +0.000 C 
ATOM      4  C   UNL     1       7.408   5.051  16.931  0.00  0.00    +0.000 C 
ATOM      5  N   UNL     1       6.941   6.020  17.923  0.00  0.00    +0.000 NA
ATOM      6  C   UNL     1       6.071   7.037  17.311  0.00  0.00    +0.000 C 
ENDROOT
BRANCH   1   7
ATOM      7  C   UNL     1       4.005   5.885  18.037  0.00  0.00    +0.000 C 
ATOM      8  O   UNL     1       4.511   5.657  19.135  0.00  0.00    +0.000 OA
BRANCH   7   9
ATOM      9  O   UNL     1       2.679   5.772  17.773  0.00  0.00    +0.000 OA
BRANCH   9  11
ATOM     10  C   UNL     1       2.417   3.429  17.460  0.00  0.00    +0.000 C 
ATOM     11  C   UNL     1       2.026   4.617  18.319  0.00  0.00    +0.000 C 
ENDBRANCH   9  11
ENDBRANCH   7   9
ENDBRANCH   1   7
BRANCH   5  12
ATOM     12  C   UNL     1       8.022   6.610  18.721  0.00  0.00    +0.000 C 
BRANCH  12  13
ATOM     13  C   UNL     1       8.278   8.011  18.371  0.00  0.00    +0.000 C 
ATOM     14  C   UNL     1       8.486   9.183  18.215  0.00  0.00    +0.000 C 
BRANCH  14  15
ATOM     15  C   UNL     1       8.762  10.622  18.119  0.00  0.00    +0.000 C 
BRANCH  15  16
ATOM     16  N   UNL     1       9.701  11.040  19.156  0.00  0.00    +0.000 N 
ATOM     17  C   UNL     1       9.310  10.815  20.540  0.00  0.00    +0.000 C 
ATOM     18  C   UNL     1      10.931  11.554  18.778  0.00  0.00    +0.000 C 
ATOM     19  C   UNL     1      11.915  11.939  19.861  0.00  0.00    +0.000 C 
ATOM     20  O   UNL     1      11.252  11.708  17.599  0.00  0.00    +0.000 OA
ENDBRANCH  15  16
ENDBRANCH  14  15
ENDBRANCH  12  13
ENDBRANCH   5  12
TORSDOF 7
ENDMDL
MODEL 6
REMARK VINA RESULT:      -6.0      4.338      7.194
REMARK  Name = 
REMARK  10 active torsions:
REMARK  status: ('A' for Active; 'I' for Inactive)
REMARK    1  A    between atoms: C_1  and  C_2
REMARK    2  A    between atoms: C_2  and  O_3
REMARK    3  A    between atoms: O_3  and  C_4
REMARK    4  A    between atoms: C_4  and  C_6
REMARK    5  A    between atoms: N_10  and  C_11
REMARK    6  A    between atoms: C_11  and  C_12
REMARK    7  A    between atoms: C_13  and  C_14
REMARK    8  A    between atoms: C_14  and  N_15
REMARK    9  A    between atoms: N_15  and  C_16
REMARK   10  A    between atoms: C_17  and  C_18
REMARK                            x       y       z     vdW  Elec       q    Type
REMARK                         _______ _______ _______ _____ _____    ______ ____
ROOT
ATOM      1  C   UNL     1       1.261   4.512  20.479  0.00  0.00    +0.000 C 
ATOM      2  C   UNL     1       1.881   3.517  21.476  0.00  0.00    +0.000 C 
ATOM      3  C   UNL     1       3.189   2.901  20.969  0.00  0.00    +0.000 C 
ATOM      4  C   UNL     1       3.108   2.428  19.515  0.00  0.00    +0.000 C 
ATOM      5  N   UNL     1       2.554   3.485  18.668  0.00  0.00    +0.000 NA
ATOM      6  C   UNL     1       1.197   3.859  19.096  0.00  0.00    +0.000 C 
ENDROOT
BRANCH   1   7
ATOM      7  C   UNL     1       2.005   5.831  20.356  0.00  0.00    +0.000 C 
ATOM      8  O   UNL     1       2.921   6.036  19.560  0.00  0.00    +0.000 OA
BRANCH   7   9
ATOM      9  O   UNL     1       1.506   6.769  21.198  0.00  0.00    +0.000 OA
BRANCH   9  11
ATOM     10  C   UNL     1       1.208   9.041  21.835  0.00  0.00    +0.000 C 
ATOM     11  C   UNL     1       1.386   8.095  20.662  0.00  0.00    +0.000 C 
ENDBRANCH   9  11
ENDBRANCH   7   9
ENDBRANCH   1   7
BRANCH   5  12
ATOM     12  C   UNL     1       2.630   3.187  17.233  0.00  0.00    +0.000 C 
BRANCH  12  13
ATOM     13  C   UNL     1       3.965   3.432  16.679  0.00  0.00    +0.000 C 
ATOM     14  C   UNL     1       5.061   3.745  16.299  0.00  0.00    +0.000 C 
BRANCH  14  15
ATOM     15  C   UNL     1       6.403   4.191  15.907  0.00  0.00    +0.000 C 
BRANCH  15  16
ATOM     16  N   UNL     1       6.956   5.107  16.901  0.00  0.00    +0.000 N 
ATOM     17  C   UNL     1       7.841   4.543  17.908  0.00  0.00    +0.000 C 
ATOM     18  C   UNL     1       6.674   6.459  16.794  0.00  0.00    +0.000 C 
ATOM     19  C   UNL     1       7.290   7.406  17.800  0.00  0.00    +0.000 C 
ATOM     20  O   UNL     1       5.945   6.918  15.913  0.00  0.00    +0.000 OA
ENDBRANCH  15  16
ENDBRANCH  14  15
ENDBRANCH  12  13
ENDBRANCH   5  12
TORSDOF 7
ENDMDL
MODEL 7
REMARK VINA RESULT:      -6.0      5.523      6.819
REMARK  Name = 
REMARK  10 active torsions:
REMARK  status: ('A' for Active; 'I' for Inactive)
REMARK    1  A    between atoms: C_1  and  C_2
REMARK    2  A    between atoms: C_2  and  O_3
REMARK    3  A    between atoms: O_3  and  C_4
REMARK    4  A    between atoms: C_4  and  C_6
REMARK    5  A    between atoms: N_10  and  C_11
REMARK    6  A    between atoms: C_11  and  C_12
REMARK    7  A    between atoms: C_13  and  C_14
REMARK    8  A    between atoms: C_14  and  N_15
REMARK    9  A    between atoms: N_15  and  C_16
REMARK   10  A    between atoms: C_17  and  C_18
REMARK                            x       y       z     vdW  Elec       q    Type
REMARK                         _______ _______ _______ _____ _____    ______ ____
ROOT
ATOM      1  C   UNL     1       3.043   3.578  17.111  0.00  0.00    +0.000 C 
ATOM      2  C   UNL     1       4.485   3.821  16.633  0.00  0.00    +0.000 C 
ATOM      3  C   UNL     1       5.393   4.381  17.733  0.00  0.00    +0.000 C 
ATOM      4  C   UNL     1       4.747   5.524  18.521  0.00  0.00    +0.000 C 
ATOM      5  N   UNL     1       3.405   5.143  18.962  0.00  0.00    +0.000 NA
ATOM      6  C   UNL     1       2.532   4.835  17.817  0.00  0.00    +0.000 C 
ENDROOT
BRANCH   1   7
ATOM      7  C   UNL     1       2.878   2.395  18.050  0.00  0.00    +0.000 C 
ATOM      8  O   UNL     1       3.653   1.441  18.103  0.00  0.00    +0.000 OA
BRANCH   7   9
ATOM      9  O   UNL     1       1.798   2.543  18.857  0.00  0.00    +0.000 OA
BRANCH   9  11
ATOM     10  C   UNL     1       1.169   3.061  21.091  0.00  0.00    +0.000 C 
ATOM     11  C   UNL     1       1.965   2.112  20.216  0.00  0.00    +0.000 C 
ENDBRANCH   9  11
ENDBRANCH   7   9
ENDBRANCH   1   7
BRANCH   5  12
ATOM     12  C   UNL     1       2.797   6.102  19.892  0.00  0.00    +0.000 C 
BRANCH  12  13
ATOM     13  C   UNL     1       2.319   7.312  19.216  0.00  0.00    +0.000 C 
ATOM     14  C   UNL     1       2.047   8.309  18.604  0.00  0.00    +0.000 C 
BRANCH  14  15
ATOM     15  C   UNL     1       1.792   9.511  17.801  0.00  0.00    +0.000 C 
BRANCH  15  16
ATOM     16  N   UNL     1       1.188  10.561  18.617  0.00  0.00    +0.000 N 
ATOM     17  C   UNL     1       0.048  10.192  19.442  0.00  0.00    +0.000 C 
ATOM     18  C   UNL     1       1.766  11.820  18.623  0.00  0.00    +0.000 C 
ATOM     19  C   UNL     1       1.162  12.886  19.509  0.00  0.00    +0.000 C 
ATOM     20  O   UNL     1       2.751  12.101  17.939  0.00  0.00    +0.000 OA
ENDBRANCH  15  16
ENDBRANCH  14  15
ENDBRANCH  12  13
ENDBRANCH   5  12
TORSDOF 7
ENDMDL
MODEL 8
REMARK VINA RESULT:      -6.0      6.202      7.585
REMARK  Name = 
REMARK  10 active torsions:
REMARK  status: ('A' for Active; 'I' for Inactive)
REMARK    1  A    between atoms: C_1  and  C_2
REMARK    2  A    between atoms: C_2  and  O_3
REMARK    3  A    between atoms: O_3  and  C_4
REMARK    4  A    between atoms: C_4  and  C_6
REMARK    5  A    between atoms: N_10  and  C_11
REMARK    6  A    between atoms: C_11  and  C_12
REMARK    7  A    between atoms: C_13  and  C_14
REMARK    8  A    between atoms: C_14  and  N_15
REMARK    9  A    between atoms: N_15  and  C_16
REMARK   10  A    between atoms: C_17  and  C_18
REMARK                            x       y       z     vdW  Elec       q    Type
REMARK                         _______ _______ _______ _____ _____    ______ ____
ROOT
ATOM      1  C   UNL     1       1.366   3.646  18.236  0.00  0.00    +0.000 C 
ATOM      2  C   UNL     1       2.149   2.374  17.868  0.00  0.00    +0.000 C 
ATOM      3  C   UNL     1       3.651   2.495  18.151  0.00  0.00    +0.000 C 
ATOM      4  C   UNL     1       4.250   3.816  17.660  0.00  0.00    +0.000 C 
ATOM      5  N   UNL     1       3.441   4.944  18.124  0.00  0.00    +0.000 NA
ATOM      6  C   UNL     1       2.062   4.859  17.617  0.00  0.00    +0.000 C 
ENDROOT
BRANCH   1   7
ATOM      7  C   UNL     1       1.214   3.887  19.729  0.00  0.00    +0.000 C 
ATOM      8  O   UNL     1       1.283   4.994  20.261  0.00  0.00    +0.000 OA
BRANCH   7   9
ATOM      9  O   UNL     1       0.947   2.737  20.397  0.00  0.00    +0.000 OA
BRANCH   9  11
ATOM     10  C   UNL     1       2.962   2.367  21.604  0.00  0.00    +0.000 C 
ATOM     11  C   UNL     1       1.476   2.647  21.728  0.00  0.00    +0.000 C 
ENDBRANCH   9  11
ENDBRANCH   7   9
ENDBRANCH   1   7
BRANCH   5  12
ATOM     12  C   UNL     1       4.056   6.252  17.869  0.00  0.00    +0.000 C 
BRANCH  12  13
ATOM     13  C   UNL     1       3.082   7.348  17.913  0.00  0.00    +0.000 C 
ATOM     14  C   UNL     1       2.388   8.325  17.980  0.00  0.00    +0.000 C 
BRANCH  14  15
ATOM     15  C   UNL     1       1.619   9.573  18.060  0.00  0.00    +0.000 C 
BRANCH  15  16
ATOM     16  N   UNL     1       1.058   9.751  19.396  0.00  0.00    +0.000 N 
ATOM     17  C   UNL     1       1.264   8.675  20.355  0.00  0.00    +0.000 C 
ATOM     18  C   UNL     1       0.430  10.947  19.705  0.00  0.00    +0.000 C 
ATOM     19  C   UNL     1      -0.104  11.139  21.107  0.00  0.00    +0.000 C 
ATOM     20  O   UNL     1       0.294  11.856  18.885  0.00  0.00    +0.000 OA
ENDBRANCH  15  16
ENDBRANCH  14  15
ENDBRANCH  12  13
ENDBRANCH   5  12
TORSDOF 7
ENDMDL
MODEL 9
REMARK VINA RESULT:      -6.0      3.878      6.047
REMARK  Name = 
REMARK  10 active torsions:
REMARK  status: ('A' for Active; 'I' for Inactive)
REMARK    1  A    between atoms: C_1  and  C_2
REMARK    2  A    between atoms: C_2  and  O_3
REMARK    3  A    between atoms: O_3  and  C_4
REMARK    4  A    between atoms: C_4  and  C_6
REMARK    5  A    between atoms: N_10  and  C_11
REMARK    6  A    between atoms: C_11  and  C_12
REMARK    7  A    between atoms: C_13  and  C_14
REMARK    8  A    between atoms: C_14  and  N_15
REMARK    9  A    between atoms: N_15  and  C_16
REMARK   10  A    between atoms: C_17  and  C_18
REMARK                            x       y       z     vdW  Elec       q    Type
REMARK                         _______ _______ _______ _____ _____    ______ ____
ROOT
ATOM      1  C   UNL     1       6.296   6.390  16.559  0.00  0.00    +0.000 C 
ATOM      2  C   UNL     1       7.305   6.867  17.618  0.00  0.00    +0.000 C 
ATOM      3  C   UNL     1       7.512   5.851  18.747  0.00  0.00    +0.000 C 
ATOM      4  C   UNL     1       6.199   5.275  19.285  0.00  0.00    +0.000 C 
ATOM      5  N   UNL     1       5.358   4.810  18.181  0.00  0.00    +0.000 NA
ATOM      6  C   UNL     1       5.024   5.909  17.262  0.00  0.00    +0.000 C 
ENDROOT
BRANCH   1   7
ATOM      7  C   UNL     1       6.801   5.274  15.660  0.00  0.00    +0.000 C 
ATOM      8  O   UNL     1       7.819   4.619  15.878  0.00  0.00    +0.000 OA
BRANCH   7   9
ATOM      9  O   UNL     1       5.967   5.058  14.612  0.00  0.00    +0.000 OA
BRANCH   9  11
ATOM     10  C   UNL     1       6.467   3.808  12.652  0.00  0.00    +0.000 C 
ATOM     11  C   UNL     1       5.960   3.725  14.080  0.00  0.00    +0.000 C 
ENDBRANCH   9  11
ENDBRANCH   7   9
ENDBRANCH   1   7
BRANCH   5  12
ATOM     12  C   UNL     1       4.174   4.063  18.620  0.00  0.00    +0.000 C 
BRANCH  12  13
ATOM     13  C   UNL     1       3.283   4.868  19.463  0.00  0.00    +0.000 C 
ATOM     14  C   UNL     1       2.588   5.631  20.077  0.00  0.00    +0.000 C 
BRANCH  14  15
ATOM     15  C   UNL     1       1.748   6.626  20.754  0.00  0.00    +0.000 C 
BRANCH  15  16
ATOM     16  N   UNL     1       1.691   7.866  19.984  0.00  0.00    +0.000 N 
ATOM     17  C   UNL     1       2.316   7.864  18.669  0.00  0.00    +0.000 C 
ATOM     18  C   UNL     1       0.993   8.944  20.502  0.00  0.00    +0.000 C 
ATOM     19  C   UNL     1       0.900  10.207  19.675  0.00  0.00    +0.000 C 
ATOM     20  O   UNL     1       0.446   8.912  21.605  0.00  0.00    +0.000 OA
ENDBRANCH  15  16
ENDBRANCH  14  15
ENDBRANCH  12  13
ENDBRANCH   5  12
TORSDOF 7
ENDMDL
