MODEL 1
REMARK VINA RESULT:      -7.2      0.000      0.000
REMARK  Name = 
REMARK  8 active torsions:
REMARK  status: ('A' for Active; 'I' for Inactive)
REMARK    1  A    between atoms: C_1  and  C_2
REMARK    2  A    between atoms: N_4  and  N_5
REMARK    3  A    between atoms: N_5  and  C_6
REMARK    4  A    between atoms: C_6  and  N_8
REMARK    5  A    between atoms: N_8  and  C_9
REMARK    6  A    between atoms: C_15  and  C_16
REMARK    7  A    between atoms: C_17  and  C_18
REMARK    8  A    between atoms: C_26  and  C_27
REMARK                            x       y       z     vdW  Elec       q    Type
REMARK                         _______ _______ _______ _____ _____    ______ ____
ROOT
ATOM      1  C   UNL     1      -0.800  12.815  19.234  0.00  0.00    +0.000 C 
ATOM      2  C   UNL     1      -1.529  11.705  20.001  0.00  0.00    +0.000 C 
ATOM      3  C   UNL     1      -0.653  11.258  21.162  0.00  0.00    +0.000 C 
ATOM      4  N   UNL     1      -0.888  11.410  22.426  0.00  0.00    +0.000 NA
ATOM      5  C   UNL     1       0.636  10.522  20.771  0.00  0.00    +0.000 C 
ATOM      6  C   UNL     1       1.493  10.133  21.973  0.00  0.00    +0.000 C 
ATOM      7  C   UNL     1       0.177   9.318  19.934  0.00  0.00    +0.000 C 
ATOM      8  O   UNL     1      -0.577   9.784  18.805  0.00  0.00    +0.000 OA
ATOM      9  C   UNL     1      -1.803  10.434  19.168  0.00  0.00    +0.000 C 
ENDROOT
BRANCH   7  10
ATOM     10  C   UNL     1       1.326   8.509  19.366  0.00  0.00    +0.000 A 
ATOM     11  C   UNL     1       2.002   8.940  18.214  0.00  0.00    +0.000 A 
ATOM     12  C   UNL     1       3.035   8.174  17.666  0.00  0.00    +0.000 A 
ATOM     13  C   UNL     1       3.408   6.971  18.266  0.00  0.00    +0.000 A 
ATOM     14  C   UNL     1       2.760   6.550  19.424  0.00  0.00    +0.000 A 
ATOM     15 CL   UNL     1       3.225   5.072  20.174  0.00  0.00    +0.000 Cl
ATOM     16  C   UNL     1       1.730   7.310  19.976  0.00  0.00    +0.000 A 
ENDBRANCH   7  10
BRANCH   9  17
ATOM     17  C   UNL     1      -2.598  10.693  17.899  0.00  0.00    +0.000 A 
ATOM     18  C   UNL     1      -2.165  10.209  16.652  0.00  0.00    +0.000 A 
ATOM     19  C   UNL     1      -2.912  10.424  15.493  0.00  0.00    +0.000 A 
ATOM     20  C   UNL     1      -4.109  11.132  15.560  0.00  0.00    +0.000 A 
ATOM     21  C   UNL     1      -4.547  11.625  16.786  0.00  0.00    +0.000 A 
ATOM     22 CL   UNL     1      -6.031  12.493  16.871  0.00  0.00    +0.000 Cl
ATOM     23  C   UNL     1      -3.801  11.417  17.949  0.00  0.00    +0.000 A 
ENDBRANCH   9  17
BRANCH   4  24
ATOM     24  N   UNL     1      -2.007  11.997  22.913  0.00  0.00    +0.000 N 
ATOM     25  H   UNL     1      -2.852  11.457  23.068  0.00  0.00    +0.000 HD
BRANCH  24  26
ATOM     26  C   UNL     1      -2.128  13.390  22.901  0.00  0.00    +0.000 C 
ATOM     27  S   UNL     1      -1.212  14.425  23.858  0.00  0.00    +0.000 S 
BRANCH  26  28
ATOM     28  N   UNL     1      -3.193  13.773  22.087  0.00  0.00    +0.000 N 
ATOM     29  H   UNL     1      -2.889  14.080  21.170  0.00  0.00    +0.000 HD
BRANCH  28  30
ATOM     30  C   UNL     1      -4.532  13.334  22.168  0.00  0.00    +0.000 A 
ATOM     31  C   UNL     1      -5.172  12.724  21.085  0.00  0.00    +0.000 A 
ATOM     32  C   UNL     1      -6.475  12.240  21.217  0.00  0.00    +0.000 A 
ATOM     33  C   UNL     1      -7.146  12.363  22.433  0.00  0.00    +0.000 A 
ATOM     34  C   UNL     1      -6.511  12.963  23.517  0.00  0.00    +0.000 A 
ATOM     35  C   UNL     1      -5.201  13.435  23.391  0.00  0.00    +0.000 A 
ENDBRANCH  28  30
ENDBRANCH  26  28
ENDBRANCH  24  26
ENDBRANCH   4  24
TORSDOF 6
ENDMDL
MODEL 2
REMARK VINA RESULT:      -7.1      3.967      6.091
REMARK  Name = 
REMARK  8 active torsions:
REMARK  status: ('A' for Active; 'I' for Inactive)
REMARK    1  A    between atoms: C_1  and  C_2
REMARK    2  A    between atoms: N_4  and  N_5
REMARK    3  A    between atoms: N_5  and  C_6
REMARK    4  A    between atoms: C_6  and  N_8
REMARK    5  A    between atoms: N_8  and  C_9
REMARK    6  A    between atoms: C_15  and  C_16
REMARK    7  A    between atoms: C_17  and  C_18
REMARK    8  A    between atoms: C_26  and  C_27
REMARK                            x       y       z     vdW  Elec       q    Type
REMARK                         _______ _______ _______ _____ _____    ______ ____
ROOT
ATOM      1  C   UNL     1      -0.351  10.799  21.971  0.00  0.00    +0.000 C 
ATOM      2  C   UNL     1      -1.002  11.644  20.870  0.00  0.00    +0.000 C 
ATOM      3  C   UNL     1      -0.201  11.476  19.587  0.00  0.00    +0.000 C 
ATOM      4  N   UNL     1      -0.585  10.903  18.492  0.00  0.00    +0.000 NA
ATOM      5  C   UNL     1       1.208  12.085  19.605  0.00  0.00    +0.000 C 
ATOM      6  C   UNL     1       1.979  11.850  18.308  0.00  0.00    +0.000 C 
ATOM      7  C   UNL     1       1.003  13.572  19.934  0.00  0.00    +0.000 C 
ATOM      8  O   UNL     1       0.317  13.691  21.189  0.00  0.00    +0.000 OA
ATOM      9  C   UNL     1      -1.016  13.160  21.160  0.00  0.00    +0.000 C 
ENDROOT
BRANCH   7  10
ATOM     10  C   UNL     1       2.303  14.335  20.093  0.00  0.00    +0.000 A 
ATOM     11  C   UNL     1       2.594  15.430  19.265  0.00  0.00    +0.000 A 
ATOM     12  C   UNL     1       3.810  16.109  19.384  0.00  0.00    +0.000 A 
ATOM     13  C   UNL     1       4.746  15.706  20.336  0.00  0.00    +0.000 A 
ATOM     14  C   UNL     1       4.454  14.638  21.179  0.00  0.00    +0.000 A 
ATOM     15 CL   UNL     1       5.603  14.144  22.363  0.00  0.00    +0.000 Cl
ATOM     16  C   UNL     1       3.243  13.957  21.067  0.00  0.00    +0.000 A 
ENDBRANCH   7  10
BRANCH   9  17
ATOM     17  C   UNL     1      -1.702  13.528  22.467  0.00  0.00    +0.000 A 
ATOM     18  C   UNL     1      -1.129  14.452  23.359  0.00  0.00    +0.000 A 
ATOM     19  C   UNL     1      -1.775  14.808  24.544  0.00  0.00    +0.000 A 
ATOM     20  C   UNL     1      -3.008  14.243  24.860  0.00  0.00    +0.000 A 
ATOM     21  C   UNL     1      -3.583  13.320  23.990  0.00  0.00    +0.000 A 
ATOM     22 CL   UNL     1      -5.111  12.628  24.376  0.00  0.00    +0.000 Cl
ATOM     23  C   UNL     1      -2.939  12.956  22.805  0.00  0.00    +0.000 A 
ENDBRANCH   9  17
BRANCH   4  24
ATOM     24  N   UNL     1      -1.817  10.367  18.321  0.00  0.00    +0.000 N 
ATOM     25  H   UNL     1      -2.030   9.435  18.658  0.00  0.00    +0.000 HD
BRANCH  24  26
ATOM     26  C   UNL     1      -2.706  10.938  17.404  0.00  0.00    +0.000 C 
ATOM     27  S   UNL     1      -2.739  10.566  15.765  0.00  0.00    +0.000 S 
BRANCH  26  28
ATOM     28  N   UNL     1      -3.457  11.937  18.021  0.00  0.00    +0.000 N 
ATOM     29  H   UNL     1      -3.300  12.849  17.610  0.00  0.00    +0.000 HD
BRANCH  28  30
ATOM     30  C   UNL     1      -4.677  11.785  18.716  0.00  0.00    +0.000 A 
ATOM     31  C   UNL     1      -4.925  12.452  19.919  0.00  0.00    +0.000 A 
ATOM     32  C   UNL     1      -6.166  12.335  20.547  0.00  0.00    +0.000 A 
ATOM     33  C   UNL     1      -7.166  11.550  19.976  0.00  0.00    +0.000 A 
ATOM     34  C   UNL     1      -6.928  10.890  18.773  0.00  0.00    +0.000 A 
ATOM     35  C   UNL     1      -5.691  11.018  18.136  0.00  0.00    +0.000 A 
ENDBRANCH  28  30
ENDBRANCH  26  28
ENDBRANCH  24  26
ENDBRANCH   4  24
TORSDOF 6
ENDMDL
MODEL 3
REMARK VINA RESULT:      -7.1      4.051      6.097
REMARK  Name = 
REMARK  8 active torsions:
REMARK  status: ('A' for Active; 'I' for Inactive)
REMARK    1  A    between atoms: C_1  and  C_2
REMARK    2  A    between atoms: N_4  and  N_5
REMARK    3  A    between atoms: N_5  and  C_6
REMARK    4  A    between atoms: C_6  and  N_8
REMARK    5  A    between atoms: N_8  and  C_9
REMARK    6  A    between atoms: C_15  and  C_16
REMARK    7  A    between atoms: C_17  and  C_18
REMARK    8  A    between atoms: C_26  and  C_27
REMARK                            x       y       z     vdW  Elec       q    Type
REMARK                         _______ _______ _______ _____ _____    ______ ____
ROOT
ATOM      1  C   UNL     1      -0.574  10.629  21.940  0.00  0.00    +0.000 C 
ATOM      2  C   UNL     1      -1.139  11.511  20.821  0.00  0.00    +0.000 C 
ATOM      3  C   UNL     1      -0.309  11.296  19.564  0.00  0.00    +0.000 C 
ATOM      4  N   UNL     1      -0.691  10.748  18.456  0.00  0.00    +0.000 NA
ATOM      5  C   UNL     1       1.132  11.822  19.627  0.00  0.00    +0.000 C 
ATOM      6  C   UNL     1       1.929  11.544  18.354  0.00  0.00    +0.000 C 
ATOM      7  C   UNL     1       1.004  13.318  19.953  0.00  0.00    +0.000 C 
ATOM      8  O   UNL     1       0.286  13.477  21.186  0.00  0.00    +0.000 OA
ATOM      9  C   UNL     1      -1.074  13.025  21.114  0.00  0.00    +0.000 C 
ENDROOT
BRANCH   7  10
ATOM     10  C   UNL     1       2.340  14.005  20.155  0.00  0.00    +0.000 A 
ATOM     11  C   UNL     1       3.125  13.723  21.284  0.00  0.00    +0.000 A 
ATOM     12  C   UNL     1       4.338  14.385  21.491  0.00  0.00    +0.000 A 
ATOM     13  C   UNL     1       4.784  15.333  20.570  0.00  0.00    +0.000 A 
ATOM     14  C   UNL     1       4.024  15.600  19.435  0.00  0.00    +0.000 A 
ATOM     15 CL   UNL     1       4.576  16.762  18.290  0.00  0.00    +0.000 Cl
ATOM     16  C   UNL     1       2.814  14.942  19.221  0.00  0.00    +0.000 A 
ENDBRANCH   7  10
BRANCH   9  17
ATOM     17  C   UNL     1      -1.778  13.431  22.399  0.00  0.00    +0.000 A 
ATOM     18  C   UNL     1      -1.161  14.282  23.334  0.00  0.00    +0.000 A 
ATOM     19  C   UNL     1      -1.821  14.676  24.499  0.00  0.00    +0.000 A 
ATOM     20  C   UNL     1      -3.114  14.222  24.752  0.00  0.00    +0.000 A 
ATOM     21  C   UNL     1      -3.733  13.373  23.839  0.00  0.00    +0.000 A 
ATOM     22 CL   UNL     1      -5.334  12.820  24.147  0.00  0.00    +0.000 Cl
ATOM     23  C   UNL     1      -3.076  12.972  22.674  0.00  0.00    +0.000 A 
ENDBRANCH   9  17
BRANCH   4  24
ATOM     24  N   UNL     1      -1.946  10.285  18.244  0.00  0.00    +0.000 N 
ATOM     25  H   UNL     1      -2.206   9.344  18.517  0.00  0.00    +0.000 HD
BRANCH  24  26
ATOM     26  C   UNL     1      -2.801  10.958  17.364  0.00  0.00    +0.000 C 
ATOM     27  S   UNL     1      -2.813  10.728  15.700  0.00  0.00    +0.000 S 
BRANCH  26  28
ATOM     28  N   UNL     1      -3.534  11.924  18.052  0.00  0.00    +0.000 N 
ATOM     29  H   UNL     1      -3.345  12.862  17.721  0.00  0.00    +0.000 HD
BRANCH  28  30
ATOM     30  C   UNL     1      -4.769  11.750  18.713  0.00  0.00    +0.000 A 
ATOM     31  C   UNL     1      -5.687  10.777  18.310  0.00  0.00    +0.000 A 
ATOM     32  C   UNL     1      -6.871  10.584  19.026  0.00  0.00    +0.000 A 
ATOM     33  C   UNL     1      -7.143  11.363  20.149  0.00  0.00    +0.000 A 
ATOM     34  C   UNL     1      -6.228  12.330  20.560  0.00  0.00    +0.000 A 
ATOM     35  C   UNL     1      -5.036  12.514  19.853  0.00  0.00    +0.000 A 
ENDBRANCH  28  30
ENDBRANCH  26  28
ENDBRANCH  24  26
ENDBRANCH   4  24
TORSDOF 6
ENDMDL
MODEL 4
REMARK VINA RESULT:      -7.1      3.681      7.436
REMARK  Name = 
REMARK  8 active torsions:
REMARK  status: ('A' for Active; 'I' for Inactive)
REMARK    1  A    between atoms: C_1  and  C_2
REMARK    2  A    between atoms: N_4  and  N_5
REMARK    3  A    between atoms: N_5  and  C_6
REMARK    4  A    between atoms: C_6  and  N_8
REMARK    5  A    between atoms: N_8  and  C_9
REMARK    6  A    between atoms: C_15  and  C_16
REMARK    7  A    between atoms: C_17  and  C_18
REMARK    8  A    between atoms: C_26  and  C_27
REMARK                            x       y       z     vdW  Elec       q    Type
REMARK                         _______ _______ _______ _____ _____    ______ ____
ROOT
ATOM      1  C   UNL     1      -1.898  11.341  20.699  0.00  0.00    +0.000 C 
ATOM      2  C   UNL     1      -0.851  10.870  19.683  0.00  0.00    +0.000 C 
ATOM      3  C   UNL     1       0.534  11.213  20.214  0.00  0.00    +0.000 C 
ATOM      4  N   UNL     1       1.456  10.387  20.591  0.00  0.00    +0.000 NA
ATOM      5  C   UNL     1       0.864  12.711  20.275  0.00  0.00    +0.000 C 
ATOM      6  C   UNL     1       2.248  12.997  20.852  0.00  0.00    +0.000 C 
ATOM      7  C   UNL     1       0.683  13.225  18.838  0.00  0.00    +0.000 C 
ATOM      8  O   UNL     1      -0.658  12.956  18.402  0.00  0.00    +0.000 OA
ATOM      9  C   UNL     1      -0.953  11.555  18.304  0.00  0.00    +0.000 C 
ENDROOT
BRANCH   7  10
ATOM     10  C   UNL     1       0.873  14.723  18.709  0.00  0.00    +0.000 A 
ATOM     11  C   UNL     1       2.140  15.262  18.439  0.00  0.00    +0.000 A 
ATOM     12  C   UNL     1       2.324  16.645  18.360  0.00  0.00    +0.000 A 
ATOM     13  C   UNL     1       1.242  17.506  18.544  0.00  0.00    +0.000 A 
ATOM     14  C   UNL     1      -0.023  16.979  18.786  0.00  0.00    +0.000 A 
ATOM     15 CL   UNL     1      -1.364  18.038  19.003  0.00  0.00    +0.000 Cl
ATOM     16  C   UNL     1      -0.214  15.600  18.865  0.00  0.00    +0.000 A 
ENDBRANCH   7  10
BRANCH   9  17
ATOM     17  C   UNL     1      -2.314  11.402  17.643  0.00  0.00    +0.000 A 
ATOM     18  C   UNL     1      -3.493  11.814  18.291  0.00  0.00    +0.000 A 
ATOM     19  C   UNL     1      -4.737  11.698  17.671  0.00  0.00    +0.000 A 
ATOM     20  C   UNL     1      -4.826  11.165  16.387  0.00  0.00    +0.000 A 
ATOM     21  C   UNL     1      -3.669  10.746  15.737  0.00  0.00    +0.000 A 
ATOM     22 CL   UNL     1      -3.778  10.095  14.146  0.00  0.00    +0.000 Cl
ATOM     23  C   UNL     1      -2.421  10.854  16.355  0.00  0.00    +0.000 A 
ENDBRANCH   9  17
BRANCH   4  24
ATOM     24  N   UNL     1       1.319   9.041  20.545  0.00  0.00    +0.000 N 
ATOM     25  H   UNL     1       0.986   8.524  21.351  0.00  0.00    +0.000 HD
BRANCH  24  26
ATOM     26  C   UNL     1       1.932   8.310  19.522  0.00  0.00    +0.000 C 
ATOM     27  S   UNL     1       1.880   8.735  17.897  0.00  0.00    +0.000 S 
BRANCH  26  28
ATOM     28  N   UNL     1       2.470   7.129  20.032  0.00  0.00    +0.000 N 
ATOM     29  H   UNL     1       2.885   7.256  20.947  0.00  0.00    +0.000 HD
BRANCH  28  30
ATOM     30  C   UNL     1       2.084   5.808  19.718  0.00  0.00    +0.000 A 
ATOM     31  C   UNL     1       1.380   5.013  20.626  0.00  0.00    +0.000 A 
ATOM     32  C   UNL     1       0.954   3.734  20.261  0.00  0.00    +0.000 A 
ATOM     33  C   UNL     1       1.230   3.243  18.987  0.00  0.00    +0.000 A 
ATOM     34  C   UNL     1       1.925   4.034  18.074  0.00  0.00    +0.000 A 
ATOM     35  C   UNL     1       2.339   5.319  18.433  0.00  0.00    +0.000 A 
ENDBRANCH  28  30
ENDBRANCH  26  28
ENDBRANCH  24  26
ENDBRANCH   4  24
TORSDOF 6
ENDMDL
MODEL 5
REMARK VINA RESULT:      -7.1      3.464      5.729
REMARK  Name = 
REMARK  8 active torsions:
REMARK  status: ('A' for Active; 'I' for Inactive)
REMARK    1  A    between atoms: C_1  and  C_2
REMARK    2  A    between atoms: N_4  and  N_5
REMARK    3  A    between atoms: N_5  and  C_6
REMARK    4  A    between atoms: C_6  and  N_8
REMARK    5  A    between atoms: N_8  and  C_9
REMARK    6  A    between atoms: C_15  and  C_16
REMARK    7  A    between atoms: C_17  and  C_18
REMARK    8  A    between atoms: C_26  and  C_27
REMARK                            x       y       z     vdW  Elec       q    Type
REMARK                         _______ _______ _______ _____ _____    ______ ____
ROOT
ATOM      1  C   UNL     1      -1.216  11.547  18.370  0.00  0.00    +0.000 C 
ATOM      2  C   UNL     1      -0.761  11.618  19.832  0.00  0.00    +0.000 C 
ATOM      3  C   UNL     1      -1.050  13.014  20.366  0.00  0.00    +0.000 C 
ATOM      4  N   UNL     1      -1.904  13.342  21.281  0.00  0.00    +0.000 NA
ATOM      5  C   UNL     1      -0.202  14.140  19.760  0.00  0.00    +0.000 C 
ATOM      6  C   UNL     1      -0.562  15.521  20.302  0.00  0.00    +0.000 C 
ATOM      7  C   UNL     1       1.257  13.739  20.028  0.00  0.00    +0.000 C 
ATOM      8  O   UNL     1       1.513  12.455  19.441  0.00  0.00    +0.000 OA
ATOM      9  C   UNL     1       0.752  11.395  20.037  0.00  0.00    +0.000 C 
ENDROOT
BRANCH   7  10
ATOM     10  C   UNL     1       2.263  14.690  19.412  0.00  0.00    +0.000 A 
ATOM     11  C   UNL     1       2.571  14.618  18.045  0.00  0.00    +0.000 A 
ATOM     12  C   UNL     1       3.529  15.468  17.484  0.00  0.00    +0.000 A 
ATOM     13  C   UNL     1       4.187  16.403  18.283  0.00  0.00    +0.000 A 
ATOM     14  C   UNL     1       3.870  16.499  19.635  0.00  0.00    +0.000 A 
ATOM     15 CL   UNL     1       4.671  17.660  20.621  0.00  0.00    +0.000 Cl
ATOM     16  C   UNL     1       2.914  15.656  20.200  0.00  0.00    +0.000 A 
ENDBRANCH   7  10
BRANCH   9  17
ATOM     17  C   UNL     1       1.258  10.075  19.477  0.00  0.00    +0.000 A 
ATOM     18  C   UNL     1       1.772   9.982  18.172  0.00  0.00    +0.000 A 
ATOM     19  C   UNL     1       2.262   8.774  17.671  0.00  0.00    +0.000 A 
ATOM     20  C   UNL     1       2.244   7.633  18.470  0.00  0.00    +0.000 A 
ATOM     21  C   UNL     1       1.730   7.708  19.762  0.00  0.00    +0.000 A 
ATOM     22 CL   UNL     1       1.716   6.300  20.753  0.00  0.00    +0.000 Cl
ATOM     23  C   UNL     1       1.234   8.913  20.267  0.00  0.00    +0.000 A 
ENDBRANCH   9  17
BRANCH   4  24
ATOM     24  N   UNL     1      -2.683  12.447  21.934  0.00  0.00    +0.000 N 
ATOM     25  H   UNL     1      -2.494  11.453  21.874  0.00  0.00    +0.000 HD
BRANCH  24  26
ATOM     26  C   UNL     1      -3.934  12.835  22.425  0.00  0.00    +0.000 C 
ATOM     27  S   UNL     1      -4.407  12.680  24.029  0.00  0.00    +0.000 S 
BRANCH  26  28
ATOM     28  N   UNL     1      -4.758  13.239  21.374  0.00  0.00    +0.000 N 
ATOM     29  H   UNL     1      -4.538  14.173  21.048  0.00  0.00    +0.000 HD
BRANCH  28  30
ATOM     30  C   UNL     1      -5.430  12.414  20.448  0.00  0.00    +0.000 A 
ATOM     31  C   UNL     1      -4.884  12.120  19.195  0.00  0.00    +0.000 A 
ATOM     32  C   UNL     1      -5.541  11.246  18.327  0.00  0.00    +0.000 A 
ATOM     33  C   UNL     1      -6.748  10.661  18.706  0.00  0.00    +0.000 A 
ATOM     34  C   UNL     1      -7.293  10.944  19.956  0.00  0.00    +0.000 A 
ATOM     35  C   UNL     1      -6.629  11.807  20.832  0.00  0.00    +0.000 A 
ENDBRANCH  28  30
ENDBRANCH  26  28
ENDBRANCH  24  26
ENDBRANCH   4  24
TORSDOF 6
ENDMDL
MODEL 6
REMARK VINA RESULT:      -7.0      4.166      6.168
REMARK  Name = 
REMARK  8 active torsions:
REMARK  status: ('A' for Active; 'I' for Inactive)
REMARK    1  A    between atoms: C_1  and  C_2
REMARK    2  A    between atoms: N_4  and  N_5
REMARK    3  A    between atoms: N_5  and  C_6
REMARK    4  A    between atoms: C_6  and  N_8
REMARK    5  A    between atoms: N_8  and  C_9
REMARK    6  A    between atoms: C_15  and  C_16
REMARK    7  A    between atoms: C_17  and  C_18
REMARK    8  A    between atoms: C_26  and  C_27
REMARK                            x       y       z     vdW  Elec       q    Type
REMARK                         _______ _______ _______ _____ _____    ______ ____
ROOT
ATOM      1  C   UNL     1      -0.493  10.819  21.925  0.00  0.00    +0.000 C 
ATOM      2  C   UNL     1      -1.106  11.677  20.812  0.00  0.00    +0.000 C 
ATOM      3  C   UNL     1      -0.285  11.489  19.544  0.00  0.00    +0.000 C 
ATOM      4  N   UNL     1      -0.661  10.923  18.443  0.00  0.00    +0.000 NA
ATOM      5  C   UNL     1       1.136  12.068  19.587  0.00  0.00    +0.000 C 
ATOM      6  C   UNL     1       1.926  11.815  18.305  0.00  0.00    +0.000 C 
ATOM      7  C   UNL     1       0.957  13.559  19.911  0.00  0.00    +0.000 C 
ATOM      8  O   UNL     1       0.250  13.695  21.152  0.00  0.00    +0.000 OA
ATOM      9  C   UNL     1      -1.093  13.193  21.100  0.00  0.00    +0.000 C 
ENDROOT
BRANCH   7  10
ATOM     10  C   UNL     1       2.269  14.295  20.093  0.00  0.00    +0.000 A 
ATOM     11  C   UNL     1       2.606  15.372  19.259  0.00  0.00    +0.000 A 
ATOM     12  C   UNL     1       3.834  16.025  19.400  0.00  0.00    +0.000 A 
ATOM     13  C   UNL     1       4.737  15.613  20.379  0.00  0.00    +0.000 A 
ATOM     14  C   UNL     1       4.401  14.562  21.227  0.00  0.00    +0.000 A 
ATOM     15 CL   UNL     1       5.508  14.057  22.445  0.00  0.00    +0.000 Cl
ATOM     16  C   UNL     1       3.177  13.907  21.093  0.00  0.00    +0.000 A 
ENDBRANCH   7  10
BRANCH   9  17
ATOM     17  C   UNL     1      -1.794  13.577  22.393  0.00  0.00    +0.000 A 
ATOM     18  C   UNL     1      -3.079  13.095  22.700  0.00  0.00    +0.000 A 
ATOM     19  C   UNL     1      -3.708  13.427  23.901  0.00  0.00    +0.000 A 
ATOM     20  C   UNL     1      -3.061  14.251  24.819  0.00  0.00    +0.000 A 
ATOM     21  C   UNL     1      -1.793  14.741  24.526  0.00  0.00    +0.000 A 
ATOM     22 CL   UNL     1      -0.989  15.753  25.664  0.00  0.00    +0.000 Cl
ATOM     23  C   UNL     1      -1.160  14.417  23.323  0.00  0.00    +0.000 A 
ENDBRANCH   9  17
BRANCH   4  24
ATOM     24  N   UNL     1      -1.901  10.414  18.249  0.00  0.00    +0.000 N 
ATOM     25  H   UNL     1      -2.148   9.497  18.607  0.00  0.00    +0.000 HD
BRANCH  24  26
ATOM     26  C   UNL     1      -2.747  10.978  17.290  0.00  0.00    +0.000 C 
ATOM     27  S   UNL     1      -2.715  10.588  15.656  0.00  0.00    +0.000 S 
BRANCH  26  28
ATOM     28  N   UNL     1      -3.517  11.990  17.864  0.00  0.00    +0.000 N 
ATOM     29  H   UNL     1      -3.373  12.887  17.416  0.00  0.00    +0.000 HD
BRANCH  28  30
ATOM     30  C   UNL     1      -4.736  11.846  18.560  0.00  0.00    +0.000 A 
ATOM     31  C   UNL     1      -5.751  11.004  18.098  0.00  0.00    +0.000 A 
ATOM     32  C   UNL     1      -6.919  10.831  18.843  0.00  0.00    +0.000 A 
ATOM     33  C   UNL     1      -7.078  11.500  20.056  0.00  0.00    +0.000 A 
ATOM     34  C   UNL     1      -6.067  12.335  20.526  0.00  0.00    +0.000 A 
ATOM     35  C   UNL     1      -4.891  12.497  19.787  0.00  0.00    +0.000 A 
ENDBRANCH  28  30
ENDBRANCH  26  28
ENDBRANCH  24  26
ENDBRANCH   4  24
TORSDOF 6
ENDMDL
MODEL 7
REMARK VINA RESULT:      -7.0      1.129      1.620
REMARK  Name = 
REMARK  8 active torsions:
REMARK  status: ('A' for Active; 'I' for Inactive)
REMARK    1  A    between atoms: C_1  and  C_2
REMARK    2  A    between atoms: N_4  and  N_5
REMARK    3  A    between atoms: N_5  and  C_6
REMARK    4  A    between atoms: C_6  and  N_8
REMARK    5  A    between atoms: N_8  and  C_9
REMARK    6  A    between atoms: C_15  and  C_16
REMARK    7  A    between atoms: C_17  and  C_18
REMARK    8  A    between atoms: C_26  and  C_27
REMARK                            x       y       z     vdW  Elec       q    Type
REMARK                         _______ _______ _______ _____ _____    ______ ____
ROOT
ATOM      1  C   UNL     1      -0.680  12.908  19.297  0.00  0.00    +0.000 C 
ATOM      2  C   UNL     1      -1.348  11.846  20.178  0.00  0.00    +0.000 C 
ATOM      3  C   UNL     1      -0.365  11.420  21.258  0.00  0.00    +0.000 C 
ATOM      4  N   UNL     1      -0.463  11.623  22.533  0.00  0.00    +0.000 NA
ATOM      5  C   UNL     1       0.859  10.637  20.764  0.00  0.00    +0.000 C 
ATOM      6  C   UNL     1       1.829  10.271  21.885  0.00  0.00    +0.000 C 
ATOM      7  C   UNL     1       0.289   9.415  20.027  0.00  0.00    +0.000 C 
ATOM      8  O   UNL     1      -0.569   9.859  18.965  0.00  0.00    +0.000 OA
ATOM      9  C   UNL     1      -1.735  10.553  19.428  0.00  0.00    +0.000 C 
ENDROOT
BRANCH   7  10
ATOM     10  C   UNL     1       1.354   8.557  19.374  0.00  0.00    +0.000 A 
ATOM     11  C   UNL     1       1.920   8.931  18.145  0.00  0.00    +0.000 A 
ATOM     12  C   UNL     1       2.873   8.120  17.523  0.00  0.00    +0.000 A 
ATOM     13  C   UNL     1       3.276   6.928  18.125  0.00  0.00    +0.000 A 
ATOM     14  C   UNL     1       2.739   6.562  19.356  0.00  0.00    +0.000 A 
ATOM     15 CL   UNL     1       3.243   5.097  20.107  0.00  0.00    +0.000 Cl
ATOM     16  C   UNL     1       1.790   7.367  19.982  0.00  0.00    +0.000 A 
ENDBRANCH   7  10
BRANCH   9  17
ATOM     17  C   UNL     1      -2.654  10.786  18.239  0.00  0.00    +0.000 A 
ATOM     18  C   UNL     1      -3.842  11.527  18.366  0.00  0.00    +0.000 A 
ATOM     19  C   UNL     1      -4.668  11.763  17.266  0.00  0.00    +0.000 A 
ATOM     20  C   UNL     1      -4.320  11.259  16.015  0.00  0.00    +0.000 A 
ATOM     21  C   UNL     1      -3.150  10.517  15.876  0.00  0.00    +0.000 A 
ATOM     22 CL   UNL     1      -2.714   9.901  14.328  0.00  0.00    +0.000 Cl
ATOM     23  C   UNL     1      -2.322  10.273  16.975  0.00  0.00    +0.000 A 
ENDBRANCH   9  17
BRANCH   4  24
ATOM     24  N   UNL     1      -1.512  12.256  23.110  0.00  0.00    +0.000 N 
ATOM     25  H   UNL     1      -2.301  11.732  23.471  0.00  0.00    +0.000 HD
BRANCH  24  26
ATOM     26  C   UNL     1      -1.684  13.633  22.930  0.00  0.00    +0.000 C 
ATOM     27  S   UNL     1      -0.420  14.724  22.736  0.00  0.00    +0.000 S 
BRANCH  26  28
ATOM     28  N   UNL     1      -3.030  13.971  23.065  0.00  0.00    +0.000 N 
ATOM     29  H   UNL     1      -3.178  14.703  23.749  0.00  0.00    +0.000 HD
BRANCH  28  30
ATOM     30  C   UNL     1      -4.050  13.824  22.101  0.00  0.00    +0.000 A 
ATOM     31  C   UNL     1      -4.965  12.769  22.154  0.00  0.00    +0.000 A 
ATOM     32  C   UNL     1      -6.003  12.688  21.224  0.00  0.00    +0.000 A 
ATOM     33  C   UNL     1      -6.133  13.663  20.236  0.00  0.00    +0.000 A 
ATOM     34  C   UNL     1      -5.229  14.721  20.183  0.00  0.00    +0.000 A 
ATOM     35  C   UNL     1      -4.197  14.810  21.122  0.00  0.00    +0.000 A 
ENDBRANCH  28  30
ENDBRANCH  26  28
ENDBRANCH  24  26
ENDBRANCH   4  24
TORSDOF 6
ENDMDL
MODEL 8
REMARK VINA RESULT:      -7.0      3.770      7.330
REMARK  Name = 
REMARK  8 active torsions:
REMARK  status: ('A' for Active; 'I' for Inactive)
REMARK    1  A    between atoms: C_1  and  C_2
REMARK    2  A    between atoms: N_4  and  N_5
REMARK    3  A    between atoms: N_5  and  C_6
REMARK    4  A    between atoms: C_6  and  N_8
REMARK    5  A    between atoms: N_8  and  C_9
REMARK    6  A    between atoms: C_15  and  C_16
REMARK    7  A    between atoms: C_17  and  C_18
REMARK    8  A    between atoms: C_26  and  C_27
REMARK                            x       y       z     vdW  Elec       q    Type
REMARK                         _______ _______ _______ _____ _____    ______ ____
ROOT
ATOM      1  C   UNL     1      -1.845  11.156  20.676  0.00  0.00    +0.000 C 
ATOM      2  C   UNL     1      -0.815  10.689  19.641  0.00  0.00    +0.000 C 
ATOM      3  C   UNL     1       0.580  10.991  20.171  0.00  0.00    +0.000 C 
ATOM      4  N   UNL     1       1.488  10.137  20.521  0.00  0.00    +0.000 NA
ATOM      5  C   UNL     1       0.941  12.479  20.266  0.00  0.00    +0.000 C 
ATOM      6  C   UNL     1       2.335  12.723  20.841  0.00  0.00    +0.000 C 
ATOM      7  C   UNL     1       0.762  13.032  18.844  0.00  0.00    +0.000 C 
ATOM      8  O   UNL     1      -0.587  12.801  18.411  0.00  0.00    +0.000 OA
ATOM      9  C   UNL     1      -0.912  11.410  18.280  0.00  0.00    +0.000 C 
ENDROOT
BRANCH   7  10
ATOM     10  C   UNL     1       0.982  14.529  18.750  0.00  0.00    +0.000 A 
ATOM     11  C   UNL     1      -0.099  15.418  18.858  0.00  0.00    +0.000 A 
ATOM     12  C   UNL     1       0.097  16.796  18.731  0.00  0.00    +0.000 A 
ATOM     13  C   UNL     1       1.376  17.302  18.500  0.00  0.00    +0.000 A 
ATOM     14  C   UNL     1       2.457  16.429  18.417  0.00  0.00    +0.000 A 
ATOM     15 CL   UNL     1       4.039  17.051  18.142  0.00  0.00    +0.000 Cl
ATOM     16  C   UNL     1       2.269  15.054  18.544  0.00  0.00    +0.000 A 
ENDBRANCH   7  10
BRANCH   9  17
ATOM     17  C   UNL     1      -2.280  11.301  17.625  0.00  0.00    +0.000 A 
ATOM     18  C   UNL     1      -3.441  11.751  18.278  0.00  0.00    +0.000 A 
ATOM     19  C   UNL     1      -4.692  11.676  17.662  0.00  0.00    +0.000 A 
ATOM     20  C   UNL     1      -4.803  11.145  16.379  0.00  0.00    +0.000 A 
ATOM     21  C   UNL     1      -3.663  10.688  15.724  0.00  0.00    +0.000 A 
ATOM     22 CL   UNL     1      -3.800  10.040  14.135  0.00  0.00    +0.000 Cl
ATOM     23  C   UNL     1      -2.409  10.756  16.337  0.00  0.00    +0.000 A 
ENDBRANCH   9  17
BRANCH   4  24
ATOM     24  N   UNL     1       1.322   8.795  20.443  0.00  0.00    +0.000 N 
ATOM     25  H   UNL     1       0.908   8.277  21.209  0.00  0.00    +0.000 HD
BRANCH  24  26
ATOM     26  C   UNL     1       2.005   8.062  19.466  0.00  0.00    +0.000 C 
ATOM     27  S   UNL     1       2.148   8.536  17.860  0.00  0.00    +0.000 S 
BRANCH  26  28
ATOM     28  N   UNL     1       2.426   6.840  19.989  0.00  0.00    +0.000 N 
ATOM     29  H   UNL     1       2.804   6.930  20.925  0.00  0.00    +0.000 HD
BRANCH  28  30
ATOM     30  C   UNL     1       1.958   5.555  19.643  0.00  0.00    +0.000 A 
ATOM     31  C   UNL     1       2.151   5.022  18.365  0.00  0.00    +0.000 A 
ATOM     32  C   UNL     1       1.736   3.722  18.073  0.00  0.00    +0.000 A 
ATOM     33  C   UNL     1       1.127   2.945  19.057  0.00  0.00    +0.000 A 
ATOM     34  C   UNL     1       0.939   3.467  20.335  0.00  0.00    +0.000 A 
ATOM     35  C   UNL     1       1.367   4.764  20.632  0.00  0.00    +0.000 A 
ENDBRANCH  28  30
ENDBRANCH  26  28
ENDBRANCH  24  26
ENDBRANCH   4  24
TORSDOF 6
ENDMDL
MODEL 9
REMARK VINA RESULT:      -6.9      3.683      7.939
REMARK  Name = 
REMARK  8 active torsions:
REMARK  status: ('A' for Active; 'I' for Inactive)
REMARK    1  A    between atoms: C_1  and  C_2
REMARK    2  A    between atoms: N_4  and  N_5
REMARK    3  A    between atoms: N_5  and  C_6
REMARK    4  A    between atoms: C_6  and  N_8
REMARK    5  A    between atoms: N_8  and  C_9
REMARK    6  A    between atoms: C_15  and  C_16
REMARK    7  A    between atoms: C_17  and  C_18
REMARK    8  A    between atoms: C_26  and  C_27
REMARK                            x       y       z     vdW  Elec       q    Type
REMARK                         _______ _______ _______ _____ _____    ______ ____
ROOT
ATOM      1  C   UNL     1       0.725  13.699  21.486  0.00  0.00    +0.000 C 
ATOM      2  C   UNL     1      -0.225  13.616  20.285  0.00  0.00    +0.000 C 
ATOM      3  C   UNL     1      -1.209  14.774  20.361  0.00  0.00    +0.000 C 
ATOM      4  N   UNL     1      -1.299  15.781  19.554  0.00  0.00    +0.000 NA
ATOM      5  C   UNL     1      -2.219  14.707  21.515  0.00  0.00    +0.000 C 
ATOM      6  C   UNL     1      -3.154  15.913  21.566  0.00  0.00    +0.000 C 
ATOM      7  C   UNL     1      -2.955  13.370  21.333  0.00  0.00    +0.000 C 
ATOM      8  O   UNL     1      -2.002  12.297  21.348  0.00  0.00    +0.000 OA
ATOM      9  C   UNL     1      -1.085  12.335  20.245  0.00  0.00    +0.000 C 
ENDROOT
BRANCH   7  10
ATOM     10  C   UNL     1      -3.940  13.071  22.445  0.00  0.00    +0.000 A 
ATOM     11  C   UNL     1      -3.486  12.720  23.726  0.00  0.00    +0.000 A 
ATOM     12  C   UNL     1      -4.394  12.405  24.742  0.00  0.00    +0.000 A 
ATOM     13  C   UNL     1      -5.765  12.442  24.490  0.00  0.00    +0.000 A 
ATOM     14  C   UNL     1      -6.224  12.814  23.230  0.00  0.00    +0.000 A 
ATOM     15 CL   UNL     1      -7.916  12.871  22.919  0.00  0.00    +0.000 Cl
ATOM     16  C   UNL     1      -5.325  13.131  22.213  0.00  0.00    +0.000 A 
ENDBRANCH   7  10
BRANCH   9  17
ATOM     17  C   UNL     1      -0.272  11.050  20.258  0.00  0.00    +0.000 A 
ATOM     18  C   UNL     1      -0.245  10.213  21.387  0.00  0.00    +0.000 A 
ATOM     19  C   UNL     1       0.479   9.020  21.385  0.00  0.00    +0.000 A 
ATOM     20  C   UNL     1       1.194   8.643  20.251  0.00  0.00    +0.000 A 
ATOM     21  C   UNL     1       1.182   9.466  19.128  0.00  0.00    +0.000 A 
ATOM     22 CL   UNL     1       2.058   8.996  17.722  0.00  0.00    +0.000 Cl
ATOM     23  C   UNL     1       0.463  10.664  19.125  0.00  0.00    +0.000 A 
ENDBRANCH   9  17
BRANCH   4  24
ATOM     24  N   UNL     1      -0.506  15.942  18.468  0.00  0.00    +0.000 N 
ATOM     25  H   UNL     1      -0.053  15.147  18.032  0.00  0.00    +0.000 HD
BRANCH  24  26
ATOM     26  C   UNL     1      -0.036  17.215  18.128  0.00  0.00    +0.000 C 
ATOM     27  S   UNL     1      -1.028  18.524  17.772  0.00  0.00    +0.000 S 
BRANCH  26  28
ATOM     28  N   UNL     1       1.353  17.196  18.005  0.00  0.00    +0.000 N 
ATOM     29  H   UNL     1       1.725  18.079  17.674  0.00  0.00    +0.000 HD
BRANCH  28  30
ATOM     30  C   UNL     1       2.264  16.381  18.710  0.00  0.00    +0.000 A 
ATOM     31  C   UNL     1       2.904  15.298  18.101  0.00  0.00    +0.000 A 
ATOM     32  C   UNL     1       3.850  14.551  18.806  0.00  0.00    +0.000 A 
ATOM     33  C   UNL     1       4.161  14.882  20.123  0.00  0.00    +0.000 A 
ATOM     34  C   UNL     1       3.533  15.965  20.733  0.00  0.00    +0.000 A 
ATOM     35  C   UNL     1       2.596  16.723  20.024  0.00  0.00    +0.000 A 
ENDBRANCH  28  30
ENDBRANCH  26  28
ENDBRANCH  24  26
ENDBRANCH   4  24
TORSDOF 6
ENDMDL
