MODEL 1
REMARK VINA RESULT:      -8.0      0.000      0.000
REMARK  Name = 
REMARK  4 active torsions:
REMARK  status: ('A' for Active; 'I' for Inactive)
REMARK    1  A    between atoms: C_4  and  C_5
REMARK    2  A    between atoms: C_8  and  S_9
REMARK    3  A    between atoms: S_9  and  C_10
REMARK    4  A    between atoms: C_10  and  C_11
REMARK                            x       y       z     vdW  Elec       q    Type
REMARK                         _______ _______ _______ _____ _____    ______ ____
ROOT
ATOM      1  C   UNL     1       8.326   8.772  18.339  0.00  0.00    +0.000 A 
ATOM      2  C   UNL     1       8.536   7.638  19.117  0.00  0.00    +0.000 A 
ATOM      3  C   UNL     1       8.063   6.400  18.674  0.00  0.00    +0.000 A 
ATOM      4  C   UNL     1       7.402   6.331  17.462  0.00  0.00    +0.000 A 
ATOM      5  N   UNL     1       7.185   7.441  16.733  0.00  0.00    +0.000 NA
ATOM      6  N   UNL     1       7.648   8.663  17.171  0.00  0.00    +0.000 NA
ENDROOT
BRANCH   1  10
ATOM      7  C   UNL     1       9.675  12.680  19.282  0.00  0.00    +0.000 A 
ATOM      8  C   UNL     1       9.836  11.681  20.229  0.00  0.00    +0.000 A 
ATOM      9  C   UNL     1       9.417  10.385  19.933  0.00  0.00    +0.000 A 
ATOM     10  C   UNL     1       8.840  10.113  18.690  0.00  0.00    +0.000 A 
ATOM     11  N   UNL     1       8.693  11.090  17.752  0.00  0.00    +0.000 NA
ATOM     12  C   UNL     1       9.108  12.338  18.067  0.00  0.00    +0.000 A 
ENDBRANCH   1  10
BRANCH   4  13
ATOM     13  S   UNL     1       6.810   4.774  16.843  0.00  0.00    +0.000 S 
BRANCH  13  14
ATOM     14  C   UNL     1       5.118   5.267  16.363  0.00  0.00    +0.000 C 
BRANCH  14  15
ATOM     15  C   UNL     1       4.121   4.795  17.379  0.00  0.00    +0.000 A 
ATOM     16  C   UNL     1       3.159   3.816  17.233  0.00  0.00    +0.000 A 
ATOM     17  C   UNL     1       2.365   3.620  18.412  0.00  0.00    +0.000 A 
ATOM     18  C   UNL     1       1.286   2.739  18.659  0.00  0.00    +0.000 A 
ATOM     19  C   UNL     1       0.644   2.734  19.901  0.00  0.00    +0.000 A 
ATOM     20  C   UNL     1       1.063   3.591  20.908  0.00  0.00    +0.000 A 
ATOM     21  C   UNL     1       2.132   4.466  20.697  0.00  0.00    +0.000 A 
ATOM     22  C   UNL     1       2.773   4.471  19.442  0.00  0.00    +0.000 A 
ATOM     23  S   UNL     1       4.098   5.457  18.954  0.00  0.00    +0.000 S 
ENDBRANCH  14  15
ENDBRANCH  13  14
ENDBRANCH   4  13
TORSDOF 4
ENDMDL
MODEL 2
REMARK VINA RESULT:      -7.9      0.944      1.148
REMARK  Name = 
REMARK  4 active torsions:
REMARK  status: ('A' for Active; 'I' for Inactive)
REMARK    1  A    between atoms: C_4  and  C_5
REMARK    2  A    between atoms: C_8  and  S_9
REMARK    3  A    between atoms: S_9  and  C_10
REMARK    4  A    between atoms: C_10  and  C_11
REMARK                            x       y       z     vdW  Elec       q    Type
REMARK                         _______ _______ _______ _____ _____    ______ ____
ROOT
ATOM      1  C   UNL     1       8.267   8.627  18.283  0.00  0.00    +0.000 A 
ATOM      2  C   UNL     1       8.502   7.498  19.060  0.00  0.00    +0.000 A 
ATOM      3  C   UNL     1       8.000   6.260  18.648  0.00  0.00    +0.000 A 
ATOM      4  C   UNL     1       7.286   6.187  17.467  0.00  0.00    +0.000 A 
ATOM      5  N   UNL     1       7.046   7.294  16.740  0.00  0.00    +0.000 NA
ATOM      6  N   UNL     1       7.538   8.515  17.147  0.00  0.00    +0.000 NA
ENDROOT
BRANCH   1  10
ATOM      7  C   UNL     1       9.680  12.530  19.153  0.00  0.00    +0.000 A 
ATOM      8  C   UNL     1      10.002  11.502  20.027  0.00  0.00    +0.000 A 
ATOM      9  C   UNL     1       9.564  10.209  19.750  0.00  0.00    +0.000 A 
ATOM     10  C   UNL     1       8.807   9.966  18.601  0.00  0.00    +0.000 A 
ATOM     11  N   UNL     1       8.500  10.972  17.734  0.00  0.00    +0.000 NA
ATOM     12  C   UNL     1       8.938  12.217  18.028  0.00  0.00    +0.000 A 
ENDBRANCH   1  10
BRANCH   4  13
ATOM     13  S   UNL     1       6.655   4.631  16.886  0.00  0.00    +0.000 S 
BRANCH  13  14
ATOM     14  C   UNL     1       4.898   5.082  16.670  0.00  0.00    +0.000 C 
BRANCH  14  15
ATOM     15  C   UNL     1       4.071   4.543  17.798  0.00  0.00    +0.000 A 
ATOM     16  C   UNL     1       4.472   3.708  18.821  0.00  0.00    +0.000 A 
ATOM     17  C   UNL     1       3.415   3.380  19.734  0.00  0.00    +0.000 A 
ATOM     18  C   UNL     1       3.414   2.555  20.883  0.00  0.00    +0.000 A 
ATOM     19  C   UNL     1       2.242   2.368  21.622  0.00  0.00    +0.000 A 
ATOM     20  C   UNL     1       1.066   2.997  21.239  0.00  0.00    +0.000 A 
ATOM     21  C   UNL     1       1.038   3.826  20.113  0.00  0.00    +0.000 A 
ATOM     22  C   UNL     1       2.221   4.007  19.369  0.00  0.00    +0.000 A 
ATOM     23  S   UNL     1       2.424   4.970  17.956  0.00  0.00    +0.000 S 
ENDBRANCH  14  15
ENDBRANCH  13  14
ENDBRANCH   4  13
TORSDOF 4
ENDMDL
MODEL 3
REMARK VINA RESULT:      -7.7      4.919      7.153
REMARK  Name = 
REMARK  4 active torsions:
REMARK  status: ('A' for Active; 'I' for Inactive)
REMARK    1  A    between atoms: C_4  and  C_5
REMARK    2  A    between atoms: C_8  and  S_9
REMARK    3  A    between atoms: S_9  and  C_10
REMARK    4  A    between atoms: C_10  and  C_11
REMARK                            x       y       z     vdW  Elec       q    Type
REMARK                         _______ _______ _______ _____ _____    ______ ____
ROOT
ATOM      1  C   UNL     1       5.255   5.096  15.581  0.00  0.00    +0.000 A 
ATOM      2  C   UNL     1       4.594   4.149  16.356  0.00  0.00    +0.000 A 
ATOM      3  C   UNL     1       3.882   4.558  17.487  0.00  0.00    +0.000 A 
ATOM      4  C   UNL     1       3.845   5.902  17.805  0.00  0.00    +0.000 A 
ATOM      5  N   UNL     1       4.512   6.803  17.059  0.00  0.00    +0.000 NA
ATOM      6  N   UNL     1       5.217   6.400  15.946  0.00  0.00    +0.000 NA
ENDROOT
BRANCH   1  10
ATOM      7  C   UNL     1       7.471   4.175  12.085  0.00  0.00    +0.000 A 
ATOM      8  C   UNL     1       6.294   3.481  12.321  0.00  0.00    +0.000 A 
ATOM      9  C   UNL     1       5.541   3.781  13.454  0.00  0.00    +0.000 A 
ATOM     10  C   UNL     1       5.981   4.772  14.335  0.00  0.00    +0.000 A 
ATOM     11  N   UNL     1       7.131   5.465  14.098  0.00  0.00    +0.000 NA
ATOM     12  C   UNL     1       7.842   5.153  12.992  0.00  0.00    +0.000 A 
ENDBRANCH   1  10
BRANCH   4  13
ATOM     13  S   UNL     1       2.928   6.473  19.216  0.00  0.00    +0.000 S 
BRANCH  13  14
ATOM     14  C   UNL     1       2.252   8.023  18.525  0.00  0.00    +0.000 C 
BRANCH  14  15
ATOM     15  C   UNL     1       1.421   8.740  19.547  0.00  0.00    +0.000 A 
ATOM     16  C   UNL     1       0.676   9.890  19.380  0.00  0.00    +0.000 A 
ATOM     17  C   UNL     1       0.004  10.309  20.576  0.00  0.00    +0.000 A 
ATOM     18  C   UNL     1      -0.829  11.427  20.820  0.00  0.00    +0.000 A 
ATOM     19  C   UNL     1      -1.369  11.645  22.091  0.00  0.00    +0.000 A 
ATOM     20  C   UNL     1      -1.099  10.761  23.127  0.00  0.00    +0.000 A 
ATOM     21  C   UNL     1      -0.288   9.644  22.914  0.00  0.00    +0.000 A 
ATOM     22  C   UNL     1       0.259   9.431  21.632  0.00  0.00    +0.000 A 
ATOM     23  S   UNL     1       1.282   8.136  21.139  0.00  0.00    +0.000 S 
ENDBRANCH  14  15
ENDBRANCH  13  14
ENDBRANCH   4  13
TORSDOF 4
ENDMDL
MODEL 4
REMARK VINA RESULT:      -7.6      0.581      1.019
REMARK  Name = 
REMARK  4 active torsions:
REMARK  status: ('A' for Active; 'I' for Inactive)
REMARK    1  A    between atoms: C_4  and  C_5
REMARK    2  A    between atoms: C_8  and  S_9
REMARK    3  A    between atoms: S_9  and  C_10
REMARK    4  A    between atoms: C_10  and  C_11
REMARK                            x       y       z     vdW  Elec       q    Type
REMARK                         _______ _______ _______ _____ _____    ______ ____
ROOT
ATOM      1  C   UNL     1       8.229   8.813  18.338  0.00  0.00    +0.000 A 
ATOM      2  C   UNL     1       8.533   7.737  19.166  0.00  0.00    +0.000 A 
ATOM      3  C   UNL     1       8.160   6.446  18.785  0.00  0.00    +0.000 A 
ATOM      4  C   UNL     1       7.501   6.266  17.584  0.00  0.00    +0.000 A 
ATOM      5  N   UNL     1       7.192   7.320  16.805  0.00  0.00    +0.000 NA
ATOM      6  N   UNL     1       7.557   8.594  17.182  0.00  0.00    +0.000 NA
ENDROOT
BRANCH   1  10
ATOM      7  C   UNL     1       9.525  12.754  19.213  0.00  0.00    +0.000 A 
ATOM      8  C   UNL     1       8.901  12.521  17.997  0.00  0.00    +0.000 A 
ATOM      9  C   UNL     1       8.451  11.237  17.697  0.00  0.00    +0.000 A 
ATOM     10  C   UNL     1       8.635  10.205  18.622  0.00  0.00    +0.000 A 
ATOM     11  N   UNL     1       9.236  10.435  19.823  0.00  0.00    +0.000 NA
ATOM     12  C   UNL     1       9.664  11.690  20.087  0.00  0.00    +0.000 A 
ENDBRANCH   1  10
BRANCH   4  13
ATOM     13  S   UNL     1       7.034   4.639  17.042  0.00  0.00    +0.000 S 
BRANCH  13  14
ATOM     14  C   UNL     1       5.359   5.004  16.411  0.00  0.00    +0.000 C 
BRANCH  14  15
ATOM     15  C   UNL     1       4.317   4.584  17.403  0.00  0.00    +0.000 A 
ATOM     16  C   UNL     1       3.266   3.709  17.212  0.00  0.00    +0.000 A 
ATOM     17  C   UNL     1       2.451   3.537  18.380  0.00  0.00    +0.000 A 
ATOM     18  C   UNL     1       1.291   2.753  18.585  0.00  0.00    +0.000 A 
ATOM     19  C   UNL     1       0.644   2.753  19.824  0.00  0.00    +0.000 A 
ATOM     20  C   UNL     1       1.139   3.520  20.871  0.00  0.00    +0.000 A 
ATOM     21  C   UNL     1       2.287   4.297  20.701  0.00  0.00    +0.000 A 
ATOM     22  C   UNL     1       2.932   4.297  19.448  0.00  0.00    +0.000 A 
ATOM     23  S   UNL     1       4.348   5.173  19.007  0.00  0.00    +0.000 S 
ENDBRANCH  14  15
ENDBRANCH  13  14
ENDBRANCH   4  13
TORSDOF 4
ENDMDL
MODEL 5
REMARK VINA RESULT:      -7.6      0.772      1.317
REMARK  Name = 
REMARK  4 active torsions:
REMARK  status: ('A' for Active; 'I' for Inactive)
REMARK    1  A    between atoms: C_4  and  C_5
REMARK    2  A    between atoms: C_8  and  S_9
REMARK    3  A    between atoms: S_9  and  C_10
REMARK    4  A    between atoms: C_10  and  C_11
REMARK                            x       y       z     vdW  Elec       q    Type
REMARK                         _______ _______ _______ _____ _____    ______ ____
ROOT
ATOM      1  C   UNL     1       8.392   8.979  18.407  0.00  0.00    +0.000 A 
ATOM      2  C   UNL     1       8.607   7.785  19.088  0.00  0.00    +0.000 A 
ATOM      3  C   UNL     1       8.050   6.600  18.597  0.00  0.00    +0.000 A 
ATOM      4  C   UNL     1       7.302   6.643  17.437  0.00  0.00    +0.000 A 
ATOM      5  N   UNL     1       7.082   7.811  16.804  0.00  0.00    +0.000 NA
ATOM      6  N   UNL     1       7.627   8.979  17.288  0.00  0.00    +0.000 NA
ENDROOT
BRANCH   1  10
ATOM      7  C   UNL     1       9.981  12.756  19.498  0.00  0.00    +0.000 A 
ATOM      8  C   UNL     1      10.044  11.723  20.421  0.00  0.00    +0.000 A 
ATOM      9  C   UNL     1       9.545  10.468  20.076  0.00  0.00    +0.000 A 
ATOM     10  C   UNL     1       8.987  10.270  18.810  0.00  0.00    +0.000 A 
ATOM     11  N   UNL     1       8.935  11.280  17.897  0.00  0.00    +0.000 NA
ATOM     12  C   UNL     1       9.427  12.486  18.258  0.00  0.00    +0.000 A 
ENDBRANCH   1  10
BRANCH   4  13
ATOM     13  S   UNL     1       6.600   5.158  16.758  0.00  0.00    +0.000 S 
BRANCH  13  14
ATOM     14  C   UNL     1       4.863   5.698  16.592  0.00  0.00    +0.000 C 
BRANCH  14  15
ATOM     15  C   UNL     1       3.998   5.019  17.611  0.00  0.00    +0.000 A 
ATOM     16  C   UNL     1       3.694   5.448  18.888  0.00  0.00    +0.000 A 
ATOM     17  C   UNL     1       2.837   4.545  19.601  0.00  0.00    +0.000 A 
ATOM     18  C   UNL     1       2.319   4.614  20.916  0.00  0.00    +0.000 A 
ATOM     19  C   UNL     1       1.503   3.592  21.411  0.00  0.00    +0.000 A 
ATOM     20  C   UNL     1       1.186   2.502  20.613  0.00  0.00    +0.000 A 
ATOM     21  C   UNL     1       1.675   2.411  19.307  0.00  0.00    +0.000 A 
ATOM     22  C   UNL     1       2.502   3.440  18.815  0.00  0.00    +0.000 A 
ATOM     23  S   UNL     1       3.219   3.541  17.252  0.00  0.00    +0.000 S 
ENDBRANCH  14  15
ENDBRANCH  13  14
ENDBRANCH   4  13
TORSDOF 4
ENDMDL
MODEL 6
REMARK VINA RESULT:      -7.3      1.107      1.329
REMARK  Name = 
REMARK  4 active torsions:
REMARK  status: ('A' for Active; 'I' for Inactive)
REMARK    1  A    between atoms: C_4  and  C_5
REMARK    2  A    between atoms: C_8  and  S_9
REMARK    3  A    between atoms: S_9  and  C_10
REMARK    4  A    between atoms: C_10  and  C_11
REMARK                            x       y       z     vdW  Elec       q    Type
REMARK                         _______ _______ _______ _____ _____    ______ ____
ROOT
ATOM      1  C   UNL     1       8.523   9.106  18.533  0.00  0.00    +0.000 A 
ATOM      2  C   UNL     1       8.668   7.820  19.044  0.00  0.00    +0.000 A 
ATOM      3  C   UNL     1       7.999   6.756  18.434  0.00  0.00    +0.000 A 
ATOM      4  C   UNL     1       7.212   7.006  17.326  0.00  0.00    +0.000 A 
ATOM      5  N   UNL     1       7.063   8.260  16.859  0.00  0.00    +0.000 NA
ATOM      6  N   UNL     1       7.719   9.311  17.462  0.00  0.00    +0.000 NA
ENDROOT
BRANCH   1  10
ATOM      7  C   UNL     1      10.612  12.403  20.190  0.00  0.00    +0.000 A 
ATOM      8  C   UNL     1      10.703  12.184  18.824  0.00  0.00    +0.000 A 
ATOM      9  C   UNL     1      10.010  11.118  18.256  0.00  0.00    +0.000 A 
ATOM     10  C   UNL     1       9.236  10.285  19.068  0.00  0.00    +0.000 A 
ATOM     11  N   UNL     1       9.135  10.505  20.409  0.00  0.00    +0.000 NA
ATOM     12  C   UNL     1       9.819  11.547  20.933  0.00  0.00    +0.000 A 
ENDBRANCH   1  10
BRANCH   4  13
ATOM     13  S   UNL     1       6.367   5.681  16.498  0.00  0.00    +0.000 S 
BRANCH  13  14
ATOM     14  C   UNL     1       6.413   4.423  17.822  0.00  0.00    +0.000 C 
BRANCH  14  15
ATOM     15  C   UNL     1       5.035   4.164  18.353  0.00  0.00    +0.000 A 
ATOM     16  C   UNL     1       4.189   3.118  18.043  0.00  0.00    +0.000 A 
ATOM     17  C   UNL     1       2.933   3.180  18.734  0.00  0.00    +0.000 A 
ATOM     18  C   UNL     1       1.809   2.322  18.679  0.00  0.00    +0.000 A 
ATOM     19  C   UNL     1       0.670   2.595  19.442  0.00  0.00    +0.000 A 
ATOM     20  C   UNL     1       0.634   3.709  20.270  0.00  0.00    +0.000 A 
ATOM     21  C   UNL     1       1.731   4.569  20.352  0.00  0.00    +0.000 A 
ATOM     22  C   UNL     1       2.875   4.293  19.576  0.00  0.00    +0.000 A 
ATOM     23  S   UNL     1       4.334   5.206  19.511  0.00  0.00    +0.000 S 
ENDBRANCH  14  15
ENDBRANCH  13  14
ENDBRANCH   4  13
TORSDOF 4
ENDMDL
MODEL 7
REMARK VINA RESULT:      -7.3      4.757      7.122
REMARK  Name = 
REMARK  4 active torsions:
REMARK  status: ('A' for Active; 'I' for Inactive)
REMARK    1  A    between atoms: C_4  and  C_5
REMARK    2  A    between atoms: C_8  and  S_9
REMARK    3  A    between atoms: S_9  and  C_10
REMARK    4  A    between atoms: C_10  and  C_11
REMARK                            x       y       z     vdW  Elec       q    Type
REMARK                         _______ _______ _______ _____ _____    ______ ____
ROOT
ATOM      1  C   UNL     1       1.809   7.283  20.191  0.00  0.00    +0.000 A 
ATOM      2  C   UNL     1       1.680   6.073  20.864  0.00  0.00    +0.000 A 
ATOM      3  C   UNL     1       2.370   4.949  20.401  0.00  0.00    +0.000 A 
ATOM      4  C   UNL     1       3.175   5.070  19.284  0.00  0.00    +0.000 A 
ATOM      5  N   UNL     1       3.269   6.243  18.630  0.00  0.00    +0.000 NA
ATOM      6  N   UNL     1       2.586   7.351  19.083  0.00  0.00    +0.000 NA
ENDROOT
BRANCH   1  10
ATOM      7  C   UNL     1      -0.098  10.894  21.334  0.00  0.00    +0.000 A 
ATOM      8  C   UNL     1       0.031   9.889  22.280  0.00  0.00    +0.000 A 
ATOM      9  C   UNL     1       0.671   8.701  21.931  0.00  0.00    +0.000 A 
ATOM     10  C   UNL     1       1.171   8.540  20.636  0.00  0.00    +0.000 A 
ATOM     11  N   UNL     1       1.057   9.531  19.708  0.00  0.00    +0.000 NA
ATOM     12  C   UNL     1       0.431  10.672  20.075  0.00  0.00    +0.000 A 
ENDBRANCH   1  10
BRANCH   4  13
ATOM     13  S   UNL     1       4.096   3.677  18.677  0.00  0.00    +0.000 S 
BRANCH  13  14
ATOM     14  C   UNL     1       5.695   4.498  18.348  0.00  0.00    +0.000 C 
BRANCH  14  15
ATOM     15  C   UNL     1       6.008   4.477  16.881  0.00  0.00    +0.000 A 
ATOM     16  C   UNL     1       5.362   3.772  15.885  0.00  0.00    +0.000 A 
ATOM     17  C   UNL     1       5.929   3.979  14.584  0.00  0.00    +0.000 A 
ATOM     18  C   UNL     1       5.571   3.435  13.328  0.00  0.00    +0.000 A 
ATOM     19  C   UNL     1       6.290   3.775  12.177  0.00  0.00    +0.000 A 
ATOM     20  C   UNL     1       7.358   4.658  12.255  0.00  0.00    +0.000 A 
ATOM     21  C   UNL     1       7.728   5.218  13.481  0.00  0.00    +0.000 A 
ATOM     22  C   UNL     1       7.005   4.868  14.638  0.00  0.00    +0.000 A 
ATOM     23  S   UNL     1       7.279   5.425  16.245  0.00  0.00    +0.000 S 
ENDBRANCH  14  15
ENDBRANCH  13  14
ENDBRANCH   4  13
TORSDOF 4
ENDMDL
MODEL 8
REMARK VINA RESULT:      -7.2      1.475      2.174
REMARK  Name = 
REMARK  4 active torsions:
REMARK  status: ('A' for Active; 'I' for Inactive)
REMARK    1  A    between atoms: C_4  and  C_5
REMARK    2  A    between atoms: C_8  and  S_9
REMARK    3  A    between atoms: S_9  and  C_10
REMARK    4  A    between atoms: C_10  and  C_11
REMARK                            x       y       z     vdW  Elec       q    Type
REMARK                         _______ _______ _______ _____ _____    ______ ____
ROOT
ATOM      1  C   UNL     1       8.220   8.455  18.211  0.00  0.00    +0.000 A 
ATOM      2  C   UNL     1       8.367   7.373  19.072  0.00  0.00    +0.000 A 
ATOM      3  C   UNL     1       7.910   6.112  18.680  0.00  0.00    +0.000 A 
ATOM      4  C   UNL     1       7.327   5.968  17.435  0.00  0.00    +0.000 A 
ATOM      5  N   UNL     1       7.169   7.031  16.624  0.00  0.00    +0.000 NA
ATOM      6  N   UNL     1       7.617   8.275  17.011  0.00  0.00    +0.000 NA
ENDROOT
BRANCH   1  10
ATOM      7  C   UNL     1       9.803  12.285  19.109  0.00  0.00    +0.000 A 
ATOM      8  C   UNL     1       9.066  12.133  17.945  0.00  0.00    +0.000 A 
ATOM      9  C   UNL     1       8.521  10.888  17.640  0.00  0.00    +0.000 A 
ATOM     10  C   UNL     1       8.725   9.812  18.508  0.00  0.00    +0.000 A 
ATOM     11  N   UNL     1       9.438   9.962  19.659  0.00  0.00    +0.000 NA
ATOM     12  C   UNL     1       9.956  11.181  19.930  0.00  0.00    +0.000 A 
ENDBRANCH   1  10
BRANCH   4  13
ATOM     13  S   UNL     1       6.759   4.379  16.880  0.00  0.00    +0.000 S 
BRANCH  13  14
ATOM     14  C   UNL     1       5.128   4.860  16.214  0.00  0.00    +0.000 C 
BRANCH  14  15
ATOM     15  C   UNL     1       4.228   5.341  17.313  0.00  0.00    +0.000 A 
ATOM     16  C   UNL     1       3.731   6.614  17.508  0.00  0.00    +0.000 A 
ATOM     17  C   UNL     1       2.899   6.726  18.672  0.00  0.00    +0.000 A 
ATOM     18  C   UNL     1       2.226   7.845  19.216  0.00  0.00    +0.000 A 
ATOM     19  C   UNL     1       1.472   7.719  20.387  0.00  0.00    +0.000 A 
ATOM     20  C   UNL     1       1.371   6.490  21.025  0.00  0.00    +0.000 A 
ATOM     21  C   UNL     1       2.018   5.365  20.505  0.00  0.00    +0.000 A 
ATOM     22  C   UNL     1       2.780   5.499  19.327  0.00  0.00    +0.000 A 
ATOM     23  S   UNL     1       3.661   4.263  18.512  0.00  0.00    +0.000 S 
ENDBRANCH  14  15
ENDBRANCH  13  14
ENDBRANCH   4  13
TORSDOF 4
ENDMDL
MODEL 9
REMARK VINA RESULT:      -7.2      4.918      7.140
REMARK  Name = 
REMARK  4 active torsions:
REMARK  status: ('A' for Active; 'I' for Inactive)
REMARK    1  A    between atoms: C_4  and  C_5
REMARK    2  A    between atoms: C_8  and  S_9
REMARK    3  A    between atoms: S_9  and  C_10
REMARK    4  A    between atoms: C_10  and  C_11
REMARK                            x       y       z     vdW  Elec       q    Type
REMARK                         _______ _______ _______ _____ _____    ______ ____
ROOT
ATOM      1  C   UNL     1       5.350   5.051  15.602  0.00  0.00    +0.000 A 
ATOM      2  C   UNL     1       4.774   4.098  16.436  0.00  0.00    +0.000 A 
ATOM      3  C   UNL     1       4.052   4.509  17.560  0.00  0.00    +0.000 A 
ATOM      4  C   UNL     1       3.921   5.861  17.813  0.00  0.00    +0.000 A 
ATOM      5  N   UNL     1       4.505   6.770  17.011  0.00  0.00    +0.000 NA
ATOM      6  N   UNL     1       5.220   6.366  15.904  0.00  0.00    +0.000 NA
ENDROOT
BRANCH   1  10
ATOM      7  C   UNL     1       7.304   4.099  11.961  0.00  0.00    +0.000 A 
ATOM      8  C   UNL     1       7.886   5.042  12.795  0.00  0.00    +0.000 A 
ATOM      9  C   UNL     1       7.271   5.356  14.005  0.00  0.00    +0.000 A 
ATOM     10  C   UNL     1       6.078   4.720  14.360  0.00  0.00    +0.000 A 
ATOM     11  N   UNL     1       5.510   3.784  13.548  0.00  0.00    +0.000 NA
ATOM     12  C   UNL     1       6.129   3.499  12.380  0.00  0.00    +0.000 A 
ENDBRANCH   1  10
BRANCH   4  13
ATOM     13  S   UNL     1       2.986   6.433  19.212  0.00  0.00    +0.000 S 
BRANCH  13  14
ATOM     14  C   UNL     1       2.284   7.961  18.498  0.00  0.00    +0.000 C 
BRANCH  14  15
ATOM     15  C   UNL     1       1.474   8.699  19.521  0.00  0.00    +0.000 A 
ATOM     16  C   UNL     1       0.855   9.926  19.390  0.00  0.00    +0.000 A 
ATOM     17  C   UNL     1       0.163  10.343  20.576  0.00  0.00    +0.000 A 
ATOM     18  C   UNL     1      -0.568  11.523  20.848  0.00  0.00    +0.000 A 
ATOM     19  C   UNL     1      -1.152  11.722  22.102  0.00  0.00    +0.000 A 
ATOM     20  C   UNL     1      -1.027  10.759  23.093  0.00  0.00    +0.000 A 
ATOM     21  C   UNL     1      -0.318   9.579  22.851  0.00  0.00    +0.000 A 
ATOM     22  C   UNL     1       0.274   9.385  21.587  0.00  0.00    +0.000 A 
ATOM     23  S   UNL     1       1.190   8.023  21.065  0.00  0.00    +0.000 S 
ENDBRANCH  14  15
ENDBRANCH  13  14
ENDBRANCH   4  13
TORSDOF 4
ENDMDL
