MODEL 1
REMARK VINA RESULT:      -6.6      0.000      0.000
REMARK  Name = 
REMARK  18 active torsions:
REMARK  status: ('A' for Active; 'I' for Inactive)
REMARK    1  A    between atoms: CD1_1  and  CG1_2
REMARK    2  A    between atoms: CG1_2  and  CB_3
REMARK    3  A    between atoms: CB_3  and  CG2_4
REMARK    4  A    between atoms: CB_3  and  CA_5
REMARK    5  A    between atoms: CA_5  and  N_6
REMARK    6  A    between atoms: CA_5  and  C_24
REMARK    7  A    between atoms: C_7  and  C_9
REMARK    8  A    between atoms: C_10  and  C_11
REMARK    9  A    between atoms: C_11  and  C_12
REMARK   10  A    between atoms: C_11  and  C_13
REMARK   11  A    between atoms: C_11  and  C_14
REMARK   12  A    between atoms: C_14  and  C_15
REMARK   13  A    between atoms: C_16  and  C_17
REMARK   14  A    between atoms: C_16  and  C_18
REMARK   15  A    between atoms: C_18  and  C_19
REMARK   16  A    between atoms: C_19  and  C_20
REMARK   17  A    between atoms: C_21  and  C_22
REMARK   18  A    between atoms: C_24  and  OXT_26
REMARK                            x       y       z     vdW  Elec       q    Type
REMARK                         _______ _______ _______ _____ _____    ______ ____
ROOT
ATOM      1  C   UNK A   0       8.226   9.261  17.896  0.00  0.00    +0.000 C 
ATOM      2  C   UNK A   0       9.073   9.768  18.804  0.00  0.00    +0.000 C 
ENDROOT
BRANCH   1   4
ATOM      3  N   ILE A   1       6.877   7.453  17.114  0.00  0.00    +0.000 N 
ATOM      4  C   UNK A   0       7.855   7.837  17.989  0.00  0.00    +0.000 C 
ATOM      5  O   UNK A   0       8.366   7.067  18.803  0.00  0.00    +0.000 OA
ATOM      6  H   ILE A   1       6.504   8.094  16.417  0.00  0.00    +0.000 HD
BRANCH   3   7
ATOM      7  CA  ILE A   1       6.384   6.084  17.123  0.00  0.00    +0.000 C 
BRANCH   7   8
ATOM      8  CB  ILE A   1       4.896   5.970  16.698  0.00  0.00    +0.000 C 
ATOM      9  CG2 ILE A   1       4.006   6.598  17.781  0.00  0.00    +0.000 C 
BRANCH   8  11
ATOM     10  CD1 ILE A   1       3.541   3.849  17.430  0.00  0.00    +0.000 C 
ATOM     11  CG1 ILE A   1       4.314   4.583  16.345  0.00  0.00    +0.000 C 
ENDBRANCH   8  11
ENDBRANCH   7   8
BRANCH   7  12
ATOM     12  C   ILE A   1       7.370   5.186  16.371  0.00  0.00    +0.000 C 
ATOM     13  O   ILE A   1       7.623   5.301  15.173  0.00  0.00    +0.000 OA
BRANCH  12  14
ATOM     14  OXT ILE A   1       7.996   4.266  17.150  0.00  0.00    +0.000 OA
ATOM     15  HXT ILE A   1       8.799   3.875  16.745  0.00  0.00    +0.000 HD
ENDBRANCH  12  14
ENDBRANCH   7  12
ENDBRANCH   3   7
ENDBRANCH   1   4
BRANCH   2  16
ATOM     16  C   UNK A   0       9.489  11.229  18.920  0.00  0.00    +0.000 C 
ATOM     17  C   UNK A   0       9.154  11.786  20.322  0.00  0.00    +0.000 C 
ATOM     18  C   UNK A   0      11.007  11.320  18.682  0.00  0.00    +0.000 C 
BRANCH  16  19
ATOM     19  C   UNK A   0       8.802  12.084  17.809  0.00  0.00    +0.000 C 
BRANCH  19  20
ATOM     20  C   UNK A   0       8.477  13.490  18.232  0.00  0.00    +0.000 C 
ATOM     21  C   UNK A   0       9.205  14.620  18.097  0.00  0.00    +0.000 C 
ATOM     22  C   UNK A   0      10.586  14.655  17.492  0.00  0.00    +0.000 C 
BRANCH  21  23
ATOM     23  C   UNK A   0       8.674  15.988  18.538  0.00  0.00    +0.000 C 
BRANCH  23  24
ATOM     24  C   UNK A   0       9.348  16.541  19.806  0.00  0.00    +0.000 C 
BRANCH  24  25
ATOM     25  C   UNK A   0       9.476  15.620  20.977  0.00  0.00    +0.000 C 
ATOM     26  C   UNK A   0       8.468  15.430  21.850  0.00  0.00    +0.000 C 
ATOM     27  C   UNK A   0       7.122  16.099  21.784  0.00  0.00    +0.000 C 
ATOM     28 BR   UNK A   0       8.657  14.254  23.298  0.00  0.00    +0.000 Br
ENDBRANCH  24  25
ENDBRANCH  23  24
ENDBRANCH  21  23
ENDBRANCH  19  20
ENDBRANCH  16  19
ENDBRANCH   2  16
TORSDOF 12
ENDMDL
MODEL 2
REMARK VINA RESULT:      -6.5      6.981      8.567
REMARK  Name = 
REMARK  18 active torsions:
REMARK  status: ('A' for Active; 'I' for Inactive)
REMARK    1  A    between atoms: CD1_1  and  CG1_2
REMARK    2  A    between atoms: CG1_2  and  CB_3
REMARK    3  A    between atoms: CB_3  and  CG2_4
REMARK    4  A    between atoms: CB_3  and  CA_5
REMARK    5  A    between atoms: CA_5  and  N_6
REMARK    6  A    between atoms: CA_5  and  C_24
REMARK    7  A    between atoms: C_7  and  C_9
REMARK    8  A    between atoms: C_10  and  C_11
REMARK    9  A    between atoms: C_11  and  C_12
REMARK   10  A    between atoms: C_11  and  C_13
REMARK   11  A    between atoms: C_11  and  C_14
REMARK   12  A    between atoms: C_14  and  C_15
REMARK   13  A    between atoms: C_16  and  C_17
REMARK   14  A    between atoms: C_16  and  C_18
REMARK   15  A    between atoms: C_18  and  C_19
REMARK   16  A    between atoms: C_19  and  C_20
REMARK   17  A    between atoms: C_21  and  C_22
REMARK   18  A    between atoms: C_24  and  OXT_26
REMARK                            x       y       z     vdW  Elec       q    Type
REMARK                         _______ _______ _______ _____ _____    ______ ____
ROOT
ATOM      1  C   UNK A   0       2.795   3.128  18.423  0.00  0.00    +0.000 C 
ATOM      2  C   UNK A   0       2.891   3.795  19.583  0.00  0.00    +0.000 C 
ENDROOT
BRANCH   1   4
ATOM      3  N   ILE A   1       4.782   4.080  17.504  0.00  0.00    +0.000 N 
ATOM      4  C   UNK A   0       4.007   2.958  17.599  0.00  0.00    +0.000 C 
ATOM      5  O   UNK A   0       4.281   1.903  17.028  0.00  0.00    +0.000 OA
ATOM      6  H   ILE A   1       4.562   4.926  18.025  0.00  0.00    +0.000 HD
BRANCH   3   7
ATOM      7  CA  ILE A   1       5.988   4.068  16.689  0.00  0.00    +0.000 C 
BRANCH   7   8
ATOM      8  CB  ILE A   1       5.880   4.969  15.430  0.00  0.00    +0.000 C 
ATOM      9  CG2 ILE A   1       5.134   6.263  15.790  0.00  0.00    +0.000 C 
BRANCH   8  11
ATOM     10  CD1 ILE A   1       6.179   3.735  13.137  0.00  0.00    +0.000 C 
ATOM     11  CG1 ILE A   1       5.248   4.395  14.142  0.00  0.00    +0.000 C 
ENDBRANCH   8  11
ENDBRANCH   7   8
BRANCH   7  12
ATOM     12  C   ILE A   1       7.207   4.306  17.585  0.00  0.00    +0.000 C 
ATOM     13  O   ILE A   1       8.369   4.269  17.183  0.00  0.00    +0.000 OA
BRANCH  12  14
ATOM     14  OXT ILE A   1       6.904   4.615  18.872  0.00  0.00    +0.000 OA
ATOM     15  HXT ILE A   1       5.948   4.571  19.082  0.00  0.00    +0.000 HD
ENDBRANCH  12  14
ENDBRANCH   7  12
ENDBRANCH   3   7
ENDBRANCH   1   4
BRANCH   2  16
ATOM     16  C   UNK A   0       1.774   3.983  20.602  0.00  0.00    +0.000 C 
ATOM     17  C   UNK A   0       0.430   3.461  20.045  0.00  0.00    +0.000 C 
ATOM     18  C   UNK A   0       2.142   3.197  21.873  0.00  0.00    +0.000 C 
BRANCH  16  19
ATOM     19  C   UNK A   0       1.655   5.484  21.013  0.00  0.00    +0.000 C 
BRANCH  19  20
ATOM     20  C   UNK A   0       1.913   6.448  19.888  0.00  0.00    +0.000 C 
ATOM     21  C   UNK A   0       1.788   7.793  19.859  0.00  0.00    +0.000 C 
ATOM     22  C   UNK A   0       1.290   8.609  21.026  0.00  0.00    +0.000 C 
BRANCH  21  23
ATOM     23  C   UNK A   0       2.163   8.619  18.624  0.00  0.00    +0.000 C 
BRANCH  23  24
ATOM     24  C   UNK A   0       1.312   9.888  18.439  0.00  0.00    +0.000 C 
BRANCH  24  25
ATOM     25  C   UNK A   0      -0.046   9.726  17.836  0.00  0.00    +0.000 C 
ATOM     26  C   UNK A   0      -1.138  10.307  18.369  0.00  0.00    +0.000 C 
ATOM     27  C   UNK A   0      -1.153  11.163  19.606  0.00  0.00    +0.000 C 
ATOM     28 BR   UNK A   0      -2.824  10.097  17.576  0.00  0.00    +0.000 Br
ENDBRANCH  24  25
ENDBRANCH  23  24
ENDBRANCH  21  23
ENDBRANCH  19  20
ENDBRANCH  16  19
ENDBRANCH   2  16
TORSDOF 12
ENDMDL
MODEL 3
REMARK VINA RESULT:      -6.5      6.766     10.274
REMARK  Name = 
REMARK  18 active torsions:
REMARK  status: ('A' for Active; 'I' for Inactive)
REMARK    1  A    between atoms: CD1_1  and  CG1_2
REMARK    2  A    between atoms: CG1_2  and  CB_3
REMARK    3  A    between atoms: CB_3  and  CG2_4
REMARK    4  A    between atoms: CB_3  and  CA_5
REMARK    5  A    between atoms: CA_5  and  N_6
REMARK    6  A    between atoms: CA_5  and  C_24
REMARK    7  A    between atoms: C_7  and  C_9
REMARK    8  A    between atoms: C_10  and  C_11
REMARK    9  A    between atoms: C_11  and  C_12
REMARK   10  A    between atoms: C_11  and  C_13
REMARK   11  A    between atoms: C_11  and  C_14
REMARK   12  A    between atoms: C_14  and  C_15
REMARK   13  A    between atoms: C_16  and  C_17
REMARK   14  A    between atoms: C_16  and  C_18
REMARK   15  A    between atoms: C_18  and  C_19
REMARK   16  A    between atoms: C_19  and  C_20
REMARK   17  A    between atoms: C_21  and  C_22
REMARK   18  A    between atoms: C_24  and  OXT_26
REMARK                            x       y       z     vdW  Elec       q    Type
REMARK                         _______ _______ _______ _____ _____    ______ ____
ROOT
ATOM      1  C   UNK A   0       2.519   7.681  18.945  0.00  0.00    +0.000 C 
ATOM      2  C   UNK A   0       2.402   6.531  18.265  0.00  0.00    +0.000 C 
ENDROOT
BRANCH   1   4
ATOM      3  N   ILE A   1       1.546   9.837  19.266  0.00  0.00    +0.000 N 
ATOM      4  C   UNK A   0       1.973   8.916  18.351  0.00  0.00    +0.000 C 
ATOM      5  O   UNK A   0       1.888   9.090  17.135  0.00  0.00    +0.000 OA
ATOM      6  H   ILE A   1       1.671   9.694  20.266  0.00  0.00    +0.000 HD
BRANCH   3   7
ATOM      7  CA  ILE A   1       0.946  11.087  18.820  0.00  0.00    +0.000 C 
BRANCH   7   8
ATOM      8  CB  ILE A   1      -0.251  11.535  19.701  0.00  0.00    +0.000 C 
ATOM      9  CG2 ILE A   1      -0.876  10.306  20.378  0.00  0.00    +0.000 C 
BRANCH   8  11
ATOM     10  CD1 ILE A   1      -2.747  12.333  19.749  0.00  0.00    +0.000 C 
ATOM     11  CG1 ILE A   1      -1.390  12.361  19.063  0.00  0.00    +0.000 C 
ENDBRANCH   8  11
ENDBRANCH   7   8
BRANCH   7  12
ATOM     12  C   ILE A   1       2.048  12.127  18.601  0.00  0.00    +0.000 C 
ATOM     13  O   ILE A   1       2.425  12.916  19.466  0.00  0.00    +0.000 OA
BRANCH  12  14
ATOM     14  OXT ILE A   1       2.625  12.080  17.373  0.00  0.00    +0.000 OA
ATOM     15  HXT ILE A   1       2.552  11.211  16.926  0.00  0.00    +0.000 HD
ENDBRANCH  12  14
ENDBRANCH   7  12
ENDBRANCH   3   7
ENDBRANCH   1   4
BRANCH   2  16
ATOM     16  C   UNK A   0       2.818   5.152  18.762  0.00  0.00    +0.000 C 
ATOM     17  C   UNK A   0       1.863   4.657  19.871  0.00  0.00    +0.000 C 
ATOM     18  C   UNK A   0       2.773   4.175  17.573  0.00  0.00    +0.000 C 
BRANCH  16  19
ATOM     19  C   UNK A   0       4.293   5.178  19.274  0.00  0.00    +0.000 C 
BRANCH  19  20
ATOM     20  C   UNK A   0       5.285   4.592  18.308  0.00  0.00    +0.000 C 
ATOM     21  C   UNK A   0       6.077   5.211  17.405  0.00  0.00    +0.000 C 
ATOM     22  C   UNK A   0       6.065   6.699  17.167  0.00  0.00    +0.000 C 
BRANCH  21  23
ATOM     23  C   UNK A   0       7.083   4.441  16.542  0.00  0.00    +0.000 C 
BRANCH  23  24
ATOM     24  C   UNK A   0       7.023   4.795  15.046  0.00  0.00    +0.000 C 
BRANCH  24  25
ATOM     25  C   UNK A   0       6.088   4.005  14.187  0.00  0.00    +0.000 C 
ATOM     26  C   UNK A   0       6.277   3.872  12.860  0.00  0.00    +0.000 C 
ATOM     27  C   UNK A   0       7.406   4.484  12.076  0.00  0.00    +0.000 C 
ATOM     28 BR   UNK A   0       5.094   2.859  11.816  0.00  0.00    +0.000 Br
ENDBRANCH  24  25
ENDBRANCH  23  24
ENDBRANCH  21  23
ENDBRANCH  19  20
ENDBRANCH  16  19
ENDBRANCH   2  16
TORSDOF 12
ENDMDL
MODEL 4
REMARK VINA RESULT:      -6.5      4.904      8.271
REMARK  Name = 
REMARK  18 active torsions:
REMARK  status: ('A' for Active; 'I' for Inactive)
REMARK    1  A    between atoms: CD1_1  and  CG1_2
REMARK    2  A    between atoms: CG1_2  and  CB_3
REMARK    3  A    between atoms: CB_3  and  CG2_4
REMARK    4  A    between atoms: CB_3  and  CA_5
REMARK    5  A    between atoms: CA_5  and  N_6
REMARK    6  A    between atoms: CA_5  and  C_24
REMARK    7  A    between atoms: C_7  and  C_9
REMARK    8  A    between atoms: C_10  and  C_11
REMARK    9  A    between atoms: C_11  and  C_12
REMARK   10  A    between atoms: C_11  and  C_13
REMARK   11  A    between atoms: C_11  and  C_14
REMARK   12  A    between atoms: C_14  and  C_15
REMARK   13  A    between atoms: C_16  and  C_17
REMARK   14  A    between atoms: C_16  and  C_18
REMARK   15  A    between atoms: C_18  and  C_19
REMARK   16  A    between atoms: C_19  and  C_20
REMARK   17  A    between atoms: C_21  and  C_22
REMARK   18  A    between atoms: C_24  and  OXT_26
REMARK                            x       y       z     vdW  Elec       q    Type
REMARK                         _______ _______ _______ _____ _____    ______ ____
ROOT
ATOM      1  C   UNK A   0       2.458   8.216  17.680  0.00  0.00    +0.000 C 
ATOM      2  C   UNK A   0       2.380   7.222  18.577  0.00  0.00    +0.000 C 
ENDROOT
BRANCH   1   4
ATOM      3  N   ILE A   1       1.007   9.520  19.057  0.00  0.00    +0.000 N 
ATOM      4  C   UNK A   0       1.923   9.542  18.042  0.00  0.00    +0.000 C 
ATOM      5  O   UNK A   0       2.257  10.576  17.463  0.00  0.00    +0.000 OA
ATOM      6  H   ILE A   1       0.783   8.661  19.554  0.00  0.00    +0.000 HD
BRANCH   3   7
ATOM      7  CA  ILE A   1       0.367  10.753  19.490  0.00  0.00    +0.000 C 
BRANCH   7   8
ATOM      8  CB  ILE A   1      -0.825  11.169  18.588  0.00  0.00    +0.000 C 
ATOM      9  CG2 ILE A   1      -1.602  12.311  19.261  0.00  0.00    +0.000 C 
BRANCH   8  11
ATOM     10  CD1 ILE A   1      -2.244  10.076  16.674  0.00  0.00    +0.000 C 
ATOM     11  CG1 ILE A   1      -1.844  10.096  18.141  0.00  0.00    +0.000 C 
ENDBRANCH   8  11
ENDBRANCH   7   8
BRANCH   7  12
ATOM     12  C   ILE A   1       0.081  10.674  20.992  0.00  0.00    +0.000 C 
ATOM     13  O   ILE A   1      -0.530   9.748  21.524  0.00  0.00    +0.000 OA
BRANCH  12  14
ATOM     14  OXT ILE A   1       0.605  11.696  21.717  0.00  0.00    +0.000 OA
ATOM     15  HXT ILE A   1       1.098  11.412  22.515  0.00  0.00    +0.000 HD
ENDBRANCH  12  14
ENDBRANCH   7  12
ENDBRANCH   3   7
ENDBRANCH   1   4
BRANCH   2  16
ATOM     16  C   UNK A   0       2.962   5.823  18.414  0.00  0.00    +0.000 C 
ATOM     17  C   UNK A   0       3.443   5.266  19.773  0.00  0.00    +0.000 C 
ATOM     18  C   UNK A   0       1.866   4.906  17.844  0.00  0.00    +0.000 C 
BRANCH  16  19
ATOM     19  C   UNK A   0       4.131   5.835  17.378  0.00  0.00    +0.000 C 
BRANCH  19  20
ATOM     20  C   UNK A   0       5.433   6.342  17.933  0.00  0.00    +0.000 C 
ATOM     21  C   UNK A   0       6.670   6.311  17.391  0.00  0.00    +0.000 C 
ATOM     22  C   UNK A   0       6.982   5.678  16.059  0.00  0.00    +0.000 C 
BRANCH  21  23
ATOM     23  C   UNK A   0       7.880   6.943  18.088  0.00  0.00    +0.000 C 
BRANCH  23  24
ATOM     24  C   UNK A   0       8.004   8.462  17.872  0.00  0.00    +0.000 C 
BRANCH  24  25
ATOM     25  C   UNK A   0       8.902   9.219  18.796  0.00  0.00    +0.000 C 
ATOM     26  C   UNK A   0       9.067  10.552  18.699  0.00  0.00    +0.000 C 
ATOM     27  C   UNK A   0       8.405  11.439  17.680  0.00  0.00    +0.000 C 
ATOM     28 BR   UNK A   0      10.189  11.472  19.887  0.00  0.00    +0.000 Br
ENDBRANCH  24  25
ENDBRANCH  23  24
ENDBRANCH  21  23
ENDBRANCH  19  20
ENDBRANCH  16  19
ENDBRANCH   2  16
TORSDOF 12
ENDMDL
MODEL 5
REMARK VINA RESULT:      -6.5      6.520      8.409
REMARK  Name = 
REMARK  18 active torsions:
REMARK  status: ('A' for Active; 'I' for Inactive)
REMARK    1  A    between atoms: CD1_1  and  CG1_2
REMARK    2  A    between atoms: CG1_2  and  CB_3
REMARK    3  A    between atoms: CB_3  and  CG2_4
REMARK    4  A    between atoms: CB_3  and  CA_5
REMARK    5  A    between atoms: CA_5  and  N_6
REMARK    6  A    between atoms: CA_5  and  C_24
REMARK    7  A    between atoms: C_7  and  C_9
REMARK    8  A    between atoms: C_10  and  C_11
REMARK    9  A    between atoms: C_11  and  C_12
REMARK   10  A    between atoms: C_11  and  C_13
REMARK   11  A    between atoms: C_11  and  C_14
REMARK   12  A    between atoms: C_14  and  C_15
REMARK   13  A    between atoms: C_16  and  C_17
REMARK   14  A    between atoms: C_16  and  C_18
REMARK   15  A    between atoms: C_18  and  C_19
REMARK   16  A    between atoms: C_19  and  C_20
REMARK   17  A    between atoms: C_21  and  C_22
REMARK   18  A    between atoms: C_24  and  OXT_26
REMARK                            x       y       z     vdW  Elec       q    Type
REMARK                         _______ _______ _______ _____ _____    ______ ____
ROOT
ATOM      1  C   UNK A   0       4.804   3.902  19.451  0.00  0.00    +0.000 C 
ATOM      2  C   UNK A   0       3.628   3.649  18.859  0.00  0.00    +0.000 C 
ENDROOT
BRANCH   1   4
ATOM      3  N   ILE A   1       5.680   4.441  17.296  0.00  0.00    +0.000 N 
ATOM      4  C   UNK A   0       5.892   4.489  18.646  0.00  0.00    +0.000 C 
ATOM      5  O   UNK A   0       6.913   4.960  19.148  0.00  0.00    +0.000 OA
ATOM      6  H   ILE A   1       4.808   4.092  16.905  0.00  0.00    +0.000 HD
BRANCH   3   7
ATOM      7  CA  ILE A   1       6.691   4.948  16.379  0.00  0.00    +0.000 C 
BRANCH   7   8
ATOM      8  CB  ILE A   1       6.669   4.240  14.998  0.00  0.00    +0.000 C 
ATOM      9  CG2 ILE A   1       7.541   5.026  14.007  0.00  0.00    +0.000 C 
BRANCH   8  11
ATOM     10  CD1 ILE A   1       5.328   3.602  12.838  0.00  0.00    +0.000 C 
ATOM     11  CG1 ILE A   1       5.312   3.953  14.318  0.00  0.00    +0.000 C 
ENDBRANCH   8  11
ENDBRANCH   7   8
BRANCH   7  12
ATOM     12  C   ILE A   1       6.628   6.478  16.353  0.00  0.00    +0.000 C 
ATOM     13  O   ILE A   1       5.650   7.116  15.967  0.00  0.00    +0.000 OA
BRANCH  12  14
ATOM     14  OXT ILE A   1       7.735   7.092  16.845  0.00  0.00    +0.000 OA
ATOM     15  HXT ILE A   1       8.068   7.827  16.289  0.00  0.00    +0.000 HD
ENDBRANCH  12  14
ENDBRANCH   7  12
ENDBRANCH   3   7
ENDBRANCH   1   4
BRANCH   2  16
ATOM     16  C   UNK A   0       2.371   3.137  19.551  0.00  0.00    +0.000 C 
ATOM     17  C   UNK A   0       1.929   1.781  18.958  0.00  0.00    +0.000 C 
ATOM     18  C   UNK A   0       2.680   2.965  21.049  0.00  0.00    +0.000 C 
BRANCH  16  19
ATOM     19  C   UNK A   0       1.220   4.188  19.442  0.00  0.00    +0.000 C 
BRANCH  19  20
ATOM     20  C   UNK A   0       1.392   5.377  20.346  0.00  0.00    +0.000 C 
ATOM     21  C   UNK A   0       1.872   6.609  20.068  0.00  0.00    +0.000 C 
ATOM     22  C   UNK A   0       2.397   7.013  18.713  0.00  0.00    +0.000 C 
BRANCH  21  23
ATOM     23  C   UNK A   0       1.911   7.724  21.118  0.00  0.00    +0.000 C 
BRANCH  23  24
ATOM     24  C   UNK A   0       0.526   8.284  21.487  0.00  0.00    +0.000 C 
BRANCH  24  25
ATOM     25  C   UNK A   0       0.077   9.527  20.788  0.00  0.00    +0.000 C 
ATOM     26  C   UNK A   0      -0.510  10.545  21.446  0.00  0.00    +0.000 C 
ATOM     27  C   UNK A   0      -0.799  10.575  22.923  0.00  0.00    +0.000 C 
ATOM     28 BR   UNK A   0      -1.046  12.097  20.540  0.00  0.00    +0.000 Br
ENDBRANCH  24  25
ENDBRANCH  23  24
ENDBRANCH  21  23
ENDBRANCH  19  20
ENDBRANCH  16  19
ENDBRANCH   2  16
TORSDOF 12
ENDMDL
MODEL 6
REMARK VINA RESULT:      -6.4      1.588      2.416
REMARK  Name = 
REMARK  18 active torsions:
REMARK  status: ('A' for Active; 'I' for Inactive)
REMARK    1  A    between atoms: CD1_1  and  CG1_2
REMARK    2  A    between atoms: CG1_2  and  CB_3
REMARK    3  A    between atoms: CB_3  and  CG2_4
REMARK    4  A    between atoms: CB_3  and  CA_5
REMARK    5  A    between atoms: CA_5  and  N_6
REMARK    6  A    between atoms: CA_5  and  C_24
REMARK    7  A    between atoms: C_7  and  C_9
REMARK    8  A    between atoms: C_10  and  C_11
REMARK    9  A    between atoms: C_11  and  C_12
REMARK   10  A    between atoms: C_11  and  C_13
REMARK   11  A    between atoms: C_11  and  C_14
REMARK   12  A    between atoms: C_14  and  C_15
REMARK   13  A    between atoms: C_16  and  C_17
REMARK   14  A    between atoms: C_16  and  C_18
REMARK   15  A    between atoms: C_18  and  C_19
REMARK   16  A    between atoms: C_19  and  C_20
REMARK   17  A    between atoms: C_21  and  C_22
REMARK   18  A    between atoms: C_24  and  OXT_26
REMARK                            x       y       z     vdW  Elec       q    Type
REMARK                         _______ _______ _______ _____ _____    ______ ____
ROOT
ATOM      1  C   UNK A   0       8.236   9.150  17.932  0.00  0.00    +0.000 C 
ATOM      2  C   UNK A   0       9.134   9.612  18.814  0.00  0.00    +0.000 C 
ENDROOT
BRANCH   1   4
ATOM      3  N   ILE A   1       6.882   7.372  17.092  0.00  0.00    +0.000 N 
ATOM      4  C   UNK A   0       7.833   7.733  18.006  0.00  0.00    +0.000 C 
ATOM      5  O   UNK A   0       8.297   6.950  18.835  0.00  0.00    +0.000 OA
ATOM      6  H   ILE A   1       6.548   8.021  16.385  0.00  0.00    +0.000 HD
BRANCH   3   7
ATOM      7  CA  ILE A   1       6.361   6.012  17.078  0.00  0.00    +0.000 C 
BRANCH   7   8
ATOM      8  CB  ILE A   1       4.869   5.937  16.658  0.00  0.00    +0.000 C 
ATOM      9  CG2 ILE A   1       4.076   7.028  17.392  0.00  0.00    +0.000 C 
BRANCH   8  11
ATOM     10  CD1 ILE A   1       3.479   4.307  18.170  0.00  0.00    +0.000 C 
ATOM     11  CG1 ILE A   1       4.106   4.603  16.816  0.00  0.00    +0.000 C 
ENDBRANCH   8  11
ENDBRANCH   7   8
BRANCH   7  12
ATOM     12  C   ILE A   1       7.326   5.109  16.305  0.00  0.00    +0.000 C 
ATOM     13  O   ILE A   1       7.534   5.207  15.097  0.00  0.00    +0.000 OA
BRANCH  12  14
ATOM     14  OXT ILE A   1       7.986   4.205  17.074  0.00  0.00    +0.000 OA
ATOM     15  HXT ILE A   1       8.142   3.342  16.637  0.00  0.00    +0.000 HD
ENDBRANCH  12  14
ENDBRANCH   7  12
ENDBRANCH   3   7
ENDBRANCH   1   4
BRANCH   2  16
ATOM     16  C   UNK A   0       9.592  11.059  18.948  0.00  0.00    +0.000 C 
ATOM     17  C   UNK A   0      11.081  11.202  18.562  0.00  0.00    +0.000 C 
ATOM     18  C   UNK A   0       8.734  11.927  18.010  0.00  0.00    +0.000 C 
BRANCH  16  19
ATOM     19  C   UNK A   0       9.346  11.579  20.400  0.00  0.00    +0.000 C 
BRANCH  19  20
ATOM     20  C   UNK A   0       9.820  12.986  20.633  0.00  0.00    +0.000 C 
ATOM     21  C   UNK A   0       9.613  13.801  21.691  0.00  0.00    +0.000 C 
ATOM     22  C   UNK A   0       8.773  13.422  22.884  0.00  0.00    +0.000 C 
BRANCH  21  23
ATOM     23  C   UNK A   0      10.239  15.198  21.777  0.00  0.00    +0.000 C 
BRANCH  23  24
ATOM     24  C   UNK A   0       9.759  16.166  20.682  0.00  0.00    +0.000 C 
BRANCH  24  25
ATOM     25  C   UNK A   0       8.286  16.266  20.446  0.00  0.00    +0.000 C 
ATOM     26  C   UNK A   0       7.772  16.977  19.424  0.00  0.00    +0.000 C 
ATOM     27  C   UNK A   0       8.574  17.753  18.414  0.00  0.00    +0.000 C 
ATOM     28 BR   UNK A   0       5.920  17.066  19.148  0.00  0.00    +0.000 Br
ENDBRANCH  24  25
ENDBRANCH  23  24
ENDBRANCH  21  23
ENDBRANCH  19  20
ENDBRANCH  16  19
ENDBRANCH   2  16
TORSDOF 12
ENDMDL
MODEL 7
REMARK VINA RESULT:      -6.4      5.863      8.259
REMARK  Name = 
REMARK  18 active torsions:
REMARK  status: ('A' for Active; 'I' for Inactive)
REMARK    1  A    between atoms: CD1_1  and  CG1_2
REMARK    2  A    between atoms: CG1_2  and  CB_3
REMARK    3  A    between atoms: CB_3  and  CG2_4
REMARK    4  A    between atoms: CB_3  and  CA_5
REMARK    5  A    between atoms: CA_5  and  N_6
REMARK    6  A    between atoms: CA_5  and  C_24
REMARK    7  A    between atoms: C_7  and  C_9
REMARK    8  A    between atoms: C_10  and  C_11
REMARK    9  A    between atoms: C_11  and  C_12
REMARK   10  A    between atoms: C_11  and  C_13
REMARK   11  A    between atoms: C_11  and  C_14
REMARK   12  A    between atoms: C_14  and  C_15
REMARK   13  A    between atoms: C_16  and  C_17
REMARK   14  A    between atoms: C_16  and  C_18
REMARK   15  A    between atoms: C_18  and  C_19
REMARK   16  A    between atoms: C_19  and  C_20
REMARK   17  A    between atoms: C_21  and  C_22
REMARK   18  A    between atoms: C_24  and  OXT_26
REMARK                            x       y       z     vdW  Elec       q    Type
REMARK                         _______ _______ _______ _____ _____    ______ ____
ROOT
ATOM      1  C   UNK A   0       4.387   4.257  19.809  0.00  0.00    +0.000 C 
ATOM      2  C   UNK A   0       3.130   3.950  19.454  0.00  0.00    +0.000 C 
ENDROOT
BRANCH   1   4
ATOM      3  N   ILE A   1       5.675   5.676  18.385  0.00  0.00    +0.000 N 
ATOM      4  C   UNK A   0       5.411   4.386  18.754  0.00  0.00    +0.000 C 
ATOM      5  O   UNK A   0       5.961   3.414  18.237  0.00  0.00    +0.000 OA
ATOM      6  H   ILE A   1       5.245   6.465  18.860  0.00  0.00    +0.000 HD
BRANCH   3   7
ATOM      7  CA  ILE A   1       6.635   5.950  17.326  0.00  0.00    +0.000 C 
BRANCH   7   8
ATOM      8  CB  ILE A   1       5.968   6.166  15.941  0.00  0.00    +0.000 C 
ATOM      9  CG2 ILE A   1       4.688   6.998  16.115  0.00  0.00    +0.000 C 
BRANCH   8  11
ATOM     10  CD1 ILE A   1       6.700   4.437  14.112  0.00  0.00    +0.000 C 
ATOM     11  CG1 ILE A   1       5.627   4.939  15.066  0.00  0.00    +0.000 C 
ENDBRANCH   8  11
ENDBRANCH   7   8
BRANCH   7  12
ATOM     12  C   ILE A   1       7.600   7.045  17.788  0.00  0.00    +0.000 C 
ATOM     13  O   ILE A   1       7.775   8.102  17.183  0.00  0.00    +0.000 OA
BRANCH  12  14
ATOM     14  OXT ILE A   1       8.223   6.782  18.965  0.00  0.00    +0.000 OA
ATOM     15  HXT ILE A   1       8.194   5.840  19.235  0.00  0.00    +0.000 HD
ENDBRANCH  12  14
ENDBRANCH   7  12
ENDBRANCH   3   7
ENDBRANCH   1   4
BRANCH   2  16
ATOM     16  C   UNK A   0       1.931   3.871  20.391  0.00  0.00    +0.000 C 
ATOM     17  C   UNK A   0       0.767   3.102  19.729  0.00  0.00    +0.000 C 
ATOM     18  C   UNK A   0       2.366   3.139  21.672  0.00  0.00    +0.000 C 
BRANCH  16  19
ATOM     19  C   UNK A   0       1.475   5.303  20.817  0.00  0.00    +0.000 C 
BRANCH  19  20
ATOM     20  C   UNK A   0       1.819   6.375  19.821  0.00  0.00    +0.000 C 
ATOM     21  C   UNK A   0       1.761   7.719  19.947  0.00  0.00    +0.000 C 
ATOM     22  C   UNK A   0       1.264   8.419  21.186  0.00  0.00    +0.000 C 
BRANCH  21  23
ATOM     23  C   UNK A   0       2.219   8.662  18.829  0.00  0.00    +0.000 C 
BRANCH  23  24
ATOM     24  C   UNK A   0       1.065   9.332  18.064  0.00  0.00    +0.000 C 
BRANCH  24  25
ATOM     25  C   UNK A   0       0.543  10.627  18.598  0.00  0.00    +0.000 C 
ATOM     26  C   UNK A   0      -0.752  10.978  18.483  0.00  0.00    +0.000 C 
ATOM     27  C   UNK A   0      -1.821  10.154  17.816  0.00  0.00    +0.000 C 
ATOM     28 BR   UNK A   0      -1.376  12.603  19.180  0.00  0.00    +0.000 Br
ENDBRANCH  24  25
ENDBRANCH  23  24
ENDBRANCH  21  23
ENDBRANCH  19  20
ENDBRANCH  16  19
ENDBRANCH   2  16
TORSDOF 12
ENDMDL
MODEL 8
REMARK VINA RESULT:      -6.3      6.913     10.479
REMARK  Name = 
REMARK  18 active torsions:
REMARK  status: ('A' for Active; 'I' for Inactive)
REMARK    1  A    between atoms: CD1_1  and  CG1_2
REMARK    2  A    between atoms: CG1_2  and  CB_3
REMARK    3  A    between atoms: CB_3  and  CG2_4
REMARK    4  A    between atoms: CB_3  and  CA_5
REMARK    5  A    between atoms: CA_5  and  N_6
REMARK    6  A    between atoms: CA_5  and  C_24
REMARK    7  A    between atoms: C_7  and  C_9
REMARK    8  A    between atoms: C_10  and  C_11
REMARK    9  A    between atoms: C_11  and  C_12
REMARK   10  A    between atoms: C_11  and  C_13
REMARK   11  A    between atoms: C_11  and  C_14
REMARK   12  A    between atoms: C_14  and  C_15
REMARK   13  A    between atoms: C_16  and  C_17
REMARK   14  A    between atoms: C_16  and  C_18
REMARK   15  A    between atoms: C_18  and  C_19
REMARK   16  A    between atoms: C_19  and  C_20
REMARK   17  A    between atoms: C_21  and  C_22
REMARK   18  A    between atoms: C_24  and  OXT_26
REMARK                            x       y       z     vdW  Elec       q    Type
REMARK                         _______ _______ _______ _____ _____    ______ ____
ROOT
ATOM      1  C   UNK A   0       2.392   7.478  19.083  0.00  0.00    +0.000 C 
ATOM      2  C   UNK A   0       2.379   6.401  18.284  0.00  0.00    +0.000 C 
ENDROOT
BRANCH   1   4
ATOM      3  N   ILE A   1       1.217   9.501  19.564  0.00  0.00    +0.000 N 
ATOM      4  C   UNK A   0       1.796   8.735  18.591  0.00  0.00    +0.000 C 
ATOM      5  O   UNK A   0       1.800   9.053  17.401  0.00  0.00    +0.000 OA
ATOM      6  H   ILE A   1       1.269   9.242  20.546  0.00  0.00    +0.000 HD
BRANCH   3   7
ATOM      7  CA  ILE A   1       0.555  10.749  19.214  0.00  0.00    +0.000 C 
BRANCH   7   8
ATOM      8  CB  ILE A   1      -0.585  11.128  20.196  0.00  0.00    +0.000 C 
ATOM      9  CG2 ILE A   1      -1.383  12.309  19.622  0.00  0.00    +0.000 C 
BRANCH   8  11
ATOM     10  CD1 ILE A   1      -1.354  11.335  22.694  0.00  0.00    +0.000 C 
ATOM     11  CG1 ILE A   1      -0.239  11.454  21.666  0.00  0.00    +0.000 C 
ENDBRANCH   8  11
ENDBRANCH   7   8
BRANCH   7  12
ATOM     12  C   ILE A   1       1.611  11.828  18.959  0.00  0.00    +0.000 C 
ATOM     13  O   ILE A   1       2.155  12.477  19.850  0.00  0.00    +0.000 OA
BRANCH  12  14
ATOM     14  OXT ILE A   1       1.949  11.983  17.652  0.00  0.00    +0.000 OA
ATOM     15  HXT ILE A   1       2.459  12.799  17.463  0.00  0.00    +0.000 HD
ENDBRANCH  12  14
ENDBRANCH   7  12
ENDBRANCH   3   7
ENDBRANCH   1   4
BRANCH   2  16
ATOM     16  C   UNK A   0       2.858   5.004  18.659  0.00  0.00    +0.000 C 
ATOM     17  C   UNK A   0       2.202   4.534  19.977  0.00  0.00    +0.000 C 
ATOM     18  C   UNK A   0       2.473   4.040  17.523  0.00  0.00    +0.000 C 
BRANCH  16  19
ATOM     19  C   UNK A   0       4.415   4.973  18.776  0.00  0.00    +0.000 C 
BRANCH  19  20
ATOM     20  C   UNK A   0       5.122   4.787  17.462  0.00  0.00    +0.000 C 
ATOM     21  C   UNK A   0       5.761   5.693  16.691  0.00  0.00    +0.000 C 
ATOM     22  C   UNK A   0       5.841   7.162  17.024  0.00  0.00    +0.000 C 
BRANCH  21  23
ATOM     23  C   UNK A   0       6.486   5.298  15.400  0.00  0.00    +0.000 C 
BRANCH  23  24
ATOM     24  C   UNK A   0       6.187   3.864  14.929  0.00  0.00    +0.000 C 
BRANCH  24  25
ATOM     25  C   UNK A   0       5.166   3.691  13.852  0.00  0.00    +0.000 C 
ATOM     26  C   UNK A   0       5.509   3.565  12.555  0.00  0.00    +0.000 C 
ATOM     27  C   UNK A   0       6.916   3.590  12.021  0.00  0.00    +0.000 C 
ATOM     28 BR   UNK A   0       4.202   3.332  11.231  0.00  0.00    +0.000 Br
ENDBRANCH  24  25
ENDBRANCH  23  24
ENDBRANCH  21  23
ENDBRANCH  19  20
ENDBRANCH  16  19
ENDBRANCH   2  16
TORSDOF 12
ENDMDL
MODEL 9
REMARK VINA RESULT:      -6.2      5.869      7.963
REMARK  Name = 
REMARK  18 active torsions:
REMARK  status: ('A' for Active; 'I' for Inactive)
REMARK    1  A    between atoms: CD1_1  and  CG1_2
REMARK    2  A    between atoms: CG1_2  and  CB_3
REMARK    3  A    between atoms: CB_3  and  CG2_4
REMARK    4  A    between atoms: CB_3  and  CA_5
REMARK    5  A    between atoms: CA_5  and  N_6
REMARK    6  A    between atoms: CA_5  and  C_24
REMARK    7  A    between atoms: C_7  and  C_9
REMARK    8  A    between atoms: C_10  and  C_11
REMARK    9  A    between atoms: C_11  and  C_12
REMARK   10  A    between atoms: C_11  and  C_13
REMARK   11  A    between atoms: C_11  and  C_14
REMARK   12  A    between atoms: C_14  and  C_15
REMARK   13  A    between atoms: C_16  and  C_17
REMARK   14  A    between atoms: C_16  and  C_18
REMARK   15  A    between atoms: C_18  and  C_19
REMARK   16  A    between atoms: C_19  and  C_20
REMARK   17  A    between atoms: C_21  and  C_22
REMARK   18  A    between atoms: C_24  and  OXT_26
REMARK                            x       y       z     vdW  Elec       q    Type
REMARK                         _______ _______ _______ _____ _____    ______ ____
ROOT
ATOM      1  C   UNK A   0       4.897   4.080  19.520  0.00  0.00    +0.000 C 
ATOM      2  C   UNK A   0       3.811   3.583  18.908  0.00  0.00    +0.000 C 
ENDROOT
BRANCH   1   4
ATOM      3  N   ILE A   1       5.747   4.624  17.356  0.00  0.00    +0.000 N 
ATOM      4  C   UNK A   0       6.023   4.552  18.693  0.00  0.00    +0.000 C 
ATOM      5  O   UNK A   0       7.124   4.835  19.166  0.00  0.00    +0.000 OA
ATOM      6  H   ILE A   1       4.816   4.433  16.993  0.00  0.00    +0.000 HD
BRANCH   3   7
ATOM      7  CA  ILE A   1       6.780   5.036  16.417  0.00  0.00    +0.000 C 
BRANCH   7   8
ATOM      8  CB  ILE A   1       6.685   4.307  15.050  0.00  0.00    +0.000 C 
ATOM      9  CG2 ILE A   1       7.514   5.070  14.005  0.00  0.00    +0.000 C 
BRANCH   8  11
ATOM     10  CD1 ILE A   1       5.235   3.655  12.966  0.00  0.00    +0.000 C 
ATOM     11  CG1 ILE A   1       5.294   4.021  14.442  0.00  0.00    +0.000 C 
ENDBRANCH   8  11
ENDBRANCH   7   8
BRANCH   7  12
ATOM     12  C   ILE A   1       6.834   6.565  16.363  0.00  0.00    +0.000 C 
ATOM     13  O   ILE A   1       7.845   7.223  16.604  0.00  0.00    +0.000 OA
BRANCH  12  14
ATOM     14  OXT ILE A   1       5.674   7.153  15.973  0.00  0.00    +0.000 OA
ATOM     15  HXT ILE A   1       4.898   6.553  15.972  0.00  0.00    +0.000 HD
ENDBRANCH  12  14
ENDBRANCH   7  12
ENDBRANCH   3   7
ENDBRANCH   1   4
BRANCH   2  16
ATOM     16  C   UNK A   0       2.524   3.141  19.592  0.00  0.00    +0.000 C 
ATOM     17  C   UNK A   0       1.896   1.936  18.857  0.00  0.00    +0.000 C 
ATOM     18  C   UNK A   0       2.858   2.740  21.040  0.00  0.00    +0.000 C 
BRANCH  16  19
ATOM     19  C   UNK A   0       1.511   4.327  19.671  0.00  0.00    +0.000 C 
BRANCH  19  20
ATOM     20  C   UNK A   0       1.861   5.489  18.783  0.00  0.00    +0.000 C 
ATOM     21  C   UNK A   0       2.040   6.790  19.098  0.00  0.00    +0.000 C 
ATOM     22  C   UNK A   0       1.861   7.344  20.489  0.00  0.00    +0.000 C 
BRANCH  21  23
ATOM     23  C   UNK A   0       2.462   7.830  18.054  0.00  0.00    +0.000 C 
BRANCH  23  24
ATOM     24  C   UNK A   0       1.498   9.024  17.935  0.00  0.00    +0.000 C 
BRANCH  24  25
ATOM     25  C   UNK A   0       2.090  10.395  17.981  0.00  0.00    +0.000 C 
ATOM     26  C   UNK A   0       1.501  11.406  18.647  0.00  0.00    +0.000 C 
ATOM     27  C   UNK A   0       0.205  11.310  19.406  0.00  0.00    +0.000 C 
ATOM     28 BR   UNK A   0       2.281  13.110  18.699  0.00  0.00    +0.000 Br
ENDBRANCH  24  25
ENDBRANCH  23  24
ENDBRANCH  21  23
ENDBRANCH  19  20
ENDBRANCH  16  19
ENDBRANCH   2  16
TORSDOF 12
ENDMDL
