MODEL 1
REMARK VINA RESULT:      -8.2      0.000      0.000
REMARK  Name = 
REMARK  9 active torsions:
REMARK  status: ('A' for Active; 'I' for Inactive)
REMARK    1  A    between atoms: C_1  and  O_2
REMARK    2  A    between atoms: O_2  and  C_3
REMARK    3  A    between atoms: C_8  and  S_9
REMARK    4  A    between atoms: S_9  and  C_12
REMARK    5  A    between atoms: C_16  and  C_17
REMARK    6  A    between atoms: C_17  and  C_18
REMARK    7  A    between atoms: C_17  and  N_21
REMARK    8  A    between atoms: C_18  and  C_19
REMARK    9  A    between atoms: C_26  and  C_27
REMARK                            x       y       z     vdW  Elec       q    Type
REMARK                         _______ _______ _______ _____ _____    ______ ____
ROOT
ATOM      1  C   UNL     1       1.130   9.730  20.125  0.00  0.00    +0.000 A 
ATOM      2  C   UNL     1       1.213  10.070  18.775  0.00  0.00    +0.000 A 
ATOM      3  C   UNL     1       1.529   9.079  17.849  0.00  0.00    +0.000 A 
ATOM      4  C   UNL     1       1.824   7.778  18.277  0.00  0.00    +0.000 A 
ATOM      5  C   UNL     1       1.857   7.456  19.647  0.00  0.00    +0.000 A 
ATOM      6  C   UNL     1       1.480   8.453  20.562  0.00  0.00    +0.000 A 
ENDROOT
BRANCH   1   7
ATOM      7  S   UNL     1       0.622  10.940  21.320  0.00  0.00    +0.000 S 
ATOM      8  O   UNL     1       1.484  12.090  21.132  0.00  0.00    +0.000 OA
ATOM      9  O   UNL     1       0.599  10.273  22.611  0.00  0.00    +0.000 OA
BRANCH   7  15
ATOM     10  C   UNL     1      -2.253  15.359  21.532  0.00  0.00    +0.000 C 
ATOM     11  O   UNL     1      -2.325  16.144  20.589  0.00  0.00    +0.000 OA
ATOM     12  N   UNL     1      -1.592  14.148  21.474  0.00  0.00    +0.000 N 
ATOM     13  C   UNL     1      -0.831  13.816  20.278  0.00  0.00    +0.000 C 
ATOM     14  C   UNL     1      -1.209  12.425  19.786  0.00  0.00    +0.000 C 
ATOM     15  C   UNL     1      -1.075  11.361  20.880  0.00  0.00    +0.000 C 
ATOM     16  C   UNL     1      -1.864  11.793  22.128  0.00  0.00    +0.000 C 
ATOM     17  C   UNL     1      -1.509  13.208  22.588  0.00  0.00    +0.000 C 
BRANCH  10  19
ATOM     18  C   UNL     1      -4.259  15.803  22.672  0.00  0.00    +0.000 C 
ATOM     19  O   UNL     1      -2.848  15.580  22.736  0.00  0.00    +0.000 OA
ENDBRANCH  10  19
ENDBRANCH   7  15
ENDBRANCH   1   7
BRANCH   5  20
ATOM     20  C   UNL     1       2.269   6.055  20.110  0.00  0.00    +0.000 C 
BRANCH  20  21
ATOM     21  N   UNL     1       3.733   5.895  20.111  0.00  0.00    +0.000 N 
ATOM     22  C   UNL     1       4.371   5.443  19.009  0.00  0.00    +0.000 A 
ATOM     23  N   UNL     1       3.889   5.193  17.816  0.00  0.00    +0.000 NA
ATOM     24  C   UNL     1       4.965   4.841  17.054  0.00  0.00    +0.000 A 
ATOM     25  N   UNL     1       4.917   4.560  15.734  0.00  0.00    +0.000 NA
ATOM     26  C   UNL     1       6.117   4.264  15.182  0.00  0.00    +0.000 A 
ATOM     27  C   UNL     1       6.123   3.971  13.707  0.00  0.00    +0.000 C 
ATOM     28  C   UNL     1       7.329   4.229  15.882  0.00  0.00    +0.000 A 
ATOM     29  C   UNL     1       7.362   4.523  17.244  0.00  0.00    +0.000 A 
ATOM     30  C   UNL     1       6.132   4.838  17.801  0.00  0.00    +0.000 A 
ATOM     31  N   UNL     1       5.727   5.215  19.056  0.00  0.00    +0.000 N 
ATOM     32  H   UNL     1       4.097   5.617  21.018  0.00  0.00    +0.000 HD
ATOM     33  H   UNL     1       6.320   5.360  19.854  0.00  0.00    +0.000 HD
ENDBRANCH  20  21
BRANCH  20  34
ATOM     34  C   UNL     1       1.537   4.909  19.379  0.00  0.00    +0.000 C 
BRANCH  34  35
ATOM     35  C   UNL     1       1.286   3.774  20.279  0.00  0.00    +0.000 C 
ATOM     36  N   UNL     1       1.097   2.891  21.009  0.00  0.00    +0.000 NA
ENDBRANCH  34  35
ENDBRANCH  20  34
ENDBRANCH   5  20
TORSDOF 7
ENDMDL
MODEL 2
REMARK VINA RESULT:      -8.1      4.412     10.436
REMARK  Name = 
REMARK  9 active torsions:
REMARK  status: ('A' for Active; 'I' for Inactive)
REMARK    1  A    between atoms: C_1  and  O_2
REMARK    2  A    between atoms: O_2  and  C_3
REMARK    3  A    between atoms: C_8  and  S_9
REMARK    4  A    between atoms: S_9  and  C_12
REMARK    5  A    between atoms: C_16  and  C_17
REMARK    6  A    between atoms: C_17  and  C_18
REMARK    7  A    between atoms: C_17  and  N_21
REMARK    8  A    between atoms: C_18  and  C_19
REMARK    9  A    between atoms: C_26  and  C_27
REMARK                            x       y       z     vdW  Elec       q    Type
REMARK                         _______ _______ _______ _____ _____    ______ ____
ROOT
ATOM      1  C   UNL     1       1.824   6.549  19.676  0.00  0.00    +0.000 A 
ATOM      2  C   UNL     1       1.755   6.646  21.065  0.00  0.00    +0.000 A 
ATOM      3  C   UNL     1       1.378   7.859  21.637  0.00  0.00    +0.000 A 
ATOM      4  C   UNL     1       1.139   8.978  20.830  0.00  0.00    +0.000 A 
ATOM      5  C   UNL     1       1.320   8.919  19.436  0.00  0.00    +0.000 A 
ATOM      6  C   UNL     1       1.644   7.674  18.872  0.00  0.00    +0.000 A 
ENDROOT
BRANCH   1   7
ATOM      7  S   UNL     1       2.192   4.992  18.907  0.00  0.00    +0.000 S 
ATOM      8  O   UNL     1       2.010   5.185  17.481  0.00  0.00    +0.000 OA
ATOM      9  O   UNL     1       1.400   3.985  19.593  0.00  0.00    +0.000 OA
BRANCH   7  15
ATOM     10  C   UNL     1       6.646   5.209  16.088  0.00  0.00    +0.000 C 
ATOM     11  O   UNL     1       7.340   6.222  16.029  0.00  0.00    +0.000 OA
ATOM     12  N   UNL     1       5.531   5.089  16.894  0.00  0.00    +0.000 N 
ATOM     13  C   UNL     1       5.065   6.253  17.633  0.00  0.00    +0.000 C 
ATOM     14  C   UNL     1       4.851   5.892  19.097  0.00  0.00    +0.000 C 
ATOM     15  C   UNL     1       3.930   4.679  19.271  0.00  0.00    +0.000 C 
ATOM     16  C   UNL     1       4.453   3.501  18.431  0.00  0.00    +0.000 C 
ATOM     17  C   UNL     1       4.707   3.886  16.972  0.00  0.00    +0.000 C 
BRANCH  10  19
ATOM     18  C   UNL     1       6.523   4.113  14.014  0.00  0.00    +0.000 C 
ATOM     19  O   UNL     1       6.919   4.075  15.387  0.00  0.00    +0.000 OA
ENDBRANCH  10  19
ENDBRANCH   7  15
ENDBRANCH   1   7
BRANCH   5  20
ATOM     20  C   UNL     1       1.143  10.170  18.571  0.00  0.00    +0.000 C 
BRANCH  20  21
ATOM     21  N   UNL     1       0.039  10.011  17.610  0.00  0.00    +0.000 N 
ATOM     22  C   UNL     1      -1.194  10.481  17.903  0.00  0.00    +0.000 A 
ATOM     23  N   UNL     1      -1.588  11.192  18.930  0.00  0.00    +0.000 NA
ATOM     24  C   UNL     1      -2.904  11.469  18.700  0.00  0.00    +0.000 A 
ATOM     25  N   UNL     1      -3.681  12.238  19.493  0.00  0.00    +0.000 NA
ATOM     26  C   UNL     1      -4.950  12.396  19.048  0.00  0.00    +0.000 A 
ATOM     27  C   UNL     1      -5.849  13.267  19.881  0.00  0.00    +0.000 C 
ATOM     28  C   UNL     1      -5.460  11.823  17.877  0.00  0.00    +0.000 A 
ATOM     29  C   UNL     1      -4.645  11.033  17.068  0.00  0.00    +0.000 A 
ATOM     30  C   UNL     1      -3.344  10.886  17.523  0.00  0.00    +0.000 A 
ATOM     31  N   UNL     1      -2.234  10.245  17.033  0.00  0.00    +0.000 N 
ATOM     32  H   UNL     1       0.104   9.149  17.076  0.00  0.00    +0.000 HD
ATOM     33  H   UNL     1      -2.171   9.745  16.164  0.00  0.00    +0.000 HD
ENDBRANCH  20  21
BRANCH  20  34
ATOM     34  C   UNL     1       2.447  10.672  17.913  0.00  0.00    +0.000 C 
BRANCH  34  35
ATOM     35  C   UNL     1       2.571  12.133  18.017  0.00  0.00    +0.000 C 
ATOM     36  N   UNL     1       2.691  13.284  18.106  0.00  0.00    +0.000 NA
ENDBRANCH  34  35
ENDBRANCH  20  34
ENDBRANCH   5  20
TORSDOF 7
ENDMDL
MODEL 3
REMARK VINA RESULT:      -7.9      1.213      1.602
REMARK  Name = 
REMARK  9 active torsions:
REMARK  status: ('A' for Active; 'I' for Inactive)
REMARK    1  A    between atoms: C_1  and  O_2
REMARK    2  A    between atoms: O_2  and  C_3
REMARK    3  A    between atoms: C_8  and  S_9
REMARK    4  A    between atoms: S_9  and  C_12
REMARK    5  A    between atoms: C_16  and  C_17
REMARK    6  A    between atoms: C_17  and  C_18
REMARK    7  A    between atoms: C_17  and  N_21
REMARK    8  A    between atoms: C_18  and  C_19
REMARK    9  A    between atoms: C_26  and  C_27
REMARK                            x       y       z     vdW  Elec       q    Type
REMARK                         _______ _______ _______ _____ _____    ______ ____
ROOT
ATOM      1  C   UNL     1       1.085   9.654  19.721  0.00  0.00    +0.000 A 
ATOM      2  C   UNL     1       1.335   9.890  18.370  0.00  0.00    +0.000 A 
ATOM      3  C   UNL     1       1.797   8.841  17.578  0.00  0.00    +0.000 A 
ATOM      4  C   UNL     1       2.068   7.591  18.147  0.00  0.00    +0.000 A 
ATOM      5  C   UNL     1       1.928   7.378  19.531  0.00  0.00    +0.000 A 
ATOM      6  C   UNL     1       1.408   8.429  20.304  0.00  0.00    +0.000 A 
ENDROOT
BRANCH   1   7
ATOM      7  S   UNL     1       0.391  10.934  20.737  0.00  0.00    +0.000 S 
ATOM      8  O   UNL     1       0.963  10.763  22.059  0.00  0.00    +0.000 OA
ATOM      9  O   UNL     1      -1.051  10.868  20.572  0.00  0.00    +0.000 OA
BRANCH   7  15
ATOM     10  C   UNL     1      -1.064  15.985  21.198  0.00  0.00    +0.000 C 
ATOM     11  O   UNL     1      -0.558  16.744  22.021  0.00  0.00    +0.000 OA
ATOM     12  N   UNL     1      -0.637  14.689  20.985  0.00  0.00    +0.000 N 
ATOM     13  C   UNL     1       0.389  14.131  21.854  0.00  0.00    +0.000 C 
ATOM     14  C   UNL     1       1.498  13.505  21.020  0.00  0.00    +0.000 C 
ATOM     15  C   UNL     1       0.965  12.482  20.011  0.00  0.00    +0.000 C 
ATOM     16  C   UNL     1      -0.144  13.120  19.157  0.00  0.00    +0.000 C 
ATOM     17  C   UNL     1      -1.231  13.785  20.004  0.00  0.00    +0.000 C 
BRANCH  10  19
ATOM     18  C   UNL     1      -1.778  17.417  19.478  0.00  0.00    +0.000 C 
ATOM     19  O   UNL     1      -2.086  16.349  20.376  0.00  0.00    +0.000 OA
ENDBRANCH  10  19
ENDBRANCH   7  15
ENDBRANCH   1   7
BRANCH   5  20
ATOM     20  C   UNL     1       2.312   6.035  20.158  0.00  0.00    +0.000 C 
BRANCH  20  21
ATOM     21  N   UNL     1       3.773   5.844  20.173  0.00  0.00    +0.000 N 
ATOM     22  C   UNL     1       4.416   5.411  19.067  0.00  0.00    +0.000 A 
ATOM     23  N   UNL     1       3.946   5.206  17.861  0.00  0.00    +0.000 NA
ATOM     24  C   UNL     1       5.025   4.854  17.103  0.00  0.00    +0.000 A 
ATOM     25  N   UNL     1       4.989   4.613  15.775  0.00  0.00    +0.000 NA
ATOM     26  C   UNL     1       6.190   4.308  15.229  0.00  0.00    +0.000 A 
ATOM     27  C   UNL     1       6.210   4.058  13.747  0.00  0.00    +0.000 C 
ATOM     28  C   UNL     1       7.391   4.227  15.944  0.00  0.00    +0.000 A 
ATOM     29  C   UNL     1       7.412   4.480  17.315  0.00  0.00    +0.000 A 
ATOM     30  C   UNL     1       6.181   4.804  17.864  0.00  0.00    +0.000 A 
ATOM     31  N   UNL     1       5.767   5.152  19.124  0.00  0.00    +0.000 N 
ATOM     32  H   UNL     1       4.119   5.531  21.077  0.00  0.00    +0.000 HD
ATOM     33  H   UNL     1       6.352   5.261  19.934  0.00  0.00    +0.000 HD
ENDBRANCH  20  21
BRANCH  20  34
ATOM     34  C   UNL     1       1.552   4.825  19.573  0.00  0.00    +0.000 C 
BRANCH  34  35
ATOM     35  C   UNL     1       1.437   3.738  20.556  0.00  0.00    +0.000 C 
ATOM     36  N   UNL     1       1.332   2.894  21.346  0.00  0.00    +0.000 NA
ENDBRANCH  34  35
ENDBRANCH  20  34
ENDBRANCH   5  20
TORSDOF 7
ENDMDL
MODEL 4
REMARK VINA RESULT:      -7.8      2.529      4.373
REMARK  Name = 
REMARK  9 active torsions:
REMARK  status: ('A' for Active; 'I' for Inactive)
REMARK    1  A    between atoms: C_1  and  O_2
REMARK    2  A    between atoms: O_2  and  C_3
REMARK    3  A    between atoms: C_8  and  S_9
REMARK    4  A    between atoms: S_9  and  C_12
REMARK    5  A    between atoms: C_16  and  C_17
REMARK    6  A    between atoms: C_17  and  C_18
REMARK    7  A    between atoms: C_17  and  N_21
REMARK    8  A    between atoms: C_18  and  C_19
REMARK    9  A    between atoms: C_26  and  C_27
REMARK                            x       y       z     vdW  Elec       q    Type
REMARK                         _______ _______ _______ _____ _____    ______ ____
ROOT
ATOM      1  C   UNL     1      -0.549  13.291  20.804  0.00  0.00    +0.000 A 
ATOM      2  C   UNL     1      -0.953  13.624  19.512  0.00  0.00    +0.000 A 
ATOM      3  C   UNL     1      -0.831  12.672  18.502  0.00  0.00    +0.000 A 
ATOM      4  C   UNL     1      -0.249  11.427  18.770  0.00  0.00    +0.000 A 
ATOM      5  C   UNL     1       0.267  11.127  20.045  0.00  0.00    +0.000 A 
ATOM      6  C   UNL     1       0.084  12.076  21.063  0.00  0.00    +0.000 A 
ENDROOT
BRANCH   1   7
ATOM      7  S   UNL     1      -0.793  14.437  22.138  0.00  0.00    +0.000 S 
ATOM      8  O   UNL     1      -1.620  15.507  21.613  0.00  0.00    +0.000 OA
ATOM      9  O   UNL     1       0.523  14.752  22.668  0.00  0.00    +0.000 OA
BRANCH   7  15
ATOM     10  C   UNL     1      -5.879  13.263  22.904  0.00  0.00    +0.000 C 
ATOM     11  O   UNL     1      -6.389  12.231  22.473  0.00  0.00    +0.000 OA
ATOM     12  N   UNL     1      -4.532  13.551  22.807  0.00  0.00    +0.000 N 
ATOM     13  C   UNL     1      -3.670  12.653  22.052  0.00  0.00    +0.000 C 
ATOM     14  C   UNL     1      -2.446  12.285  22.879  0.00  0.00    +0.000 C 
ATOM     15  C   UNL     1      -1.697  13.518  23.397  0.00  0.00    +0.000 C 
ATOM     16  C   UNL     1      -2.672  14.444  24.145  0.00  0.00    +0.000 C 
ATOM     17  C   UNL     1      -3.919  14.772  23.322  0.00  0.00    +0.000 C 
BRANCH  10  19
ATOM     18  C   UNL     1      -7.687  13.743  24.325  0.00  0.00    +0.000 C 
ATOM     19  O   UNL     1      -6.582  14.227  23.558  0.00  0.00    +0.000 OA
ENDBRANCH  10  19
ENDBRANCH   7  15
ENDBRANCH   1   7
BRANCH   5  20
ATOM     20  C   UNL     1       0.982   9.798  20.305  0.00  0.00    +0.000 C 
BRANCH  20  21
ATOM     21  N   UNL     1       1.438   9.175  19.051  0.00  0.00    +0.000 N 
ATOM     22  C   UNL     1       2.036   7.963  19.068  0.00  0.00    +0.000 A 
ATOM     23  N   UNL     1       2.210   7.139  20.072  0.00  0.00    +0.000 NA
ATOM     24  C   UNL     1       2.792   6.027  19.535  0.00  0.00    +0.000 A 
ATOM     25  N   UNL     1       3.087   4.903  20.222  0.00  0.00    +0.000 NA
ATOM     26  C   UNL     1       3.635   3.917  19.472  0.00  0.00    +0.000 A 
ATOM     27  C   UNL     1       3.957   2.633  20.184  0.00  0.00    +0.000 C 
ATOM     28  C   UNL     1       3.900   4.015  18.101  0.00  0.00    +0.000 A 
ATOM     29  C   UNL     1       3.588   5.182  17.406  0.00  0.00    +0.000 A 
ATOM     30  C   UNL     1       3.015   6.182  18.176  0.00  0.00    +0.000 A 
ATOM     31  N   UNL     1       2.535   7.436  17.899  0.00  0.00    +0.000 N 
ATOM     32  H   UNL     1       1.764   9.856  18.369  0.00  0.00    +0.000 HD
ATOM     33  H   UNL     1       2.496   7.872  16.995  0.00  0.00    +0.000 HD
ENDBRANCH  20  21
BRANCH  20  34
ATOM     34  C   UNL     1       0.196   8.825  21.210  0.00  0.00    +0.000 C 
BRANCH  34  35
ATOM     35  C   UNL     1       0.211   9.268  22.612  0.00  0.00    +0.000 C 
ATOM     36  N   UNL     1       0.222   9.595  23.726  0.00  0.00    +0.000 NA
ENDBRANCH  34  35
ENDBRANCH  20  34
ENDBRANCH   5  20
TORSDOF 7
ENDMDL
MODEL 5
REMARK VINA RESULT:      -7.8      0.802      1.118
REMARK  Name = 
REMARK  9 active torsions:
REMARK  status: ('A' for Active; 'I' for Inactive)
REMARK    1  A    between atoms: C_1  and  O_2
REMARK    2  A    between atoms: O_2  and  C_3
REMARK    3  A    between atoms: C_8  and  S_9
REMARK    4  A    between atoms: S_9  and  C_12
REMARK    5  A    between atoms: C_16  and  C_17
REMARK    6  A    between atoms: C_17  and  C_18
REMARK    7  A    between atoms: C_17  and  N_21
REMARK    8  A    between atoms: C_18  and  C_19
REMARK    9  A    between atoms: C_26  and  C_27
REMARK                            x       y       z     vdW  Elec       q    Type
REMARK                         _______ _______ _______ _____ _____    ______ ____
ROOT
ATOM      1  C   UNL     1       1.024   9.363  20.042  0.00  0.00    +0.000 A 
ATOM      2  C   UNL     1       1.276   9.750  18.727  0.00  0.00    +0.000 A 
ATOM      3  C   UNL     1       1.814   8.818  17.842  0.00  0.00    +0.000 A 
ATOM      4  C   UNL     1       2.157   7.536  18.287  0.00  0.00    +0.000 A 
ATOM      5  C   UNL     1       2.014   7.175  19.640  0.00  0.00    +0.000 A 
ATOM      6  C   UNL     1       1.418   8.107  20.505  0.00  0.00    +0.000 A 
ENDROOT
BRANCH   1   7
ATOM      7  S   UNL     1       0.237  10.487  21.169  0.00  0.00    +0.000 S 
ATOM      8  O   UNL     1       1.086  10.552  22.343  0.00  0.00    +0.000 OA
ATOM      9  O   UNL     1      -1.140  10.045  21.312  0.00  0.00    +0.000 OA
BRANCH   7  15
ATOM     10  C   UNL     1      -2.371  15.018  21.874  0.00  0.00    +0.000 C 
ATOM     11  O   UNL     1      -1.929  15.933  22.566  0.00  0.00    +0.000 OA
ATOM     12  N   UNL     1      -1.671  13.863  21.589  0.00  0.00    +0.000 N 
ATOM     13  C   UNL     1      -0.382  13.642  22.230  0.00  0.00    +0.000 C 
ATOM     14  C   UNL     1       0.663  13.268  21.188  0.00  0.00    +0.000 C 
ATOM     15  C   UNL     1       0.228  12.079  20.324  0.00  0.00    +0.000 C 
ATOM     16  C   UNL     1      -1.158  12.357  19.714  0.00  0.00    +0.000 C 
ATOM     17  C   UNL     1      -2.189  12.776  20.763  0.00  0.00    +0.000 C 
BRANCH  10  19
ATOM     18  C   UNL     1      -4.647  15.548  22.113  0.00  0.00    +0.000 C 
ATOM     19  O   UNL     1      -3.595  15.056  21.280  0.00  0.00    +0.000 OA
ENDBRANCH  10  19
ENDBRANCH   7  15
ENDBRANCH   1   7
BRANCH   5  20
ATOM     20  C   UNL     1       2.476   5.801  20.135  0.00  0.00    +0.000 C 
BRANCH  20  21
ATOM     21  N   UNL     1       3.939   5.661  20.052  0.00  0.00    +0.000 N 
ATOM     22  C   UNL     1       4.521   5.247  18.905  0.00  0.00    +0.000 A 
ATOM     23  N   UNL     1       3.978   5.023  17.733  0.00  0.00    +0.000 NA
ATOM     24  C   UNL     1       5.016   4.707  16.905  0.00  0.00    +0.000 A 
ATOM     25  N   UNL     1       4.899   4.461  15.582  0.00  0.00    +0.000 NA
ATOM     26  C   UNL     1       6.070   4.197  14.957  0.00  0.00    +0.000 A 
ATOM     27  C   UNL     1       5.999   3.944  13.477  0.00  0.00    +0.000 C 
ATOM     28  C   UNL     1       7.319   4.159  15.589  0.00  0.00    +0.000 A 
ATOM     29  C   UNL     1       7.423   4.416  16.956  0.00  0.00    +0.000 A 
ATOM     30  C   UNL     1       6.221   4.700  17.586  0.00  0.00    +0.000 A 
ATOM     31  N   UNL     1       5.881   5.036  18.871  0.00  0.00    +0.000 N 
ATOM     32  H   UNL     1       4.356   5.363  20.930  0.00  0.00    +0.000 HD
ATOM     33  H   UNL     1       6.515   5.167  19.640  0.00  0.00    +0.000 HD
ENDBRANCH  20  21
BRANCH  20  34
ATOM     34  C   UNL     1       1.719   4.614  19.499  0.00  0.00    +0.000 C 
BRANCH  34  35
ATOM     35  C   UNL     1       1.432   3.569  20.493  0.00  0.00    +0.000 C 
ATOM     36  N   UNL     1       1.185   2.740  21.267  0.00  0.00    +0.000 NA
ENDBRANCH  34  35
ENDBRANCH  20  34
ENDBRANCH   5  20
TORSDOF 7
ENDMDL
MODEL 6
REMARK VINA RESULT:      -7.7      2.480      4.045
REMARK  Name = 
REMARK  9 active torsions:
REMARK  status: ('A' for Active; 'I' for Inactive)
REMARK    1  A    between atoms: C_1  and  O_2
REMARK    2  A    between atoms: O_2  and  C_3
REMARK    3  A    between atoms: C_8  and  S_9
REMARK    4  A    between atoms: S_9  and  C_12
REMARK    5  A    between atoms: C_16  and  C_17
REMARK    6  A    between atoms: C_17  and  C_18
REMARK    7  A    between atoms: C_17  and  N_21
REMARK    8  A    between atoms: C_18  and  C_19
REMARK    9  A    between atoms: C_26  and  C_27
REMARK                            x       y       z     vdW  Elec       q    Type
REMARK                         _______ _______ _______ _____ _____    ______ ____
ROOT
ATOM      1  C   UNL     1      -1.932  11.705  19.517  0.00  0.00    +0.000 A 
ATOM      2  C   UNL     1      -2.446  11.457  18.245  0.00  0.00    +0.000 A 
ATOM      3  C   UNL     1      -1.853  10.473  17.458  0.00  0.00    +0.000 A 
ATOM      4  C   UNL     1      -0.717   9.792  17.914  0.00  0.00    +0.000 A 
ATOM      5  C   UNL     1      -0.123  10.118  19.147  0.00  0.00    +0.000 A 
ATOM      6  C   UNL     1      -0.767  11.073  19.951  0.00  0.00    +0.000 A 
ENDROOT
BRANCH   1   7
ATOM      7  S   UNL     1      -2.729  12.873  20.590  0.00  0.00    +0.000 S 
ATOM      8  O   UNL     1      -4.149  12.788  20.306  0.00  0.00    +0.000 OA
ATOM      9  O   UNL     1      -2.044  14.142  20.415  0.00  0.00    +0.000 OA
BRANCH   7  15
ATOM     10  C   UNL     1      -1.717  15.241  25.195  0.00  0.00    +0.000 C 
ATOM     11  O   UNL     1      -2.604  15.536  25.993  0.00  0.00    +0.000 OA
ATOM     12  N   UNL     1      -1.938  14.533  24.030  0.00  0.00    +0.000 N 
ATOM     13  C   UNL     1      -3.305  14.212  23.647  0.00  0.00    +0.000 C 
ATOM     14  C   UNL     1      -3.421  12.730  23.314  0.00  0.00    +0.000 C 
ATOM     15  C   UNL     1      -2.398  12.286  22.262  0.00  0.00    +0.000 C 
ATOM     16  C   UNL     1      -0.982  12.695  22.706  0.00  0.00    +0.000 C 
ATOM     17  C   UNL     1      -0.887  14.175  23.081  0.00  0.00    +0.000 C 
BRANCH  10  19
ATOM     18  C   UNL     1      -0.117  16.951  25.379  0.00  0.00    +0.000 C 
ATOM     19  O   UNL     1      -0.406  15.551  25.387  0.00  0.00    +0.000 OA
ENDBRANCH  10  19
ENDBRANCH   7  15
ENDBRANCH   1   7
BRANCH   5  20
ATOM     20  C   UNL     1       1.170   9.432  19.597  0.00  0.00    +0.000 C 
BRANCH  20  21
ATOM     21  N   UNL     1       1.902   8.857  18.455  0.00  0.00    +0.000 N 
ATOM     22  C   UNL     1       2.524   7.663  18.574  0.00  0.00    +0.000 A 
ATOM     23  N   UNL     1       2.511   6.817  19.575  0.00  0.00    +0.000 NA
ATOM     24  C   UNL     1       3.231   5.738  19.151  0.00  0.00    +0.000 A 
ATOM     25  N   UNL     1       3.413   4.605  19.862  0.00  0.00    +0.000 NA
ATOM     26  C   UNL     1       4.141   3.656  19.226  0.00  0.00    +0.000 A 
ATOM     27  C   UNL     1       4.349   2.364  19.964  0.00  0.00    +0.000 C 
ATOM     28  C   UNL     1       4.686   3.799  17.944  0.00  0.00    +0.000 A 
ATOM     29  C   UNL     1       4.487   4.975  17.222  0.00  0.00    +0.000 A 
ATOM     30  C   UNL     1       3.731   5.936  17.874  0.00  0.00    +0.000 A 
ATOM     31  N   UNL     1       3.277   7.183  17.527  0.00  0.00    +0.000 N 
ATOM     32  H   UNL     1       2.340   9.565  17.872  0.00  0.00    +0.000 HD
ATOM     33  H   UNL     1       3.415   7.641  16.644  0.00  0.00    +0.000 HD
ENDBRANCH  20  21
BRANCH  20  34
ATOM     34  C   UNL     1       0.983   8.431  20.758  0.00  0.00    +0.000 C 
BRANCH  34  35
ATOM     35  C   UNL     1       1.019   9.111  22.061  0.00  0.00    +0.000 C 
ATOM     36  N   UNL     1       1.027   9.640  23.095  0.00  0.00    +0.000 NA
ENDBRANCH  34  35
ENDBRANCH  20  34
ENDBRANCH   5  20
TORSDOF 7
ENDMDL
MODEL 7
REMARK VINA RESULT:      -7.6      4.172     10.466
REMARK  Name = 
REMARK  9 active torsions:
REMARK  status: ('A' for Active; 'I' for Inactive)
REMARK    1  A    between atoms: C_1  and  O_2
REMARK    2  A    between atoms: O_2  and  C_3
REMARK    3  A    between atoms: C_8  and  S_9
REMARK    4  A    between atoms: S_9  and  C_12
REMARK    5  A    between atoms: C_16  and  C_17
REMARK    6  A    between atoms: C_17  and  C_18
REMARK    7  A    between atoms: C_17  and  N_21
REMARK    8  A    between atoms: C_18  and  C_19
REMARK    9  A    between atoms: C_26  and  C_27
REMARK                            x       y       z     vdW  Elec       q    Type
REMARK                         _______ _______ _______ _____ _____    ______ ____
ROOT
ATOM      1  C   UNL     1       1.698   7.439  20.332  0.00  0.00    +0.000 A 
ATOM      2  C   UNL     1       1.301   7.635  21.654  0.00  0.00    +0.000 A 
ATOM      3  C   UNL     1       0.673   8.830  22.000  0.00  0.00    +0.000 A 
ATOM      4  C   UNL     1       0.505   9.842  21.046  0.00  0.00    +0.000 A 
ATOM      5  C   UNL     1       1.008   9.697  19.739  0.00  0.00    +0.000 A 
ATOM      6  C   UNL     1       1.587   8.465  19.394  0.00  0.00    +0.000 A 
ENDROOT
BRANCH   1   7
ATOM      7  S   UNL     1       2.399   5.887  19.832  0.00  0.00    +0.000 S 
ATOM      8  O   UNL     1       1.532   4.854  20.366  0.00  0.00    +0.000 OA
ATOM      9  O   UNL     1       3.798   5.912  20.223  0.00  0.00    +0.000 OA
BRANCH   7  15
ATOM     10  C   UNL     1       5.664   4.303  16.002  0.00  0.00    +0.000 C 
ATOM     11  O   UNL     1       5.618   3.173  15.522  0.00  0.00    +0.000 OA
ATOM     12  N   UNL     1       4.762   4.780  16.933  0.00  0.00    +0.000 N 
ATOM     13  C   UNL     1       3.763   3.871  17.477  0.00  0.00    +0.000 C 
ATOM     14  C   UNL     1       2.379   4.500  17.385  0.00  0.00    +0.000 C 
ATOM     15  C   UNL     1       2.323   5.888  18.031  0.00  0.00    +0.000 C 
ATOM     16  C   UNL     1       3.430   6.782  17.445  0.00  0.00    +0.000 C 
ATOM     17  C   UNL     1       4.810   6.123  17.502  0.00  0.00    +0.000 C 
BRANCH  10  19
ATOM     18  C   UNL     1       7.180   5.021  14.357  0.00  0.00    +0.000 C 
ATOM     19  O   UNL     1       6.596   5.228  15.645  0.00  0.00    +0.000 OA
ENDBRANCH  10  19
ENDBRANCH   7  15
ENDBRANCH   1   7
BRANCH   5  20
ATOM     20  C   UNL     1       0.900  10.844  18.730  0.00  0.00    +0.000 C 
BRANCH  20  21
ATOM     21  N   UNL     1      -0.174  10.603  17.751  0.00  0.00    +0.000 N 
ATOM     22  C   UNL     1      -1.447  10.960  18.034  0.00  0.00    +0.000 A 
ATOM     23  N   UNL     1      -1.913  11.620  19.065  0.00  0.00    +0.000 NA
ATOM     24  C   UNL     1      -3.246  11.785  18.820  0.00  0.00    +0.000 A 
ATOM     25  N   UNL     1      -4.097  12.472  19.613  0.00  0.00    +0.000 NA
ATOM     26  C   UNL     1      -5.369  12.527  19.153  0.00  0.00    +0.000 A 
ATOM     27  C   UNL     1      -6.350  13.304  19.985  0.00  0.00    +0.000 C 
ATOM     28  C   UNL     1      -5.813  11.928  17.968  0.00  0.00    +0.000 A 
ATOM     29  C   UNL     1      -4.922  11.223  17.160  0.00  0.00    +0.000 A 
ATOM     30  C   UNL     1      -3.618  11.182  17.630  0.00  0.00    +0.000 A 
ATOM     31  N   UNL     1      -2.452  10.647  17.147  0.00  0.00    +0.000 N 
ATOM     32  H   UNL     1      -0.028   9.757  17.207  0.00  0.00    +0.000 HD
ATOM     33  H   UNL     1      -2.335  10.166  16.273  0.00  0.00    +0.000 HD
ENDBRANCH  20  21
BRANCH  20  34
ATOM     34  C   UNL     1       2.241  11.231  18.068  0.00  0.00    +0.000 C 
BRANCH  34  35
ATOM     35  C   UNL     1       2.447  12.686  18.088  0.00  0.00    +0.000 C 
ATOM     36  N   UNL     1       2.631  13.832  18.112  0.00  0.00    +0.000 NA
ENDBRANCH  34  35
ENDBRANCH  20  34
ENDBRANCH   5  20
TORSDOF 7
ENDMDL
MODEL 8
REMARK VINA RESULT:      -7.6      5.322      8.192
REMARK  Name = 
REMARK  9 active torsions:
REMARK  status: ('A' for Active; 'I' for Inactive)
REMARK    1  A    between atoms: C_1  and  O_2
REMARK    2  A    between atoms: O_2  and  C_3
REMARK    3  A    between atoms: C_8  and  S_9
REMARK    4  A    between atoms: S_9  and  C_12
REMARK    5  A    between atoms: C_16  and  C_17
REMARK    6  A    between atoms: C_17  and  C_18
REMARK    7  A    between atoms: C_17  and  N_21
REMARK    8  A    between atoms: C_18  and  C_19
REMARK    9  A    between atoms: C_26  and  C_27
REMARK                            x       y       z     vdW  Elec       q    Type
REMARK                         _______ _______ _______ _____ _____    ______ ____
ROOT
ATOM      1  C   UNL     1       1.848  15.909  19.035  0.00  0.00    +0.000 A 
ATOM      2  C   UNL     1       0.846  16.871  19.146  0.00  0.00    +0.000 A 
ATOM      3  C   UNL     1      -0.453  16.462  19.440  0.00  0.00    +0.000 A 
ATOM      4  C   UNL     1      -0.755  15.099  19.554  0.00  0.00    +0.000 A 
ATOM      5  C   UNL     1       0.227  14.117  19.328  0.00  0.00    +0.000 A 
ATOM      6  C   UNL     1       1.541  14.549  19.090  0.00  0.00    +0.000 A 
ENDROOT
BRANCH   1   7
ATOM      7  S   UNL     1       3.534  16.401  18.772  0.00  0.00    +0.000 S 
ATOM      8  O   UNL     1       3.791  17.491  19.694  0.00  0.00    +0.000 OA
ATOM      9  O   UNL     1       3.690  16.626  17.346  0.00  0.00    +0.000 OA
BRANCH   7  15
ATOM     10  C   UNL     1       8.714  15.455  19.109  0.00  0.00    +0.000 C 
ATOM     11  O   UNL     1       9.346  15.614  20.150  0.00  0.00    +0.000 OA
ATOM     12  N   UNL     1       7.343  15.598  19.014  0.00  0.00    +0.000 N 
ATOM     13  C   UNL     1       6.601  16.078  20.171  0.00  0.00    +0.000 C 
ATOM     14  C   UNL     1       5.419  15.160  20.452  0.00  0.00    +0.000 C 
ATOM     15  C   UNL     1       4.525  14.964  19.223  0.00  0.00    +0.000 C 
ATOM     16  C   UNL     1       5.376  14.501  18.027  0.00  0.00    +0.000 C 
ATOM     17  C   UNL     1       6.586  15.404  17.780  0.00  0.00    +0.000 C 
BRANCH  10  19
ATOM     18  C   UNL     1      10.678  15.413  17.821  0.00  0.00    +0.000 C 
ATOM     19  O   UNL     1       9.291  15.087  17.933  0.00  0.00    +0.000 OA
ENDBRANCH  10  19
ENDBRANCH   7  15
ENDBRANCH   1   7
BRANCH   5  20
ATOM     20  C   UNL     1      -0.134  12.628  19.367  0.00  0.00    +0.000 C 
BRANCH  20  21
ATOM     21  N   UNL     1       0.610  11.866  18.349  0.00  0.00    +0.000 N 
ATOM     22  C   UNL     1       1.100  10.640  18.638  0.00  0.00    +0.000 A 
ATOM     23  N   UNL     1       0.935   9.914  19.716  0.00  0.00    +0.000 NA
ATOM     24  C   UNL     1       1.569   8.733  19.461  0.00  0.00    +0.000 A 
ATOM     25  N   UNL     1       1.589   7.672  20.297  0.00  0.00    +0.000 NA
ATOM     26  C   UNL     1       2.257   6.596  19.818  0.00  0.00    +0.000 A 
ATOM     27  C   UNL     1       2.286   5.378  20.699  0.00  0.00    +0.000 C 
ATOM     28  C   UNL     1       2.898   6.545  18.575  0.00  0.00    +0.000 A 
ATOM     29  C   UNL     1       2.867   7.649  17.723  0.00  0.00    +0.000 A 
ATOM     30  C   UNL     1       2.170   8.742  18.213  0.00  0.00    +0.000 A 
ATOM     31  N   UNL     1       1.868   9.980  17.706  0.00  0.00    +0.000 N 
ATOM     32  H   UNL     1       1.156  12.462  17.732  0.00  0.00    +0.000 HD
ATOM     33  H   UNL     1       2.110  10.324  16.794  0.00  0.00    +0.000 HD
ENDBRANCH  20  21
BRANCH  20  34
ATOM     34  C   UNL     1      -1.652  12.346  19.341  0.00  0.00    +0.000 C 
BRANCH  34  35
ATOM     35  C   UNL     1      -2.067  11.770  18.054  0.00  0.00    +0.000 C 
ATOM     36  N   UNL     1      -2.406  11.298  17.049  0.00  0.00    +0.000 NA
ENDBRANCH  34  35
ENDBRANCH  20  34
ENDBRANCH   5  20
TORSDOF 7
ENDMDL
MODEL 9
REMARK VINA RESULT:      -7.5      2.725      4.661
REMARK  Name = 
REMARK  9 active torsions:
REMARK  status: ('A' for Active; 'I' for Inactive)
REMARK    1  A    between atoms: C_1  and  O_2
REMARK    2  A    between atoms: O_2  and  C_3
REMARK    3  A    between atoms: C_8  and  S_9
REMARK    4  A    between atoms: S_9  and  C_12
REMARK    5  A    between atoms: C_16  and  C_17
REMARK    6  A    between atoms: C_17  and  C_18
REMARK    7  A    between atoms: C_17  and  N_21
REMARK    8  A    between atoms: C_18  and  C_19
REMARK    9  A    between atoms: C_26  and  C_27
REMARK                            x       y       z     vdW  Elec       q    Type
REMARK                         _______ _______ _______ _____ _____    ______ ____
ROOT
ATOM      1  C   UNL     1       0.168  13.368  21.243  0.00  0.00    +0.000 A 
ATOM      2  C   UNL     1       1.102  14.173  20.592  0.00  0.00    +0.000 A 
ATOM      3  C   UNL     1       1.728  13.687  19.446  0.00  0.00    +0.000 A 
ATOM      4  C   UNL     1       1.471  12.386  18.997  0.00  0.00    +0.000 A 
ATOM      5  C   UNL     1       0.618  11.527  19.715  0.00  0.00    +0.000 A 
ATOM      6  C   UNL     1      -0.048  12.052  20.834  0.00  0.00    +0.000 A 
ENDROOT
BRANCH   1   7
ATOM      7  S   UNL     1      -0.731  13.994  22.640  0.00  0.00    +0.000 S 
ATOM      8  O   UNL     1       0.108  15.010  23.245  0.00  0.00    +0.000 OA
ATOM      9  O   UNL     1      -1.136  12.844  23.430  0.00  0.00    +0.000 OA
BRANCH   7  15
ATOM     10  C   UNL     1      -5.902  13.064  23.120  0.00  0.00    +0.000 C 
ATOM     11  O   UNL     1      -6.596  13.621  23.967  0.00  0.00    +0.000 OA
ATOM     12  N   UNL     1      -4.570  13.358  22.904  0.00  0.00    +0.000 N 
ATOM     13  C   UNL     1      -3.900  14.293  23.796  0.00  0.00    +0.000 C 
ATOM     14  C   UNL     1      -3.168  15.355  22.988  0.00  0.00    +0.000 C 
ATOM     15  C   UNL     1      -2.216  14.749  21.951  0.00  0.00    +0.000 C 
ATOM     16  C   UNL     1      -2.976  13.740  21.072  0.00  0.00    +0.000 C 
ATOM     17  C   UNL     1      -3.743  12.704  21.894  0.00  0.00    +0.000 C 
BRANCH  10  19
ATOM     18  C   UNL     1      -7.562  12.484  21.561  0.00  0.00    +0.000 C 
ATOM     19  O   UNL     1      -6.379  12.112  22.272  0.00  0.00    +0.000 OA
ENDBRANCH  10  19
ENDBRANCH   7  15
ENDBRANCH   1   7
BRANCH   5  20
ATOM     20  C   UNL     1       0.412  10.076  19.267  0.00  0.00    +0.000 C 
BRANCH  20  21
ATOM     21  N   UNL     1       1.371   9.695  18.215  0.00  0.00    +0.000 N 
ATOM     22  C   UNL     1       2.105   8.567  18.337  0.00  0.00    +0.000 A 
ATOM     23  N   UNL     1       2.041   7.631  19.252  0.00  0.00    +0.000 NA
ATOM     24  C   UNL     1       2.939   6.680  18.864  0.00  0.00    +0.000 A 
ATOM     25  N   UNL     1       3.145   5.507  19.502  0.00  0.00    +0.000 NA
ATOM     26  C   UNL     1       4.067   4.707  18.917  0.00  0.00    +0.000 A 
ATOM     27  C   UNL     1       4.313   3.377  19.573  0.00  0.00    +0.000 C 
ATOM     28  C   UNL     1       4.779   5.030  17.756  0.00  0.00    +0.000 A 
ATOM     29  C   UNL     1       4.554   6.244  17.108  0.00  0.00    +0.000 A 
ATOM     30  C   UNL     1       3.599   7.052  17.705  0.00  0.00    +0.000 A 
ATOM     31  N   UNL     1       3.059   8.273  17.390  0.00  0.00    +0.000 N 
ATOM     32  H   UNL     1       1.805  10.499  17.770  0.00  0.00    +0.000 HD
ATOM     33  H   UNL     1       3.273   8.828  16.580  0.00  0.00    +0.000 HD
ENDBRANCH  20  21
BRANCH  20  34
ATOM     34  C   UNL     1      -1.048   9.729  18.905  0.00  0.00    +0.000 C 
BRANCH  34  35
ATOM     35  C   UNL     1      -1.624  10.723  17.988  0.00  0.00    +0.000 C 
ATOM     36  N   UNL     1      -2.078  11.524  17.281  0.00  0.00    +0.000 NA
ENDBRANCH  34  35
ENDBRANCH  20  34
ENDBRANCH   5  20
TORSDOF 7
ENDMDL
