MODEL 1
REMARK VINA RESULT:      -7.8      0.000      0.000
REMARK  Name = 
REMARK  10 active torsions:
REMARK  status: ('A' for Active; 'I' for Inactive)
REMARK    1  A    between atoms: C_2  and  C_4
REMARK    2  A    between atoms: C_9  and  C_10
REMARK    3  A    between atoms: C_13  and  O_14
REMARK    4  A    between atoms: O_14  and  C_15
REMARK    5  A    between atoms: C_15  and  C_16
REMARK    6  A    between atoms: C_16  and  C_17
REMARK    7  A    between atoms: C_17  and  C_18
REMARK    8  A    between atoms: C_18  and  C_19
REMARK    9  A    between atoms: C_19  and  O_20
REMARK   10  A    between atoms: O_20  and  C_21
REMARK                            x       y       z     vdW  Elec       q    Type
REMARK                         _______ _______ _______ _____ _____    ______ ____
ROOT
ATOM      1  C   UNL     1       1.282   8.961  19.750  0.00  0.00    +0.000 A 
ATOM      2  C   UNL     1       1.606   9.342  18.447  0.00  0.00    +0.000 A 
ATOM      3  C   UNL     1       2.404   8.533  17.649  0.00  0.00    +0.000 A 
ATOM      4  C   UNL     1       2.896   7.320  18.133  0.00  0.00    +0.000 A 
ATOM      5  C   UNL     1       2.605   6.942  19.444  0.00  0.00    +0.000 A 
ATOM      6  C   UNL     1       1.803   7.759  20.250  0.00  0.00    +0.000 A 
ENDROOT
BRANCH   1  12
ATOM      7  C   UNL     1      -2.506  12.447  22.844  0.00  0.00    +0.000 A 
ATOM      8  C   UNL     1      -2.568  13.053  21.581  0.00  0.00    +0.000 A 
ATOM      9  C   UNL     1      -1.804  12.570  20.511  0.00  0.00    +0.000 A 
ATOM     10  C   UNL     1      -1.001  11.463  20.786  0.00  0.00    +0.000 A 
ATOM     11  O   UNL     1      -0.198  10.835  19.894  0.00  0.00    +0.000 OA
ATOM     12  C   UNL     1       0.401   9.793  20.550  0.00  0.00    +0.000 A 
ATOM     13  C   UNL     1      -0.017   9.766  21.862  0.00  0.00    +0.000 A 
ATOM     14  C   UNL     1      -0.917  10.842  22.020  0.00  0.00    +0.000 A 
ATOM     15  C   UNL     1      -1.675  11.345  23.081  0.00  0.00    +0.000 A 
BRANCH   7  17
ATOM     16  N   UNL     1      -3.125  14.145  24.415  0.00  0.00    +0.000 NA
ATOM     17  C   UNL     1      -3.328  12.950  23.970  0.00  0.00    +0.000 C 
ATOM     18  N   UNL     1      -4.265  12.145  24.546  0.00  0.00    +0.000 N 
ATOM     19  H   UNL     1      -3.782  14.357  25.166  0.00  0.00    +0.000 HD
ATOM     20  H   UNL     1      -4.536  12.404  25.487  0.00  0.00    +0.000 HD
ATOM     21  H   UNL     1      -4.086  11.148  24.473  0.00  0.00    +0.000 HD
ENDBRANCH   7  17
ENDBRANCH   1  12
BRANCH   4  22
ATOM     22  O   UNL     1       3.654   6.448  17.396  0.00  0.00    +0.000 OA
BRANCH  22  23
ATOM     23  C   UNL     1       4.618   7.086  16.553  0.00  0.00    +0.000 C 
BRANCH  23  24
ATOM     24  C   UNL     1       5.928   6.324  16.573  0.00  0.00    +0.000 C 
BRANCH  24  25
ATOM     25  C   UNL     1       6.792   6.689  17.780  0.00  0.00    +0.000 C 
BRANCH  25  26
ATOM     26  C   UNL     1       7.056   5.487  18.684  0.00  0.00    +0.000 C 
BRANCH  26  27
ATOM     27  C   UNL     1       5.800   5.039  19.423  0.00  0.00    +0.000 C 
BRANCH  27  28
ATOM     28  O   UNL     1       5.536   3.679  19.100  0.00  0.00    +0.000 OA
BRANCH  28  29
ATOM     29  C   UNL     1       4.211   3.384  18.920  0.00  0.00    +0.000 A 
ATOM     30  C   UNL     1       3.422   3.500  20.060  0.00  0.00    +0.000 A 
ATOM     31  C   UNL     1       2.058   3.217  20.005  0.00  0.00    +0.000 A 
ATOM     32  C   UNL     1       1.472   2.834  18.800  0.00  0.00    +0.000 A 
ATOM     33  C   UNL     1       2.249   2.743  17.648  0.00  0.00    +0.000 A 
ATOM     34  C   UNL     1       3.617   3.019  17.705  0.00  0.00    +0.000 A 
ENDBRANCH  28  29
ENDBRANCH  27  28
ENDBRANCH  26  27
ENDBRANCH  25  26
ENDBRANCH  24  25
ENDBRANCH  23  24
ENDBRANCH  22  23
ENDBRANCH   4  22
TORSDOF 10
ENDMDL
MODEL 2
REMARK VINA RESULT:      -7.8      1.100      1.558
REMARK  Name = 
REMARK  10 active torsions:
REMARK  status: ('A' for Active; 'I' for Inactive)
REMARK    1  A    between atoms: C_2  and  C_4
REMARK    2  A    between atoms: C_9  and  C_10
REMARK    3  A    between atoms: C_13  and  O_14
REMARK    4  A    between atoms: O_14  and  C_15
REMARK    5  A    between atoms: C_15  and  C_16
REMARK    6  A    between atoms: C_16  and  C_17
REMARK    7  A    between atoms: C_17  and  C_18
REMARK    8  A    between atoms: C_18  and  C_19
REMARK    9  A    between atoms: C_19  and  O_20
REMARK   10  A    between atoms: O_20  and  C_21
REMARK                            x       y       z     vdW  Elec       q    Type
REMARK                         _______ _______ _______ _____ _____    ______ ____
ROOT
ATOM      1  C   UNL     1       1.167   8.952  19.890  0.00  0.00    +0.000 A 
ATOM      2  C   UNL     1       1.526   9.351  18.602  0.00  0.00    +0.000 A 
ATOM      3  C   UNL     1       2.332   8.545  17.809  0.00  0.00    +0.000 A 
ATOM      4  C   UNL     1       2.796   7.318  18.283  0.00  0.00    +0.000 A 
ATOM      5  C   UNL     1       2.470   6.922  19.580  0.00  0.00    +0.000 A 
ATOM      6  C   UNL     1       1.660   7.736  20.381  0.00  0.00    +0.000 A 
ENDROOT
BRANCH   1  12
ATOM      7  C   UNL     1      -2.664  12.414  22.960  0.00  0.00    +0.000 A 
ATOM      8  C   UNL     1      -2.807  12.947  21.672  0.00  0.00    +0.000 A 
ATOM      9  C   UNL     1      -2.063  12.445  20.596  0.00  0.00    +0.000 A 
ATOM     10  C   UNL     1      -1.195  11.393  20.892  0.00  0.00    +0.000 A 
ATOM     11  O   UNL     1      -0.399  10.758  20.000  0.00  0.00    +0.000 OA
ATOM     12  C   UNL     1       0.278   9.783  20.683  0.00  0.00    +0.000 A 
ATOM     13  C   UNL     1      -0.085   9.807  22.012  0.00  0.00    +0.000 A 
ATOM     14  C   UNL     1      -1.030  10.845  22.152  0.00  0.00    +0.000 A 
ATOM     15  C   UNL     1      -1.769  11.367  23.218  0.00  0.00    +0.000 A 
BRANCH   7  17
ATOM     16  N   UNL     1      -3.199  14.109  24.564  0.00  0.00    +0.000 NA
ATOM     17  C   UNL     1      -3.464  12.936  24.093  0.00  0.00    +0.000 C 
ATOM     18  N   UNL     1      -4.445  12.170  24.648  0.00  0.00    +0.000 N 
ATOM     19  H   UNL     1      -3.848  14.340  25.317  0.00  0.00    +0.000 HD
ATOM     20  H   UNL     1      -4.707  12.424  25.593  0.00  0.00    +0.000 HD
ATOM     21  H   UNL     1      -4.319  11.167  24.555  0.00  0.00    +0.000 HD
ENDBRANCH   7  17
ENDBRANCH   1  12
BRANCH   4  22
ATOM     22  O   UNL     1       3.561   6.448  17.549  0.00  0.00    +0.000 OA
BRANCH  22  23
ATOM     23  C   UNL     1       4.823   6.984  17.144  0.00  0.00    +0.000 C 
BRANCH  23  24
ATOM     24  C   UNL     1       5.366   6.223  15.951  0.00  0.00    +0.000 C 
BRANCH  24  25
ATOM     25  C   UNL     1       4.812   4.799  15.872  0.00  0.00    +0.000 C 
BRANCH  25  26
ATOM     26  C   UNL     1       5.430   3.881  16.923  0.00  0.00    +0.000 C 
BRANCH  26  27
ATOM     27  C   UNL     1       4.447   2.822  17.409  0.00  0.00    +0.000 C 
BRANCH  27  28
ATOM     28  O   UNL     1       3.171   3.425  17.590  0.00  0.00    +0.000 OA
BRANCH  28  29
ATOM     29  C   UNL     1       2.655   3.298  18.852  0.00  0.00    +0.000 A 
ATOM     30  C   UNL     1       1.283   3.504  18.951  0.00  0.00    +0.000 A 
ATOM     31  C   UNL     1       0.643   3.411  20.185  0.00  0.00    +0.000 A 
ATOM     32  C   UNL     1       1.372   3.091  21.328  0.00  0.00    +0.000 A 
ATOM     33  C   UNL     1       2.742   2.855  21.233  0.00  0.00    +0.000 A 
ATOM     34  C   UNL     1       3.385   2.956  19.998  0.00  0.00    +0.000 A 
ENDBRANCH  28  29
ENDBRANCH  27  28
ENDBRANCH  26  27
ENDBRANCH  25  26
ENDBRANCH  24  25
ENDBRANCH  23  24
ENDBRANCH  22  23
ENDBRANCH   4  22
TORSDOF 10
ENDMDL
MODEL 3
REMARK VINA RESULT:      -7.7      1.274      1.824
REMARK  Name = 
REMARK  10 active torsions:
REMARK  status: ('A' for Active; 'I' for Inactive)
REMARK    1  A    between atoms: C_2  and  C_4
REMARK    2  A    between atoms: C_9  and  C_10
REMARK    3  A    between atoms: C_13  and  O_14
REMARK    4  A    between atoms: O_14  and  C_15
REMARK    5  A    between atoms: C_15  and  C_16
REMARK    6  A    between atoms: C_16  and  C_17
REMARK    7  A    between atoms: C_17  and  C_18
REMARK    8  A    between atoms: C_18  and  C_19
REMARK    9  A    between atoms: C_19  and  O_20
REMARK   10  A    between atoms: O_20  and  C_21
REMARK                            x       y       z     vdW  Elec       q    Type
REMARK                         _______ _______ _______ _____ _____    ______ ____
ROOT
ATOM      1  C   UNL     1       0.500   9.621  20.528  0.00  0.00    +0.000 A 
ATOM      2  C   UNL     1       0.869   9.859  19.204  0.00  0.00    +0.000 A 
ATOM      3  C   UNL     1       1.670   8.957  18.517  0.00  0.00    +0.000 A 
ATOM      4  C   UNL     1       2.119   7.790  19.138  0.00  0.00    +0.000 A 
ATOM      5  C   UNL     1       1.782   7.555  20.471  0.00  0.00    +0.000 A 
ATOM      6  C   UNL     1       0.978   8.467  21.164  0.00  0.00    +0.000 A 
ENDROOT
BRANCH   1  12
ATOM      7  C   UNL     1      -3.317  13.448  23.150  0.00  0.00    +0.000 A 
ATOM      8  C   UNL     1      -3.527  13.757  21.798  0.00  0.00    +0.000 A 
ATOM      9  C   UNL     1      -2.810  13.101  20.788  0.00  0.00    +0.000 A 
ATOM     10  C   UNL     1      -1.898  12.136  21.216  0.00  0.00    +0.000 A 
ATOM     11  O   UNL     1      -1.117  11.381  20.407  0.00  0.00    +0.000 OA
ATOM     12  C   UNL     1      -0.384  10.549  21.211  0.00  0.00    +0.000 A 
ATOM     13  C   UNL     1      -0.695  10.785  22.533  0.00  0.00    +0.000 A 
ATOM     14  C   UNL     1      -1.667  11.809  22.541  0.00  0.00    +0.000 A 
ATOM     15  C   UNL     1      -2.380  12.482  23.537  0.00  0.00    +0.000 A 
BRANCH   7  17
ATOM     16  N   UNL     1      -3.501  14.431  25.325  0.00  0.00    +0.000 NA
ATOM     17  C   UNL     1      -4.089  14.131  24.214  0.00  0.00    +0.000 C 
ATOM     18  N   UNL     1      -5.410  14.408  24.031  0.00  0.00    +0.000 N 
ATOM     19  H   UNL     1      -4.149  14.920  25.944  0.00  0.00    +0.000 HD
ATOM     20  H   UNL     1      -5.943  14.549  24.881  0.00  0.00    +0.000 HD
ATOM     21  H   UNL     1      -5.898  13.795  23.385  0.00  0.00    +0.000 HD
ENDBRANCH   7  17
ENDBRANCH   1  12
BRANCH   4  22
ATOM     22  O   UNL     1       2.877   6.831  18.517  0.00  0.00    +0.000 OA
BRANCH  22  23
ATOM     23  C   UNL     1       3.679   7.330  17.444  0.00  0.00    +0.000 C 
BRANCH  23  24
ATOM     24  C   UNL     1       5.009   6.605  17.393  0.00  0.00    +0.000 C 
BRANCH  24  25
ATOM     25  C   UNL     1       5.221   5.877  16.065  0.00  0.00    +0.000 C 
BRANCH  25  26
ATOM     26  C   UNL     1       5.324   4.365  16.247  0.00  0.00    +0.000 C 
BRANCH  26  27
ATOM     27  C   UNL     1       4.018   3.757  16.746  0.00  0.00    +0.000 C 
BRANCH  27  28
ATOM     28  O   UNL     1       4.236   3.188  18.031  0.00  0.00    +0.000 OA
BRANCH  28  29
ATOM     29  C   UNL     1       3.170   3.287  18.886  0.00  0.00    +0.000 A 
ATOM     30  C   UNL     1       1.979   2.752  18.407  0.00  0.00    +0.000 A 
ATOM     31  C   UNL     1       0.822   2.800  19.182  0.00  0.00    +0.000 A 
ATOM     32  C   UNL     1       0.856   3.370  20.453  0.00  0.00    +0.000 A 
ATOM     33  C   UNL     1       2.051   3.882  20.952  0.00  0.00    +0.000 A 
ATOM     34  C   UNL     1       3.209   3.840  20.172  0.00  0.00    +0.000 A 
ENDBRANCH  28  29
ENDBRANCH  27  28
ENDBRANCH  26  27
ENDBRANCH  25  26
ENDBRANCH  24  25
ENDBRANCH  23  24
ENDBRANCH  22  23
ENDBRANCH   4  22
TORSDOF 10
ENDMDL
MODEL 4
REMARK VINA RESULT:      -7.7      5.495      8.962
REMARK  Name = 
REMARK  10 active torsions:
REMARK  status: ('A' for Active; 'I' for Inactive)
REMARK    1  A    between atoms: C_2  and  C_4
REMARK    2  A    between atoms: C_9  and  C_10
REMARK    3  A    between atoms: C_13  and  O_14
REMARK    4  A    between atoms: O_14  and  C_15
REMARK    5  A    between atoms: C_15  and  C_16
REMARK    6  A    between atoms: C_16  and  C_17
REMARK    7  A    between atoms: C_17  and  C_18
REMARK    8  A    between atoms: C_18  and  C_19
REMARK    9  A    between atoms: C_19  and  O_20
REMARK   10  A    between atoms: O_20  and  C_21
REMARK                            x       y       z     vdW  Elec       q    Type
REMARK                         _______ _______ _______ _____ _____    ______ ____
ROOT
ATOM      1  C   UNL     1       7.902   7.961  18.263  0.00  0.00    +0.000 A 
ATOM      2  C   UNL     1       6.857   7.644  17.395  0.00  0.00    +0.000 A 
ATOM      3  C   UNL     1       6.270   6.386  17.419  0.00  0.00    +0.000 A 
ATOM      4  C   UNL     1       6.712   5.413  18.316  0.00  0.00    +0.000 A 
ATOM      5  C   UNL     1       7.777   5.706  19.169  0.00  0.00    +0.000 A 
ATOM      6  C   UNL     1       8.370   6.974  19.142  0.00  0.00    +0.000 A 
ENDROOT
BRANCH   1  12
ATOM      7  C   UNL     1      10.443  13.402  18.367  0.00  0.00    +0.000 A 
ATOM      8  C   UNL     1      11.009  12.830  19.515  0.00  0.00    +0.000 A 
ATOM      9  C   UNL     1      10.675  11.528  19.911  0.00  0.00    +0.000 A 
ATOM     10  C   UNL     1       9.767  10.855  19.093  0.00  0.00    +0.000 A 
ATOM     11  O   UNL     1       9.323   9.590  19.287  0.00  0.00    +0.000 OA
ATOM     12  C   UNL     1       8.464   9.299  18.261  0.00  0.00    +0.000 A 
ATOM     13  C   UNL     1       8.357  10.386  17.420  0.00  0.00    +0.000 A 
ATOM     14  C   UNL     1       9.191  11.392  17.954  0.00  0.00    +0.000 A 
ATOM     15  C   UNL     1       9.523  12.697  17.581  0.00  0.00    +0.000 A 
BRANCH   7  17
ATOM     16  N   UNL     1      10.838  15.720  18.820  0.00  0.00    +0.000 NA
ATOM     17  C   UNL     1      10.811  14.773  17.941  0.00  0.00    +0.000 C 
ATOM     18  N   UNL     1      11.084  15.034  16.632  0.00  0.00    +0.000 N 
ATOM     19  H   UNL     1      11.134  16.594  18.385  0.00  0.00    +0.000 HD
ATOM     20  H   UNL     1      10.989  16.004  16.356  0.00  0.00    +0.000 HD
ATOM     21  H   UNL     1      10.639  14.413  15.963  0.00  0.00    +0.000 HD
ENDBRANCH   7  17
ENDBRANCH   1  12
BRANCH   4  22
ATOM     22  O   UNL     1       6.160   4.164  18.431  0.00  0.00    +0.000 OA
BRANCH  22  23
ATOM     23  C   UNL     1       4.741   4.170  18.611  0.00  0.00    +0.000 C 
BRANCH  23  24
ATOM     24  C   UNL     1       4.284   2.890  19.281  0.00  0.00    +0.000 C 
BRANCH  24  25
ATOM     25  C   UNL     1       2.778   2.880  19.544  0.00  0.00    +0.000 C 
BRANCH  25  26
ATOM     26  C   UNL     1       2.400   3.723  20.759  0.00  0.00    +0.000 C 
BRANCH  26  27
ATOM     27  C   UNL     1       1.634   4.983  20.368  0.00  0.00    +0.000 C 
BRANCH  27  28
ATOM     28  O   UNL     1       2.456   6.117  20.617  0.00  0.00    +0.000 OA
BRANCH  28  29
ATOM     29  C   UNL     1       2.181   7.204  19.831  0.00  0.00    +0.000 A 
ATOM     30  C   UNL     1       2.699   7.145  18.542  0.00  0.00    +0.000 A 
ATOM     31  C   UNL     1       2.493   8.196  17.650  0.00  0.00    +0.000 A 
ATOM     32  C   UNL     1       1.747   9.307  18.040  0.00  0.00    +0.000 A 
ATOM     33  C   UNL     1       1.200   9.361  19.320  0.00  0.00    +0.000 A 
ATOM     34  C   UNL     1       1.414   8.311  20.216  0.00  0.00    +0.000 A 
ENDBRANCH  28  29
ENDBRANCH  27  28
ENDBRANCH  26  27
ENDBRANCH  25  26
ENDBRANCH  24  25
ENDBRANCH  23  24
ENDBRANCH  22  23
ENDBRANCH   4  22
TORSDOF 10
ENDMDL
MODEL 5
REMARK VINA RESULT:      -7.7      5.259      8.806
REMARK  Name = 
REMARK  10 active torsions:
REMARK  status: ('A' for Active; 'I' for Inactive)
REMARK    1  A    between atoms: C_2  and  C_4
REMARK    2  A    between atoms: C_9  and  C_10
REMARK    3  A    between atoms: C_13  and  O_14
REMARK    4  A    between atoms: O_14  and  C_15
REMARK    5  A    between atoms: C_15  and  C_16
REMARK    6  A    between atoms: C_16  and  C_17
REMARK    7  A    between atoms: C_17  and  C_18
REMARK    8  A    between atoms: C_18  and  C_19
REMARK    9  A    between atoms: C_19  and  O_20
REMARK   10  A    between atoms: O_20  and  C_21
REMARK                            x       y       z     vdW  Elec       q    Type
REMARK                         _______ _______ _______ _____ _____    ______ ____
ROOT
ATOM      1  C   UNL     1       7.577   7.696  17.969  0.00  0.00    +0.000 A 
ATOM      2  C   UNL     1       6.447   7.507  17.174  0.00  0.00    +0.000 A 
ATOM      3  C   UNL     1       5.841   6.261  17.085  0.00  0.00    +0.000 A 
ATOM      4  C   UNL     1       6.350   5.172  17.794  0.00  0.00    +0.000 A 
ATOM      5  C   UNL     1       7.499   5.340  18.569  0.00  0.00    +0.000 A 
ATOM      6  C   UNL     1       8.111   6.596  18.655  0.00  0.00    +0.000 A 
ENDROOT
BRANCH   1  12
ATOM      7  C   UNL     1      10.213  13.059  18.577  0.00  0.00    +0.000 A 
ATOM      8  C   UNL     1      10.795  12.362  19.645  0.00  0.00    +0.000 A 
ATOM      9  C   UNL     1      10.449  11.030  19.911  0.00  0.00    +0.000 A 
ATOM     10  C   UNL     1       9.510  10.460  19.050  0.00  0.00    +0.000 A 
ATOM     11  O   UNL     1       9.050   9.189  19.122  0.00  0.00    +0.000 OA
ATOM     12  C   UNL     1       8.163   9.019  18.092  0.00  0.00    +0.000 A 
ATOM     13  C   UNL     1       8.055  10.190  17.373  0.00  0.00    +0.000 A 
ATOM     14  C   UNL     1       8.918  11.121  17.988  0.00  0.00    +0.000 A 
ATOM     15  C   UNL     1       9.263  12.454  17.745  0.00  0.00    +0.000 A 
BRANCH   7  17
ATOM     16  N   UNL     1      10.755  15.286  19.269  0.00  0.00    +0.000 NA
ATOM     17  C   UNL     1      10.594  14.462  18.288  0.00  0.00    +0.000 C 
ATOM     18  N   UNL     1      10.740  14.880  16.999  0.00  0.00    +0.000 N 
ATOM     19  H   UNL     1      11.042  16.200  18.916  0.00  0.00    +0.000 HD
ATOM     20  H   UNL     1      10.659  15.880  16.858  0.00  0.00    +0.000 HD
ATOM     21  H   UNL     1      10.200  14.364  16.311  0.00  0.00    +0.000 HD
ENDBRANCH   7  17
ENDBRANCH   1  12
BRANCH   4  22
ATOM     22  O   UNL     1       5.788   3.922  17.792  0.00  0.00    +0.000 OA
BRANCH  22  23
ATOM     23  C   UNL     1       5.025   3.626  18.965  0.00  0.00    +0.000 C 
BRANCH  23  24
ATOM     24  C   UNL     1       3.697   2.999  18.592  0.00  0.00    +0.000 C 
BRANCH  24  25
ATOM     25  C   UNL     1       3.039   3.701  17.403  0.00  0.00    +0.000 C 
BRANCH  25  26
ATOM     26  C   UNL     1       2.039   4.767  17.845  0.00  0.00    +0.000 C 
BRANCH  26  27
ATOM     27  C   UNL     1       2.255   5.191  19.294  0.00  0.00    +0.000 C 
BRANCH  27  28
ATOM     28  O   UNL     1       3.065   6.360  19.316  0.00  0.00    +0.000 OA
BRANCH  28  29
ATOM     29  C   UNL     1       2.368   7.537  19.262  0.00  0.00    +0.000 A 
ATOM     30  C   UNL     1       2.452   8.216  18.050  0.00  0.00    +0.000 A 
ATOM     31  C   UNL     1       1.793   9.431  17.875  0.00  0.00    +0.000 A 
ATOM     32  C   UNL     1       1.027   9.965  18.910  0.00  0.00    +0.000 A 
ATOM     33  C   UNL     1       0.914   9.278  20.116  0.00  0.00    +0.000 A 
ATOM     34  C   UNL     1       1.581   8.064  20.293  0.00  0.00    +0.000 A 
ENDBRANCH  28  29
ENDBRANCH  27  28
ENDBRANCH  26  27
ENDBRANCH  25  26
ENDBRANCH  24  25
ENDBRANCH  23  24
ENDBRANCH  22  23
ENDBRANCH   4  22
TORSDOF 10
ENDMDL
MODEL 6
REMARK VINA RESULT:      -7.7      0.883      1.613
REMARK  Name = 
REMARK  10 active torsions:
REMARK  status: ('A' for Active; 'I' for Inactive)
REMARK    1  A    between atoms: C_2  and  C_4
REMARK    2  A    between atoms: C_9  and  C_10
REMARK    3  A    between atoms: C_13  and  O_14
REMARK    4  A    between atoms: O_14  and  C_15
REMARK    5  A    between atoms: C_15  and  C_16
REMARK    6  A    between atoms: C_16  and  C_17
REMARK    7  A    between atoms: C_17  and  C_18
REMARK    8  A    between atoms: C_18  and  C_19
REMARK    9  A    between atoms: C_19  and  O_20
REMARK   10  A    between atoms: O_20  and  C_21
REMARK                            x       y       z     vdW  Elec       q    Type
REMARK                         _______ _______ _______ _____ _____    ______ ____
ROOT
ATOM      1  C   UNL     1       1.187   9.112  19.932  0.00  0.00    +0.000 A 
ATOM      2  C   UNL     1       1.636   7.910  20.480  0.00  0.00    +0.000 A 
ATOM      3  C   UNL     1       2.354   7.004  19.712  0.00  0.00    +0.000 A 
ATOM      4  C   UNL     1       2.644   7.280  18.375  0.00  0.00    +0.000 A 
ATOM      5  C   UNL     1       2.175   8.464  17.806  0.00  0.00    +0.000 A 
ATOM      6  C   UNL     1       1.448   9.376  18.580  0.00  0.00    +0.000 A 
ENDROOT
BRANCH   1  12
ATOM      7  C   UNL     1      -1.672  13.261  23.203  0.00  0.00    +0.000 A 
ATOM      8  C   UNL     1      -0.744  14.062  22.522  0.00  0.00    +0.000 A 
ATOM      9  C   UNL     1       0.179  13.498  21.631  0.00  0.00    +0.000 A 
ATOM     10  C   UNL     1       0.103  12.113  21.469  0.00  0.00    +0.000 A 
ATOM     11  O   UNL     1       0.890  11.375  20.651  0.00  0.00    +0.000 OA
ATOM     12  C   UNL     1       0.487  10.072  20.767  0.00  0.00    +0.000 A 
ATOM     13  C   UNL     1      -0.552   9.984  21.669  0.00  0.00    +0.000 A 
ATOM     14  C   UNL     1      -0.799  11.296  22.127  0.00  0.00    +0.000 A 
ATOM     15  C   UNL     1      -1.704  11.872  23.023  0.00  0.00    +0.000 A 
BRANCH   7  17
ATOM     16  N   UNL     1      -3.726  13.200  24.432  0.00  0.00    +0.000 NA
ATOM     17  C   UNL     1      -2.658  13.862  24.131  0.00  0.00    +0.000 C 
ATOM     18  N   UNL     1      -2.451  15.111  24.634  0.00  0.00    +0.000 N 
ATOM     19  H   UNL     1      -4.290  13.728  25.099  0.00  0.00    +0.000 HD
ATOM     20  H   UNL     1      -3.283  15.586  24.965  0.00  0.00    +0.000 HD
ATOM     21  H   UNL     1      -1.880  15.723  24.060  0.00  0.00    +0.000 HD
ENDBRANCH   7  17
ENDBRANCH   1  12
BRANCH   4  22
ATOM     22  O   UNL     1       3.381   6.457  17.562  0.00  0.00    +0.000 OA
BRANCH  22  23
ATOM     23  C   UNL     1       4.376   7.139  16.794  0.00  0.00    +0.000 C 
BRANCH  23  24
ATOM     24  C   UNL     1       5.532   6.212  16.477  0.00  0.00    +0.000 C 
BRANCH  24  25
ATOM     25  C   UNL     1       6.734   6.451  17.392  0.00  0.00    +0.000 C 
BRANCH  25  26
ATOM     26  C   UNL     1       7.018   5.253  18.294  0.00  0.00    +0.000 C 
BRANCH  26  27
ATOM     27  C   UNL     1       5.931   5.056  19.345  0.00  0.00    +0.000 C 
BRANCH  27  28
ATOM     28  O   UNL     1       5.535   3.689  19.348  0.00  0.00    +0.000 OA
BRANCH  28  29
ATOM     29  C   UNL     1       4.205   3.481  19.102  0.00  0.00    +0.000 A 
ATOM     30  C   UNL     1       3.891   3.173  17.782  0.00  0.00    +0.000 A 
ATOM     31  C   UNL     1       2.568   2.948  17.405  0.00  0.00    +0.000 A 
ATOM     32  C   UNL     1       1.551   3.011  18.356  0.00  0.00    +0.000 A 
ATOM     33  C   UNL     1       1.860   3.290  19.685  0.00  0.00    +0.000 A 
ATOM     34  C   UNL     1       3.185   3.523  20.060  0.00  0.00    +0.000 A 
ENDBRANCH  28  29
ENDBRANCH  27  28
ENDBRANCH  26  27
ENDBRANCH  25  26
ENDBRANCH  24  25
ENDBRANCH  23  24
ENDBRANCH  22  23
ENDBRANCH   4  22
TORSDOF 10
ENDMDL
MODEL 7
REMARK VINA RESULT:      -7.7      1.147      1.619
REMARK  Name = 
REMARK  10 active torsions:
REMARK  status: ('A' for Active; 'I' for Inactive)
REMARK    1  A    between atoms: C_2  and  C_4
REMARK    2  A    between atoms: C_9  and  C_10
REMARK    3  A    between atoms: C_13  and  O_14
REMARK    4  A    between atoms: O_14  and  C_15
REMARK    5  A    between atoms: C_15  and  C_16
REMARK    6  A    between atoms: C_16  and  C_17
REMARK    7  A    between atoms: C_17  and  C_18
REMARK    8  A    between atoms: C_18  and  C_19
REMARK    9  A    between atoms: C_19  and  O_20
REMARK   10  A    between atoms: O_20  and  C_21
REMARK                            x       y       z     vdW  Elec       q    Type
REMARK                         _______ _______ _______ _____ _____    ______ ____
ROOT
ATOM      1  C   UNL     1       0.725   9.495  20.083  0.00  0.00    +0.000 A 
ATOM      2  C   UNL     1       0.914   9.808  18.736  0.00  0.00    +0.000 A 
ATOM      3  C   UNL     1       1.705   9.006  17.924  0.00  0.00    +0.000 A 
ATOM      4  C   UNL     1       2.325   7.867  18.439  0.00  0.00    +0.000 A 
ATOM      5  C   UNL     1       2.170   7.559  19.791  0.00  0.00    +0.000 A 
ATOM      6  C   UNL     1       1.375   8.370  20.610  0.00  0.00    +0.000 A 
ENDROOT
BRANCH   1  12
ATOM      7  C   UNL     1      -3.038  12.937  23.255  0.00  0.00    +0.000 A 
ATOM      8  C   UNL     1      -3.089  13.578  22.009  0.00  0.00    +0.000 A 
ATOM      9  C   UNL     1      -2.325  13.115  20.928  0.00  0.00    +0.000 A 
ATOM     10  C   UNL     1      -1.535  11.992  21.177  0.00  0.00    +0.000 A 
ATOM     11  O   UNL     1      -0.736  11.380  20.271  0.00  0.00    +0.000 OA
ATOM     12  C   UNL     1      -0.151  10.314  20.901  0.00  0.00    +0.000 A 
ATOM     13  C   UNL     1      -0.574  10.257  22.211  0.00  0.00    +0.000 A 
ATOM     14  C   UNL     1      -1.463  11.338  22.394  0.00  0.00    +0.000 A 
ATOM     15  C   UNL     1      -2.219  11.820  23.466  0.00  0.00    +0.000 A 
BRANCH   7  17
ATOM     16  N   UNL     1      -3.904  14.683  24.645  0.00  0.00    +0.000 NA
ATOM     17  C   UNL     1      -3.860  13.418  24.391  0.00  0.00    +0.000 C 
ATOM     18  N   UNL     1      -4.533  12.529  25.173  0.00  0.00    +0.000 N 
ATOM     19  H   UNL     1      -4.529  14.862  25.432  0.00  0.00    +0.000 HD
ATOM     20  H   UNL     1      -4.779  12.867  26.096  0.00  0.00    +0.000 HD
ATOM     21  H   UNL     1      -4.134  11.596  25.214  0.00  0.00    +0.000 HD
ENDBRANCH   7  17
ENDBRANCH   1  12
BRANCH   4  22
ATOM     22  O   UNL     1       3.087   7.003  17.696  0.00  0.00    +0.000 OA
BRANCH  22  23
ATOM     23  C   UNL     1       4.492   7.259  17.766  0.00  0.00    +0.000 C 
BRANCH  23  24
ATOM     24  C   UNL     1       5.263   5.963  17.904  0.00  0.00    +0.000 C 
BRANCH  24  25
ATOM     25  C   UNL     1       5.561   5.319  16.549  0.00  0.00    +0.000 C 
BRANCH  25  26
ATOM     26  C   UNL     1       5.122   3.858  16.497  0.00  0.00    +0.000 C 
BRANCH  26  27
ATOM     27  C   UNL     1       3.639   3.693  16.816  0.00  0.00    +0.000 C 
BRANCH  27  28
ATOM     28  O   UNL     1       3.485   2.633  17.752  0.00  0.00    +0.000 OA
BRANCH  28  29
ATOM     29  C   UNL     1       2.765   2.961  18.870  0.00  0.00    +0.000 A 
ATOM     30  C   UNL     1       3.338   2.570  20.075  0.00  0.00    +0.000 A 
ATOM     31  C   UNL     1       2.696   2.839  21.282  0.00  0.00    +0.000 A 
ATOM     32  C   UNL     1       1.481   3.521  21.289  0.00  0.00    +0.000 A 
ATOM     33  C   UNL     1       0.914   3.942  20.089  0.00  0.00    +0.000 A 
ATOM     34  C   UNL     1       1.554   3.665  18.879  0.00  0.00    +0.000 A 
ENDBRANCH  28  29
ENDBRANCH  27  28
ENDBRANCH  26  27
ENDBRANCH  25  26
ENDBRANCH  24  25
ENDBRANCH  23  24
ENDBRANCH  22  23
ENDBRANCH   4  22
TORSDOF 10
ENDMDL
MODEL 8
REMARK VINA RESULT:      -7.7      4.512      9.777
REMARK  Name = 
REMARK  10 active torsions:
REMARK  status: ('A' for Active; 'I' for Inactive)
REMARK    1  A    between atoms: C_2  and  C_4
REMARK    2  A    between atoms: C_9  and  C_10
REMARK    3  A    between atoms: C_13  and  O_14
REMARK    4  A    between atoms: O_14  and  C_15
REMARK    5  A    between atoms: C_15  and  C_16
REMARK    6  A    between atoms: C_16  and  C_17
REMARK    7  A    between atoms: C_17  and  C_18
REMARK    8  A    between atoms: C_18  and  C_19
REMARK    9  A    between atoms: C_19  and  O_20
REMARK   10  A    between atoms: O_20  and  C_21
REMARK                            x       y       z     vdW  Elec       q    Type
REMARK                         _______ _______ _______ _____ _____    ______ ____
ROOT
ATOM      1  C   UNL     1       1.063   8.680  20.580  0.00  0.00    +0.000 A 
ATOM      2  C   UNL     1       0.519   8.884  21.849  0.00  0.00    +0.000 A 
ATOM      3  C   UNL     1      -0.102  10.083  22.171  0.00  0.00    +0.000 A 
ATOM      4  C   UNL     1      -0.198  11.108  21.229  0.00  0.00    +0.000 A 
ATOM      5  C   UNL     1       0.369  10.930  19.967  0.00  0.00    +0.000 A 
ATOM      6  C   UNL     1       0.999   9.722  19.644  0.00  0.00    +0.000 A 
ENDROOT
BRANCH   1  12
ATOM      7  C   UNL     1       3.728   3.509  19.085  0.00  0.00    +0.000 A 
ATOM      8  C   UNL     1       4.162   4.336  18.040  0.00  0.00    +0.000 A 
ATOM      9  C   UNL     1       3.757   5.675  17.964  0.00  0.00    +0.000 A 
ATOM     10  C   UNL     1       2.915   6.117  18.986  0.00  0.00    +0.000 A 
ATOM     11  O   UNL     1       2.421   7.372  19.107  0.00  0.00    +0.000 OA
ATOM     12  C   UNL     1       1.659   7.399  20.245  0.00  0.00    +0.000 A 
ATOM     13  C   UNL     1       1.664   6.156  20.840  0.00  0.00    +0.000 A 
ATOM     14  C   UNL     1       2.469   5.326  20.030  0.00  0.00    +0.000 A 
ATOM     15  C   UNL     1       2.870   3.988  20.084  0.00  0.00    +0.000 A 
BRANCH   7  17
ATOM     16  N   UNL     1       3.673   1.229  18.358  0.00  0.00    +0.000 NA
ATOM     17  C   UNL     1       4.172   2.098  19.173  0.00  0.00    +0.000 C 
ATOM     18  N   UNL     1       5.071   1.720  20.124  0.00  0.00    +0.000 N 
ATOM     19  H   UNL     1       4.094   0.313  18.519  0.00  0.00    +0.000 HD
ATOM     20  H   UNL     1       5.070   0.733  20.351  0.00  0.00    +0.000 HD
ATOM     21  H   UNL     1       5.084   2.293  20.962  0.00  0.00    +0.000 HD
ENDBRANCH   7  17
ENDBRANCH   1  12
BRANCH   4  22
ATOM     22  O   UNL     1      -0.830  12.304  21.455  0.00  0.00    +0.000 OA
BRANCH  22  23
ATOM     23  C   UNL     1      -1.376  12.904  20.277  0.00  0.00    +0.000 C 
BRANCH  23  24
ATOM     24  C   UNL     1      -2.669  13.625  20.598  0.00  0.00    +0.000 C 
BRANCH  24  25
ATOM     25  C   UNL     1      -3.532  12.850  21.596  0.00  0.00    +0.000 C 
BRANCH  25  26
ATOM     26  C   UNL     1      -4.865  12.419  20.991  0.00  0.00    +0.000 C 
BRANCH  26  27
ATOM     27  C   UNL     1      -4.913  12.650  19.484  0.00  0.00    +0.000 C 
BRANCH  27  28
ATOM     28  O   UNL     1      -5.201  11.416  18.838  0.00  0.00    +0.000 OA
BRANCH  28  29
ATOM     29  C   UNL     1      -4.246  11.001  17.949  0.00  0.00    +0.000 A 
ATOM     30  C   UNL     1      -4.500  11.320  16.619  0.00  0.00    +0.000 A 
ATOM     31  C   UNL     1      -3.604  10.944  15.620  0.00  0.00    +0.000 A 
ATOM     32  C   UNL     1      -2.436  10.260  15.951  0.00  0.00    +0.000 A 
ATOM     33  C   UNL     1      -2.160   9.962  17.283  0.00  0.00    +0.000 A 
ATOM     34  C   UNL     1      -3.061  10.333  18.283  0.00  0.00    +0.000 A 
ENDBRANCH  28  29
ENDBRANCH  27  28
ENDBRANCH  26  27
ENDBRANCH  25  26
ENDBRANCH  24  25
ENDBRANCH  23  24
ENDBRANCH  22  23
ENDBRANCH   4  22
TORSDOF 10
ENDMDL
MODEL 9
REMARK VINA RESULT:      -7.6      4.306      9.558
REMARK  Name = 
REMARK  10 active torsions:
REMARK  status: ('A' for Active; 'I' for Inactive)
REMARK    1  A    between atoms: C_2  and  C_4
REMARK    2  A    between atoms: C_9  and  C_10
REMARK    3  A    between atoms: C_13  and  O_14
REMARK    4  A    between atoms: O_14  and  C_15
REMARK    5  A    between atoms: C_15  and  C_16
REMARK    6  A    between atoms: C_16  and  C_17
REMARK    7  A    between atoms: C_17  and  C_18
REMARK    8  A    between atoms: C_18  and  C_19
REMARK    9  A    between atoms: C_19  and  O_20
REMARK   10  A    between atoms: O_20  and  C_21
REMARK                            x       y       z     vdW  Elec       q    Type
REMARK                         _______ _______ _______ _____ _____    ______ ____
ROOT
ATOM      1  C   UNL     1       0.413   9.610  21.275  0.00  0.00    +0.000 A 
ATOM      2  C   UNL     1       0.440  10.874  20.684  0.00  0.00    +0.000 A 
ATOM      3  C   UNL     1      -0.201  11.950  21.283  0.00  0.00    +0.000 A 
ATOM      4  C   UNL     1      -0.881  11.790  22.491  0.00  0.00    +0.000 A 
ATOM      5  C   UNL     1      -0.941  10.525  23.077  0.00  0.00    +0.000 A 
ATOM      6  C   UNL     1      -0.298   9.439  22.470  0.00  0.00    +0.000 A 
ENDROOT
BRANCH   1  12
ATOM      7  C   UNL     1       3.554   5.231  18.620  0.00  0.00    +0.000 A 
ATOM      8  C   UNL     1       3.653   6.244  17.655  0.00  0.00    +0.000 A 
ATOM      9  C   UNL     1       3.032   7.485  17.845  0.00  0.00    +0.000 A 
ATOM     10  C   UNL     1       2.330   7.639  19.042  0.00  0.00    +0.000 A 
ATOM     11  O   UNL     1       1.672   8.758  19.427  0.00  0.00    +0.000 OA
ATOM     12  C   UNL     1       1.136   8.509  20.662  0.00  0.00    +0.000 A 
ATOM     13  C   UNL     1       1.448   7.226  21.055  0.00  0.00    +0.000 A 
ATOM     14  C   UNL     1       2.213   6.661  20.014  0.00  0.00    +0.000 A 
ATOM     15  C   UNL     1       2.827   5.423  19.802  0.00  0.00    +0.000 A 
BRANCH   7  17
ATOM     16  N   UNL     1       5.450   3.782  18.813  0.00  0.00    +0.000 NA
ATOM     17  C   UNL     1       4.226   3.926  18.424  0.00  0.00    +0.000 C 
ATOM     18  N   UNL     1       3.568   2.902  17.812  0.00  0.00    +0.000 N 
ATOM     19  H   UNL     1       5.764   2.827  18.638  0.00  0.00    +0.000 HD
ATOM     20  H   UNL     1       4.162   2.187  17.410  0.00  0.00    +0.000 HD
ATOM     21  H   UNL     1       2.835   3.180  17.166  0.00  0.00    +0.000 HD
ENDBRANCH   7  17
ENDBRANCH   1  12
BRANCH   4  22
ATOM     22  O   UNL     1      -1.502  12.809  23.165  0.00  0.00    +0.000 OA
BRANCH  22  23
ATOM     23  C   UNL     1      -2.858  12.530  23.521  0.00  0.00    +0.000 C 
BRANCH  23  24
ATOM     24  C   UNL     1      -3.722  12.424  22.281  0.00  0.00    +0.000 C 
BRANCH  24  25
ATOM     25  C   UNL     1      -3.692  13.703  21.443  0.00  0.00    +0.000 C 
BRANCH  25  26
ATOM     26  C   UNL     1      -4.840  13.761  20.438  0.00  0.00    +0.000 C 
BRANCH  26  27
ATOM     27  C   UNL     1      -4.857  12.546  19.516  0.00  0.00    +0.000 C 
BRANCH  27  28
ATOM     28  O   UNL     1      -3.517  12.134  19.272  0.00  0.00    +0.000 OA
BRANCH  28  29
ATOM     29  C   UNL     1      -3.337  11.449  18.101  0.00  0.00    +0.000 A 
ATOM     30  C   UNL     1      -2.215  10.626  18.067  0.00  0.00    +0.000 A 
ATOM     31  C   UNL     1      -1.919   9.884  16.925  0.00  0.00    +0.000 A 
ATOM     32  C   UNL     1      -2.758   9.947  15.814  0.00  0.00    +0.000 A 
ATOM     33  C   UNL     1      -3.899  10.745  15.851  0.00  0.00    +0.000 A 
ATOM     34  C   UNL     1      -4.191  11.494  16.992  0.00  0.00    +0.000 A 
ENDBRANCH  28  29
ENDBRANCH  27  28
ENDBRANCH  26  27
ENDBRANCH  25  26
ENDBRANCH  24  25
ENDBRANCH  23  24
ENDBRANCH  22  23
ENDBRANCH   4  22
TORSDOF 10
ENDMDL
