MODEL 1
REMARK VINA RESULT:      -9.3      0.000      0.000
REMARK  Name = 
REMARK  8 active torsions:
REMARK  status: ('A' for Active; 'I' for Inactive)
REMARK    1  A    between atoms: C_1  and  C_2
REMARK    2  A    between atoms: C_3  and  O_4
REMARK    3  A    between atoms: O_4  and  C_5
REMARK    4  A    between atoms: C_13  and  O_14
REMARK    5  A    between atoms: O_14  and  C_15
REMARK    6  A    between atoms: C_15  and  C_16
REMARK    7  A    between atoms: C_15  and  C_17
REMARK    8  A    between atoms: C_23  and  C_24
REMARK                            x       y       z     vdW  Elec       q    Type
REMARK                         _______ _______ _______ _____ _____    ______ ____
ROOT
ATOM      1  C   UNL     1       2.567   8.540  17.785  0.00  0.00    +0.000 C 
ATOM      2  C   UNL     1       2.451   7.425  18.766  0.00  0.00    +0.000 A 
ATOM      3  C   UNL     1       2.819   6.093  18.708  0.00  0.00    +0.000 A 
ATOM      4  C   UNL     1       2.451   5.557  19.950  0.00  0.00    +0.000 A 
ATOM      5  N   UNL     1       1.970   6.469  20.787  0.00  0.00    +0.000 NA
ATOM      6  N   UNL     1       1.877   7.600  20.032  0.00  0.00    +0.000 N 
ATOM      7  C   UNL     1       1.171   8.744  20.544  0.00  0.00    +0.000 A 
ATOM      8  C   UNL     1       0.694   8.715  21.853  0.00  0.00    +0.000 A 
ATOM      9  C   UNL     1      -0.126   9.756  22.298  0.00  0.00    +0.000 A 
ATOM     10  C   UNL     1      -0.478  10.808  21.444  0.00  0.00    +0.000 A 
ATOM     11  C   UNL     1       0.094  10.767  20.176  0.00  0.00    +0.000 A 
ATOM     12  N   UNL     1       0.907   9.782  19.711  0.00  0.00    +0.000 NA
ENDROOT
BRANCH  10  13
ATOM     13  C   UNL     1      -1.496  11.847  21.834  0.00  0.00    +0.000 C 
ATOM     14  C   UNL     1      -2.182  11.792  23.176  0.00  0.00    +0.000 C 
ATOM     15  C   UNL     1      -1.195  12.884  22.887  0.00  0.00    +0.000 C 
ENDBRANCH  10  13
BRANCH   3  16
ATOM     16  O   UNL     1       3.448   5.409  17.730  0.00  0.00    +0.000 OA
BRANCH  16  17
ATOM     17  C   UNL     1       4.800   5.172  17.694  0.00  0.00    +0.000 A 
ATOM     18  C   UNL     1       5.681   5.559  18.701  0.00  0.00    +0.000 A 
ATOM     19  C   UNL     1       7.042   5.301  18.559  0.00  0.00    +0.000 A 
ATOM     20  F   UNL     1       7.883   5.646  19.542  0.00  0.00    +0.000 F 
ATOM     21  C   UNL     1       7.548   4.685  17.415  0.00  0.00    +0.000 A 
ATOM     22  C   UNL     1       6.676   4.327  16.390  0.00  0.00    +0.000 A 
ATOM     23  C   UNL     1       5.310   4.573  16.534  0.00  0.00    +0.000 A 
ATOM     24  F   UNL     1       4.486   4.224  15.538  0.00  0.00    +0.000 F 
ENDBRANCH  16  17
ENDBRANCH   3  16
BRANCH   4  25
ATOM     25  O   UNL     1       2.530   4.256  20.320  0.00  0.00    +0.000 OA
BRANCH  25  26
ATOM     26  C   UNL     1       1.265   3.595  20.493  0.00  0.00    +0.000 C 
ATOM     27  C   UNL     1       0.849   2.812  19.244  0.00  0.00    +0.000 C 
ATOM     28  C   UNL     1       1.433   2.611  21.654  0.00  0.00    +0.000 C 
ENDBRANCH  25  26
ENDBRANCH   4  25
TORSDOF 5
ENDMDL
MODEL 2
REMARK VINA RESULT:      -9.0      0.975      1.055
REMARK  Name = 
REMARK  8 active torsions:
REMARK  status: ('A' for Active; 'I' for Inactive)
REMARK    1  A    between atoms: C_1  and  C_2
REMARK    2  A    between atoms: C_3  and  O_4
REMARK    3  A    between atoms: O_4  and  C_5
REMARK    4  A    between atoms: C_13  and  O_14
REMARK    5  A    between atoms: O_14  and  C_15
REMARK    6  A    between atoms: C_15  and  C_16
REMARK    7  A    between atoms: C_15  and  C_17
REMARK    8  A    between atoms: C_23  and  C_24
REMARK                            x       y       z     vdW  Elec       q    Type
REMARK                         _______ _______ _______ _____ _____    ______ ____
ROOT
ATOM      1  C   UNL     1       2.150   9.027  17.983  0.00  0.00    +0.000 C 
ATOM      2  C   UNL     1       2.177   7.798  18.824  0.00  0.00    +0.000 A 
ATOM      3  C   UNL     1       2.556   6.495  18.555  0.00  0.00    +0.000 A 
ATOM      4  C   UNL     1       2.357   5.800  19.757  0.00  0.00    +0.000 A 
ATOM      5  N   UNL     1       1.972   6.588  20.755  0.00  0.00    +0.000 NA
ATOM      6  N   UNL     1       1.766   7.799  20.163  0.00  0.00    +0.000 N 
ATOM      7  C   UNL     1       1.113   8.849  20.898  0.00  0.00    +0.000 A 
ATOM      8  C   UNL     1       0.807   8.647  22.242  0.00  0.00    +0.000 A 
ATOM      9  C   UNL     1       0.034   9.600  22.912  0.00  0.00    +0.000 A 
ATOM     10  C   UNL     1      -0.441  10.736  22.247  0.00  0.00    +0.000 A 
ATOM     11  C   UNL     1      -0.034  10.867  20.922  0.00  0.00    +0.000 A 
ATOM     12  N   UNL     1       0.729   9.972  20.241  0.00  0.00    +0.000 NA
ENDROOT
BRANCH  10  13
ATOM     13  C   UNL     1      -1.417  11.687  22.886  0.00  0.00    +0.000 C 
ATOM     14  C   UNL     1      -1.201  13.178  22.819  0.00  0.00    +0.000 C 
ATOM     15  C   UNL     1      -2.330  12.553  22.054  0.00  0.00    +0.000 C 
ENDBRANCH  10  13
BRANCH   3  16
ATOM     16  O   UNL     1       3.066   5.955  17.430  0.00  0.00    +0.000 OA
BRANCH  16  17
ATOM     17  C   UNL     1       4.404   5.732  17.212  0.00  0.00    +0.000 A 
ATOM     18  C   UNL     1       5.379   6.722  17.304  0.00  0.00    +0.000 A 
ATOM     19  C   UNL     1       6.708   6.404  17.034  0.00  0.00    +0.000 A 
ATOM     20  F   UNL     1       7.647   7.350  17.154  0.00  0.00    +0.000 F 
ATOM     21  C   UNL     1       7.082   5.117  16.648  0.00  0.00    +0.000 A 
ATOM     22  C   UNL     1       6.106   4.131  16.522  0.00  0.00    +0.000 A 
ATOM     23  C   UNL     1       4.775   4.444  16.802  0.00  0.00    +0.000 A 
ATOM     24  F   UNL     1       3.849   3.484  16.674  0.00  0.00    +0.000 F 
ENDBRANCH  16  17
ENDBRANCH   3  16
BRANCH   4  25
ATOM     25  O   UNL     1       2.504   4.467  19.949  0.00  0.00    +0.000 OA
BRANCH  25  26
ATOM     26  C   UNL     1       1.278   3.746  20.159  0.00  0.00    +0.000 C 
ATOM     27  C   UNL     1       0.943   2.827  18.979  0.00  0.00    +0.000 C 
ATOM     28  C   UNL     1       1.478   2.884  21.408  0.00  0.00    +0.000 C 
ENDBRANCH  25  26
ENDBRANCH   4  25
TORSDOF 5
ENDMDL
MODEL 3
REMARK VINA RESULT:      -8.6      1.013      1.013
REMARK  Name = 
REMARK  8 active torsions:
REMARK  status: ('A' for Active; 'I' for Inactive)
REMARK    1  A    between atoms: C_1  and  C_2
REMARK    2  A    between atoms: C_3  and  O_4
REMARK    3  A    between atoms: O_4  and  C_5
REMARK    4  A    between atoms: C_13  and  O_14
REMARK    5  A    between atoms: O_14  and  C_15
REMARK    6  A    between atoms: C_15  and  C_16
REMARK    7  A    between atoms: C_15  and  C_17
REMARK    8  A    between atoms: C_23  and  C_24
REMARK                            x       y       z     vdW  Elec       q    Type
REMARK                         _______ _______ _______ _____ _____    ______ ____
ROOT
ATOM      1  C   UNL     1       2.261   9.189  18.084  0.00  0.00    +0.000 C 
ATOM      2  C   UNL     1       2.176   8.043  19.032  0.00  0.00    +0.000 A 
ATOM      3  C   UNL     1       2.621   6.736  18.953  0.00  0.00    +0.000 A 
ATOM      4  C   UNL     1       2.242   6.146  20.168  0.00  0.00    +0.000 A 
ATOM      5  N   UNL     1       1.682   7.006  21.010  0.00  0.00    +0.000 NA
ATOM      6  N   UNL     1       1.550   8.151  20.281  0.00  0.00    +0.000 N 
ATOM      7  C   UNL     1       0.764   9.239  20.796  0.00  0.00    +0.000 A 
ATOM      8  C   UNL     1       0.245   9.148  22.087  0.00  0.00    +0.000 A 
ATOM      9  C   UNL     1      -0.647  10.129  22.528  0.00  0.00    +0.000 A 
ATOM     10  C   UNL     1      -1.030  11.182  21.690  0.00  0.00    +0.000 A 
ATOM     11  C   UNL     1      -0.414  11.208  20.442  0.00  0.00    +0.000 A 
ATOM     12  N   UNL     1       0.469  10.283  19.982  0.00  0.00    +0.000 NA
ENDROOT
BRANCH  10  13
ATOM     13  C   UNL     1      -2.118  12.152  22.070  0.00  0.00    +0.000 C 
ATOM     14  C   UNL     1      -2.785  12.076  23.421  0.00  0.00    +0.000 C 
ATOM     15  C   UNL     1      -1.884  13.231  23.097  0.00  0.00    +0.000 C 
ENDBRANCH  10  13
BRANCH   3  16
ATOM     16  O   UNL     1       3.320   6.115  17.981  0.00  0.00    +0.000 OA
BRANCH  16  17
ATOM     17  C   UNL     1       4.691   6.038  17.939  0.00  0.00    +0.000 A 
ATOM     18  C   UNL     1       5.477   5.625  19.012  0.00  0.00    +0.000 A 
ATOM     19  C   UNL     1       6.863   5.611  18.882  0.00  0.00    +0.000 A 
ATOM     20  F   UNL     1       7.615   5.183  19.903  0.00  0.00    +0.000 F 
ATOM     21  C   UNL     1       7.486   6.027  17.705  0.00  0.00    +0.000 A 
ATOM     22  C   UNL     1       6.706   6.474  16.641  0.00  0.00    +0.000 A 
ATOM     23  C   UNL     1       5.316   6.478  16.764  0.00  0.00    +0.000 A 
ATOM     24  F   UNL     1       4.582   6.913  15.732  0.00  0.00    +0.000 F 
ENDBRANCH  16  17
ENDBRANCH   3  16
BRANCH   4  25
ATOM     25  O   UNL     1       2.383   4.842  20.507  0.00  0.00    +0.000 OA
BRANCH  25  26
ATOM     26  C   UNL     1       1.210   4.034  20.311  0.00  0.00    +0.000 C 
ATOM     27  C   UNL     1       1.157   3.429  18.904  0.00  0.00    +0.000 C 
ATOM     28  C   UNL     1       1.282   2.894  21.331  0.00  0.00    +0.000 C 
ENDBRANCH  25  26
ENDBRANCH   4  25
TORSDOF 5
ENDMDL
MODEL 4
REMARK VINA RESULT:      -8.6      0.967      1.645
REMARK  Name = 
REMARK  8 active torsions:
REMARK  status: ('A' for Active; 'I' for Inactive)
REMARK    1  A    between atoms: C_1  and  C_2
REMARK    2  A    between atoms: C_3  and  O_4
REMARK    3  A    between atoms: O_4  and  C_5
REMARK    4  A    between atoms: C_13  and  O_14
REMARK    5  A    between atoms: O_14  and  C_15
REMARK    6  A    between atoms: C_15  and  C_16
REMARK    7  A    between atoms: C_15  and  C_17
REMARK    8  A    between atoms: C_23  and  C_24
REMARK                            x       y       z     vdW  Elec       q    Type
REMARK                         _______ _______ _______ _____ _____    ______ ____
ROOT
ATOM      1  C   UNL     1       2.747   8.001  17.556  0.00  0.00    +0.000 C 
ATOM      2  C   UNL     1       2.595   6.973  18.622  0.00  0.00    +0.000 A 
ATOM      3  C   UNL     1       2.868   5.617  18.652  0.00  0.00    +0.000 A 
ATOM      4  C   UNL     1       2.514   5.201  19.944  0.00  0.00    +0.000 A 
ATOM      5  N   UNL     1       2.130   6.204  20.726  0.00  0.00    +0.000 NA
ATOM      6  N   UNL     1       2.086   7.280  19.890  0.00  0.00    +0.000 N 
ATOM      7  C   UNL     1       1.481   8.506  20.339  0.00  0.00    +0.000 A 
ATOM      8  C   UNL     1       1.056   8.608  21.662  0.00  0.00    +0.000 A 
ATOM      9  C   UNL     1       0.329   9.735  22.055  0.00  0.00    +0.000 A 
ATOM     10  C   UNL     1       0.015  10.743  21.137  0.00  0.00    +0.000 A 
ATOM     11  C   UNL     1       0.532  10.569  19.856  0.00  0.00    +0.000 A 
ATOM     12  N   UNL     1       1.256   9.497  19.439  0.00  0.00    +0.000 NA
ENDROOT
BRANCH  10  13
ATOM     13  C   UNL     1      -0.912  11.879  21.482  0.00  0.00    +0.000 C 
ATOM     14  C   UNL     1      -1.240  12.200  22.919  0.00  0.00    +0.000 C 
ATOM     15  C   UNL     1      -0.398  13.147  22.115  0.00  0.00    +0.000 C 
ENDBRANCH  10  13
BRANCH   3  16
ATOM     16  O   UNL     1       3.408   4.820  17.708  0.00  0.00    +0.000 OA
BRANCH  16  17
ATOM     17  C   UNL     1       4.706   4.908  17.267  0.00  0.00    +0.000 A 
ATOM     18  C   UNL     1       5.059   5.128  15.938  0.00  0.00    +0.000 A 
ATOM     19  C   UNL     1       6.405   5.170  15.584  0.00  0.00    +0.000 A 
ATOM     20  F   UNL     1       6.742   5.414  14.311  0.00  0.00    +0.000 F 
ATOM     21  C   UNL     1       7.411   4.971  16.528  0.00  0.00    +0.000 A 
ATOM     22  C   UNL     1       7.063   4.716  17.853  0.00  0.00    +0.000 A 
ATOM     23  C   UNL     1       5.715   4.684  18.214  0.00  0.00    +0.000 A 
ATOM     24  F   UNL     1       5.399   4.436  19.491  0.00  0.00    +0.000 F 
ENDBRANCH  16  17
ENDBRANCH   3  16
BRANCH   4  25
ATOM     25  O   UNL     1       2.518   3.928  20.408  0.00  0.00    +0.000 OA
BRANCH  25  26
ATOM     26  C   UNL     1       1.217   3.355  20.621  0.00  0.00    +0.000 C 
ATOM     27  C   UNL     1       0.733   2.561  19.403  0.00  0.00    +0.000 C 
ATOM     28  C   UNL     1       1.342   2.398  21.809  0.00  0.00    +0.000 C 
ENDBRANCH  25  26
ENDBRANCH   4  25
TORSDOF 5
ENDMDL
MODEL 5
REMARK VINA RESULT:      -8.5      0.848      1.111
REMARK  Name = 
REMARK  8 active torsions:
REMARK  status: ('A' for Active; 'I' for Inactive)
REMARK    1  A    between atoms: C_1  and  C_2
REMARK    2  A    between atoms: C_3  and  O_4
REMARK    3  A    between atoms: O_4  and  C_5
REMARK    4  A    between atoms: C_13  and  O_14
REMARK    5  A    between atoms: O_14  and  C_15
REMARK    6  A    between atoms: C_15  and  C_16
REMARK    7  A    between atoms: C_15  and  C_17
REMARK    8  A    between atoms: C_23  and  C_24
REMARK                            x       y       z     vdW  Elec       q    Type
REMARK                         _______ _______ _______ _____ _____    ______ ____
ROOT
ATOM      1  C   UNL     1       2.884   7.915  17.521  0.00  0.00    +0.000 C 
ATOM      2  C   UNL     1       2.654   6.998  18.671  0.00  0.00    +0.000 A 
ATOM      3  C   UNL     1       2.950   5.661  18.868  0.00  0.00    +0.000 A 
ATOM      4  C   UNL     1       2.486   5.369  20.159  0.00  0.00    +0.000 A 
ATOM      5  N   UNL     1       2.011   6.435  20.793  0.00  0.00    +0.000 NA
ATOM      6  N   UNL     1       2.022   7.419  19.848  0.00  0.00    +0.000 N 
ATOM      7  C   UNL     1       1.354   8.665  20.108  0.00  0.00    +0.000 A 
ATOM      8  C   UNL     1       0.805   8.890  21.370  0.00  0.00    +0.000 A 
ATOM      9  C   UNL     1       0.021  10.029  21.574  0.00  0.00    +0.000 A 
ATOM     10  C   UNL     1      -0.225  10.928  20.531  0.00  0.00    +0.000 A 
ATOM     11  C   UNL     1       0.412  10.638  19.328  0.00  0.00    +0.000 A 
ATOM     12  N   UNL     1       1.193   9.551  19.094  0.00  0.00    +0.000 NA
ENDROOT
BRANCH  10  13
ATOM     13  C   UNL     1      -1.204  12.064  20.669  0.00  0.00    +0.000 C 
ATOM     14  C   UNL     1      -1.395  13.060  19.553  0.00  0.00    +0.000 C 
ATOM     15  C   UNL     1      -2.492  12.091  19.884  0.00  0.00    +0.000 C 
ENDBRANCH  10  13
BRANCH   3  16
ATOM     16  O   UNL     1       3.592   4.788  18.066  0.00  0.00    +0.000 OA
BRANCH  16  17
ATOM     17  C   UNL     1       4.946   4.797  17.833  0.00  0.00    +0.000 A 
ATOM     18  C   UNL     1       5.889   5.215  18.769  0.00  0.00    +0.000 A 
ATOM     19  C   UNL     1       7.240   5.217  18.428  0.00  0.00    +0.000 A 
ATOM     20  F   UNL     1       8.147   5.589  19.340  0.00  0.00    +0.000 F 
ATOM     21  C   UNL     1       7.668   4.834  17.158  0.00  0.00    +0.000 A 
ATOM     22  C   UNL     1       6.726   4.448  16.207  0.00  0.00    +0.000 A 
ATOM     23  C   UNL     1       5.373   4.433  16.549  0.00  0.00    +0.000 A 
ATOM     24  F   UNL     1       4.481   4.061  15.622  0.00  0.00    +0.000 F 
ENDBRANCH  16  17
ENDBRANCH   3  16
BRANCH   4  25
ATOM     25  O   UNL     1       2.472   4.152  20.753  0.00  0.00    +0.000 OA
BRANCH  25  26
ATOM     26  C   UNL     1       1.179   3.530  20.835  0.00  0.00    +0.000 C 
ATOM     27  C   UNL     1       0.757   2.901  19.503  0.00  0.00    +0.000 C 
ATOM     28  C   UNL     1       1.285   2.423  21.887  0.00  0.00    +0.000 C 
ENDBRANCH  25  26
ENDBRANCH   4  25
TORSDOF 5
ENDMDL
MODEL 6
REMARK VINA RESULT:      -8.3      1.480      2.444
REMARK  Name = 
REMARK  8 active torsions:
REMARK  status: ('A' for Active; 'I' for Inactive)
REMARK    1  A    between atoms: C_1  and  C_2
REMARK    2  A    between atoms: C_3  and  O_4
REMARK    3  A    between atoms: O_4  and  C_5
REMARK    4  A    between atoms: C_13  and  O_14
REMARK    5  A    between atoms: O_14  and  C_15
REMARK    6  A    between atoms: C_15  and  C_16
REMARK    7  A    between atoms: C_15  and  C_17
REMARK    8  A    between atoms: C_23  and  C_24
REMARK                            x       y       z     vdW  Elec       q    Type
REMARK                         _______ _______ _______ _____ _____    ______ ____
ROOT
ATOM      1  C   UNL     1       3.863   7.173  17.265  0.00  0.00    +0.000 C 
ATOM      2  C   UNL     1       3.375   6.420  18.453  0.00  0.00    +0.000 A 
ATOM      3  C   UNL     1       3.590   5.124  18.886  0.00  0.00    +0.000 A 
ATOM      4  C   UNL     1       2.859   5.010  20.078  0.00  0.00    +0.000 A 
ATOM      5  N   UNL     1       2.290   6.151  20.449  0.00  0.00    +0.000 NA
ATOM      6  N   UNL     1       2.523   6.996  19.404  0.00  0.00    +0.000 N 
ATOM      7  C   UNL     1       1.846   8.264  19.348  0.00  0.00    +0.000 A 
ATOM      8  C   UNL     1       1.053   8.657  20.424  0.00  0.00    +0.000 A 
ATOM      9  C   UNL     1       0.272   9.811  20.305  0.00  0.00    +0.000 A 
ATOM     10  C   UNL     1       0.271  10.558  19.121  0.00  0.00    +0.000 A 
ATOM     11  C   UNL     1       1.138  10.108  18.129  0.00  0.00    +0.000 A 
ATOM     12  N   UNL     1       1.923   9.002  18.213  0.00  0.00    +0.000 NA
ENDROOT
BRANCH  10  13
ATOM     13  C   UNL     1      -0.686  11.699  18.897  0.00  0.00    +0.000 C 
ATOM     14  C   UNL     1      -1.396  12.352  20.057  0.00  0.00    +0.000 C 
ATOM     15  C   UNL     1      -0.337  13.108  19.308  0.00  0.00    +0.000 C 
ENDBRANCH  10  13
BRANCH   3  16
ATOM     16  O   UNL     1       4.363   4.152  18.362  0.00  0.00    +0.000 OA
BRANCH  16  17
ATOM     17  C   UNL     1       5.196   4.319  17.282  0.00  0.00    +0.000 A 
ATOM     18  C   UNL     1       4.823   4.049  15.968  0.00  0.00    +0.000 A 
ATOM     19  C   UNL     1       5.750   4.220  14.943  0.00  0.00    +0.000 A 
ATOM     20  F   UNL     1       5.379   3.991  13.677  0.00  0.00    +0.000 F 
ATOM     21  C   UNL     1       7.056   4.632  15.207  0.00  0.00    +0.000 A 
ATOM     22  C   UNL     1       7.444   4.870  16.523  0.00  0.00    +0.000 A 
ATOM     23  C   UNL     1       6.514   4.711  17.552  0.00  0.00    +0.000 A 
ATOM     24  F   UNL     1       6.905   4.942  18.812  0.00  0.00    +0.000 F 
ENDBRANCH  16  17
ENDBRANCH   3  16
BRANCH   4  25
ATOM     25  O   UNL     1       2.692   3.886  20.814  0.00  0.00    +0.000 OA
BRANCH  25  26
ATOM     26  C   UNL     1       1.332   3.435  20.935  0.00  0.00    +0.000 C 
ATOM     27  C   UNL     1       0.804   2.843  19.624  0.00  0.00    +0.000 C 
ATOM     28  C   UNL     1       1.320   2.341  22.005  0.00  0.00    +0.000 C 
ENDBRANCH  25  26
ENDBRANCH   4  25
TORSDOF 5
ENDMDL
MODEL 7
REMARK VINA RESULT:      -8.1      1.750      2.763
REMARK  Name = 
REMARK  8 active torsions:
REMARK  status: ('A' for Active; 'I' for Inactive)
REMARK    1  A    between atoms: C_1  and  C_2
REMARK    2  A    between atoms: C_3  and  O_4
REMARK    3  A    between atoms: O_4  and  C_5
REMARK    4  A    between atoms: C_13  and  O_14
REMARK    5  A    between atoms: O_14  and  C_15
REMARK    6  A    between atoms: C_15  and  C_16
REMARK    7  A    between atoms: C_15  and  C_17
REMARK    8  A    between atoms: C_23  and  C_24
REMARK                            x       y       z     vdW  Elec       q    Type
REMARK                         _______ _______ _______ _____ _____    ______ ____
ROOT
ATOM      1  C   UNL     1       4.090   7.017  17.479  0.00  0.00    +0.000 C 
ATOM      2  C   UNL     1       3.656   6.089  18.560  0.00  0.00    +0.000 A 
ATOM      3  C   UNL     1       3.947   4.761  18.818  0.00  0.00    +0.000 A 
ATOM      4  C   UNL     1       3.235   4.451  19.986  0.00  0.00    +0.000 A 
ATOM      5  N   UNL     1       2.607   5.500  20.505  0.00  0.00    +0.000 NA
ATOM      6  N   UNL     1       2.782   6.486  19.580  0.00  0.00    +0.000 N 
ATOM      7  C   UNL     1       2.036   7.710  19.693  0.00  0.00    +0.000 A 
ATOM      8  C   UNL     1       1.232   7.913  20.813  0.00  0.00    +0.000 A 
ATOM      9  C   UNL     1       0.387   9.026  20.847  0.00  0.00    +0.000 A 
ATOM     10  C   UNL     1       0.333   9.921  19.773  0.00  0.00    +0.000 A 
ATOM     11  C   UNL     1       1.214   9.655  18.728  0.00  0.00    +0.000 A 
ATOM     12  N   UNL     1       2.061   8.594  18.664  0.00  0.00    +0.000 NA
ENDROOT
BRANCH  10  13
ATOM     13  C   UNL     1      -0.688  11.026  19.702  0.00  0.00    +0.000 C 
ATOM     14  C   UNL     1      -0.746  11.950  18.512  0.00  0.00    +0.000 C 
ATOM     15  C   UNL     1      -1.850  10.961  18.743  0.00  0.00    +0.000 C 
ENDBRANCH  10  13
BRANCH   3  16
ATOM     16  O   UNL     1       4.768   3.911  18.169  0.00  0.00    +0.000 OA
BRANCH  16  17
ATOM     17  C   UNL     1       5.402   4.196  16.984  0.00  0.00    +0.000 A 
ATOM     18  C   UNL     1       4.833   3.980  15.731  0.00  0.00    +0.000 A 
ATOM     19  C   UNL     1       5.568   4.271  14.584  0.00  0.00    +0.000 A 
ATOM     20  F   UNL     1       5.007   4.093  13.382  0.00  0.00    +0.000 F 
ATOM     21  C   UNL     1       6.874   4.752  14.663  0.00  0.00    +0.000 A 
ATOM     22  C   UNL     1       7.460   4.937  15.913  0.00  0.00    +0.000 A 
ATOM     23  C   UNL     1       6.723   4.657  17.064  0.00  0.00    +0.000 A 
ATOM     24  F   UNL     1       7.302   4.839  18.258  0.00  0.00    +0.000 F 
ENDBRANCH  16  17
ENDBRANCH   3  16
BRANCH   4  25
ATOM     25  O   UNL     1       3.138   3.232  20.569  0.00  0.00    +0.000 OA
BRANCH  25  26
ATOM     26  C   UNL     1       1.932   2.509  20.267  0.00  0.00    +0.000 C 
ATOM     27  C   UNL     1       0.710   3.432  20.200  0.00  0.00    +0.000 C 
ATOM     28  C   UNL     1       2.133   1.864  18.894  0.00  0.00    +0.000 C 
ENDBRANCH  25  26
ENDBRANCH   4  25
TORSDOF 5
ENDMDL
MODEL 8
REMARK VINA RESULT:      -7.9      1.298      1.659
REMARK  Name = 
REMARK  8 active torsions:
REMARK  status: ('A' for Active; 'I' for Inactive)
REMARK    1  A    between atoms: C_1  and  C_2
REMARK    2  A    between atoms: C_3  and  O_4
REMARK    3  A    between atoms: O_4  and  C_5
REMARK    4  A    between atoms: C_13  and  O_14
REMARK    5  A    between atoms: O_14  and  C_15
REMARK    6  A    between atoms: C_15  and  C_16
REMARK    7  A    between atoms: C_15  and  C_17
REMARK    8  A    between atoms: C_23  and  C_24
REMARK                            x       y       z     vdW  Elec       q    Type
REMARK                         _______ _______ _______ _____ _____    ______ ____
ROOT
ATOM      1  C   UNL     1       3.286   7.671  17.505  0.00  0.00    +0.000 C 
ATOM      2  C   UNL     1       2.769   7.019  18.740  0.00  0.00    +0.000 A 
ATOM      3  C   UNL     1       2.908   5.738  19.244  0.00  0.00    +0.000 A 
ATOM      4  C   UNL     1       2.189   5.738  20.448  0.00  0.00    +0.000 A 
ATOM      5  N   UNL     1       1.698   6.932  20.759  0.00  0.00    +0.000 NA
ATOM      6  N   UNL     1       1.968   7.700  19.666  0.00  0.00    +0.000 N 
ATOM      7  C   UNL     1       1.372   9.003  19.544  0.00  0.00    +0.000 A 
ATOM      8  C   UNL     1       0.620   9.506  20.604  0.00  0.00    +0.000 A 
ATOM      9  C   UNL     1      -0.089  10.697  20.427  0.00  0.00    +0.000 A 
ATOM     10  C   UNL     1      -0.060  11.375  19.203  0.00  0.00    +0.000 A 
ATOM     11  C   UNL     1       0.762  10.816  18.229  0.00  0.00    +0.000 A 
ATOM     12  N   UNL     1       1.478   9.669  18.367  0.00  0.00    +0.000 NA
ENDROOT
BRANCH  10  13
ATOM     13  C   UNL     1      -0.947  12.560  18.924  0.00  0.00    +0.000 C 
ATOM     14  C   UNL     1      -1.590  13.327  20.052  0.00  0.00    +0.000 C 
ATOM     15  C   UNL     1      -0.501  13.966  19.241  0.00  0.00    +0.000 C 
ENDBRANCH  10  13
BRANCH   3  16
ATOM     16  O   UNL     1       3.612   4.690  18.768  0.00  0.00    +0.000 OA
BRANCH  16  17
ATOM     17  C   UNL     1       4.922   4.755  18.361  0.00  0.00    +0.000 A 
ATOM     18  C   UNL     1       5.959   5.227  19.162  0.00  0.00    +0.000 A 
ATOM     19  C   UNL     1       7.252   5.283  18.648  0.00  0.00    +0.000 A 
ATOM     20  F   UNL     1       8.252   5.707  19.430  0.00  0.00    +0.000 F 
ATOM     21  C   UNL     1       7.529   4.900  17.336  0.00  0.00    +0.000 A 
ATOM     22  C   UNL     1       6.490   4.460  16.519  0.00  0.00    +0.000 A 
ATOM     23  C   UNL     1       5.195   4.391  17.035  0.00  0.00    +0.000 A 
ATOM     24  F   UNL     1       4.207   3.968  16.235  0.00  0.00    +0.000 F 
ENDBRANCH  16  17
ENDBRANCH   3  16
BRANCH   4  25
ATOM     25  O   UNL     1       1.962   4.669  21.249  0.00  0.00    +0.000 OA
BRANCH  25  26
ATOM     26  C   UNL     1       2.116   3.389  20.613  0.00  0.00    +0.000 C 
ATOM     27  C   UNL     1       2.586   2.311  21.595  0.00  0.00    +0.000 C 
ATOM     28  C   UNL     1       0.739   2.993  20.074  0.00  0.00    +0.000 C 
ENDBRANCH  25  26
ENDBRANCH   4  25
TORSDOF 5
ENDMDL
MODEL 9
REMARK VINA RESULT:      -7.6      1.135      1.881
REMARK  Name = 
REMARK  8 active torsions:
REMARK  status: ('A' for Active; 'I' for Inactive)
REMARK    1  A    between atoms: C_1  and  C_2
REMARK    2  A    between atoms: C_3  and  O_4
REMARK    3  A    between atoms: O_4  and  C_5
REMARK    4  A    between atoms: C_13  and  O_14
REMARK    5  A    between atoms: O_14  and  C_15
REMARK    6  A    between atoms: C_15  and  C_16
REMARK    7  A    between atoms: C_15  and  C_17
REMARK    8  A    between atoms: C_23  and  C_24
REMARK                            x       y       z     vdW  Elec       q    Type
REMARK                         _______ _______ _______ _____ _____    ______ ____
ROOT
ATOM      1  C   UNL     1       2.853   8.490  18.006  0.00  0.00    +0.000 C 
ATOM      2  C   UNL     1       2.458   7.292  18.797  0.00  0.00    +0.000 A 
ATOM      3  C   UNL     1       2.604   5.936  18.567  0.00  0.00    +0.000 A 
ATOM      4  C   UNL     1       2.031   5.311  19.685  0.00  0.00    +0.000 A 
ATOM      5  N   UNL     1       1.627   6.173  20.611  0.00  0.00    +0.000 NA
ATOM      6  N   UNL     1       1.798   7.394  20.029  0.00  0.00    +0.000 N 
ATOM      7  C   UNL     1       1.245   8.565  20.653  0.00  0.00    +0.000 A 
ATOM      8  C   UNL     1       0.642   8.446  21.904  0.00  0.00    +0.000 A 
ATOM      9  C   UNL     1      -0.034   9.547  22.438  0.00  0.00    +0.000 A 
ATOM     10  C   UNL     1      -0.121  10.750  21.728  0.00  0.00    +0.000 A 
ATOM     11  C   UNL     1       0.559  10.779  20.514  0.00  0.00    +0.000 A 
ATOM     12  N   UNL     1       1.240   9.736  19.969  0.00  0.00    +0.000 NA
ENDROOT
BRANCH  10  13
ATOM     13  C   UNL     1      -0.986  11.892  22.193  0.00  0.00    +0.000 C 
ATOM     14  C   UNL     1      -0.712  13.304  21.740  0.00  0.00    +0.000 C 
ATOM     15  C   UNL     1      -1.938  12.589  21.253  0.00  0.00    +0.000 C 
ENDBRANCH  10  13
BRANCH   3  16
ATOM     16  O   UNL     1       3.204   5.289  17.548  0.00  0.00    +0.000 OA
BRANCH  16  17
ATOM     17  C   UNL     1       4.550   5.345  17.277  0.00  0.00    +0.000 A 
ATOM     18  C   UNL     1       5.085   5.263  15.995  0.00  0.00    +0.000 A 
ATOM     19  C   UNL     1       6.467   5.298  15.824  0.00  0.00    +0.000 A 
ATOM     20  F   UNL     1       6.978   5.252  14.588  0.00  0.00    +0.000 F 
ATOM     21  C   UNL     1       7.330   5.386  16.916  0.00  0.00    +0.000 A 
ATOM     22  C   UNL     1       6.801   5.433  18.203  0.00  0.00    +0.000 A 
ATOM     23  C   UNL     1       5.417   5.410  18.377  0.00  0.00    +0.000 A 
ATOM     24  F   UNL     1       4.925   5.454  19.622  0.00  0.00    +0.000 F 
ENDBRANCH  16  17
ENDBRANCH   3  16
BRANCH   4  25
ATOM     25  O   UNL     1       1.856   3.979  19.860  0.00  0.00    +0.000 OA
BRANCH  25  26
ATOM     26  C   UNL     1       2.644   3.396  20.912  0.00  0.00    +0.000 C 
ATOM     27  C   UNL     1       1.801   2.520  21.844  0.00  0.00    +0.000 C 
ATOM     28  C   UNL     1       3.702   2.518  20.239  0.00  0.00    +0.000 C 
ENDBRANCH  25  26
ENDBRANCH   4  25
TORSDOF 5
ENDMDL
