MODEL 1
REMARK VINA RESULT:      -7.8      0.000      0.000
REMARK  Name = 
REMARK  7 active torsions:
REMARK  status: ('A' for Active; 'I' for Inactive)
REMARK    1  A    between atoms: C_1  and  C_2
REMARK    2  A    between atoms: C_5  and  N_6
REMARK    3  A    between atoms: C_7  and  S_8
REMARK    4  A    between atoms: C_11  and  C_12
REMARK    5  A    between atoms: C_12  and  N_13
REMARK    6  A    between atoms: C_17  and  C_18
REMARK    7  A    between atoms: C_17  and  C_24
REMARK                            x       y       z     vdW  Elec       q    Type
REMARK                         _______ _______ _______ _____ _____    ______ ____
ROOT
ATOM      1  N   UNL     1       1.663   8.630  18.233  0.00  0.00    +0.000 N 
ATOM      2  C   UNL     1       1.885   7.256  18.440  0.00  0.00    +0.000 C 
ATOM      3  O   UNL     1       1.741   6.848  19.587  0.00  0.00    +0.000 OA
ATOM      4  N   UNL     1       2.445   6.397  17.375  0.00  0.00    +0.000 N 
ATOM      5  C   UNL     1       3.651   5.195  17.834  0.00  0.00    +0.000 C 
ATOM      6  C   UNL     1       2.918   9.543  17.831  0.00  0.00    +0.000 C 
ATOM      7  O   UNL     1       2.708  10.797  17.830  0.00  0.00    +0.000 OA
ATOM      8  H   UNL     1       2.748   6.919  16.567  0.00  0.00    +0.000 HD
ENDROOT
BRANCH   5   9
ATOM      9  C   UNL     1       5.028   5.827  18.167  0.00  0.00    +0.000 A 
ATOM     10  C   UNL     1       5.905   5.322  19.133  0.00  0.00    +0.000 A 
ATOM     11  C   UNL     1       7.223   5.777  19.189  0.00  0.00    +0.000 A 
ATOM     12  C   UNL     1       7.669   6.753  18.299  0.00  0.00    +0.000 A 
ATOM     13  C   UNL     1       6.795   7.286  17.354  0.00  0.00    +0.000 A 
ATOM     14  C   UNL     1       5.481   6.825  17.288  0.00  0.00    +0.000 A 
ENDBRANCH   5   9
BRANCH   5  15
ATOM     15  C   UNL     1       2.808   4.654  19.034  0.00  0.00    +0.000 A 
ATOM     16  C   UNL     1       1.715   3.812  18.672  0.00  0.00    +0.000 A 
ATOM     17  C   UNL     1       0.884   3.227  19.624  0.00  0.00    +0.000 A 
ATOM     18  C   UNL     1       1.174   3.401  20.970  0.00  0.00    +0.000 A 
ATOM     19  C   UNL     1       2.303   4.130  21.350  0.00  0.00    +0.000 A 
ATOM     20  C   UNL     1       3.133   4.734  20.393  0.00  0.00    +0.000 A 
ENDBRANCH   5  15
BRANCH   1  21
ATOM     21  C   UNL     1       0.838   9.453  19.157  0.00  0.00    +0.000 C 
BRANCH  21  26
ATOM     22  N   UNL     1      -1.263  11.027  19.297  0.00  0.00    +0.000 N 
ATOM     23  C   UNL     1      -2.335  11.103  18.408  0.00  0.00    +0.000 A 
ATOM     24  N   UNL     1      -2.036  10.523  17.269  0.00  0.00    +0.000 NA
ATOM     25  N   UNL     1      -0.858   9.869  17.435  0.00  0.00    +0.000 NA
ATOM     26  C   UNL     1      -0.439  10.060  18.675  0.00  0.00    +0.000 A 
BRANCH  22  31
ATOM     27  C   UNL     1      -1.121  14.456  23.940  0.00  0.00    +0.000 C 
ATOM     28  C   UNL     1      -0.937  13.541  22.763  0.00  0.00    +0.000 A 
ATOM     29  C   UNL     1      -0.657  14.043  21.494  0.00  0.00    +0.000 A 
ATOM     30  C   UNL     1      -0.687  13.202  20.370  0.00  0.00    +0.000 A 
ATOM     31  C   UNL     1      -1.015  11.848  20.465  0.00  0.00    +0.000 A 
ATOM     32  C   UNL     1      -1.197  11.336  21.764  0.00  0.00    +0.000 A 
ATOM     33  C   UNL     1      -1.150  12.170  22.895  0.00  0.00    +0.000 A 
ENDBRANCH  22  31
BRANCH  23  34
ATOM     34  S   UNL     1      -3.929  11.704  18.735  0.00  0.00    +0.000 S 
ATOM     35  H   UNL     1      -4.484  10.568  19.176  0.00  0.00    +0.000 HD
ENDBRANCH  23  34
ENDBRANCH  21  26
ENDBRANCH   1  21
TORSDOF 6
ENDMDL
MODEL 2
REMARK VINA RESULT:      -7.4      2.404      3.020
REMARK  Name = 
REMARK  7 active torsions:
REMARK  status: ('A' for Active; 'I' for Inactive)
REMARK    1  A    between atoms: C_1  and  C_2
REMARK    2  A    between atoms: C_5  and  N_6
REMARK    3  A    between atoms: C_7  and  S_8
REMARK    4  A    between atoms: C_11  and  C_12
REMARK    5  A    between atoms: C_12  and  N_13
REMARK    6  A    between atoms: C_17  and  C_18
REMARK    7  A    between atoms: C_17  and  C_24
REMARK                            x       y       z     vdW  Elec       q    Type
REMARK                         _______ _______ _______ _____ _____    ______ ____
ROOT
ATOM      1  N   UNL     1       2.018   7.611  19.012  0.00  0.00    +0.000 N 
ATOM      2  C   UNL     1       2.152   6.210  19.033  0.00  0.00    +0.000 C 
ATOM      3  O   UNL     1       2.801   5.739  19.962  0.00  0.00    +0.000 OA
ATOM      4  N   UNL     1       1.703   5.375  17.899  0.00  0.00    +0.000 N 
ATOM      5  C   UNL     1       2.729   4.029  17.407  0.00  0.00    +0.000 C 
ATOM      6  C   UNL     1       2.736   8.418  17.828  0.00  0.00    +0.000 C 
ATOM      7  O   UNL     1       2.738   9.684  17.949  0.00  0.00    +0.000 OA
ATOM      8  H   UNL     1       1.417   5.920  17.100  0.00  0.00    +0.000 HD
ENDROOT
BRANCH   5   9
ATOM      9  C   UNL     1       4.011   4.494  16.668  0.00  0.00    +0.000 A 
ATOM     10  C   UNL     1       4.610   5.744  16.855  0.00  0.00    +0.000 A 
ATOM     11  C   UNL     1       5.894   5.986  16.366  0.00  0.00    +0.000 A 
ATOM     12  C   UNL     1       6.580   4.993  15.668  0.00  0.00    +0.000 A 
ATOM     13  C   UNL     1       5.980   3.755  15.449  0.00  0.00    +0.000 A 
ATOM     14  C   UNL     1       4.703   3.506  15.947  0.00  0.00    +0.000 A 
ENDBRANCH   5   9
BRANCH   5  15
ATOM     15  C   UNL     1       2.904   3.493  18.866  0.00  0.00    +0.000 A 
ATOM     16  C   UNL     1       1.698   3.071  19.501  0.00  0.00    +0.000 A 
ATOM     17  C   UNL     1       1.687   2.543  20.790  0.00  0.00    +0.000 A 
ATOM     18  C   UNL     1       2.893   2.344  21.448  0.00  0.00    +0.000 A 
ATOM     19  C   UNL     1       4.095   2.648  20.804  0.00  0.00    +0.000 A 
ATOM     20  C   UNL     1       4.109   3.195  19.512  0.00  0.00    +0.000 A 
ENDBRANCH   5  15
BRANCH   1  21
ATOM     21  C   UNL     1       2.178   8.446  20.232  0.00  0.00    +0.000 C 
BRANCH  21  26
ATOM     22  N   UNL     1       0.390  10.157  21.120  0.00  0.00    +0.000 N 
ATOM     23  C   UNL     1      -0.629   9.926  22.043  0.00  0.00    +0.000 A 
ATOM     24  N   UNL     1      -0.833   8.638  22.198  0.00  0.00    +0.000 NA
ATOM     25  N   UNL     1       0.167   7.981  21.557  0.00  0.00    +0.000 NA
ATOM     26  C   UNL     1       0.974   8.873  21.006  0.00  0.00    +0.000 A 
BRANCH  22  31
ATOM     27  C   UNL     1       0.869  15.357  18.659  0.00  0.00    +0.000 C 
ATOM     28  C   UNL     1       0.903  13.940  19.155  0.00  0.00    +0.000 A 
ATOM     29  C   UNL     1       0.074  12.963  18.607  0.00  0.00    +0.000 A 
ATOM     30  C   UNL     1      -0.033  11.698  19.207  0.00  0.00    +0.000 A 
ATOM     31  C   UNL     1       0.659  11.370  20.376  0.00  0.00    +0.000 A 
ATOM     32  C   UNL     1       1.566  12.332  20.858  0.00  0.00    +0.000 A 
ATOM     33  C   UNL     1       1.691  13.594  20.251  0.00  0.00    +0.000 A 
ENDBRANCH  22  31
BRANCH  23  34
ATOM     34  S   UNL     1      -1.445  11.102  23.022  0.00  0.00    +0.000 S 
ATOM     35  H   UNL     1      -1.030  12.209  22.393  0.00  0.00    +0.000 HD
ENDBRANCH  23  34
ENDBRANCH  21  26
ENDBRANCH   1  21
TORSDOF 6
ENDMDL
MODEL 3
REMARK VINA RESULT:      -7.3      2.152      2.564
REMARK  Name = 
REMARK  7 active torsions:
REMARK  status: ('A' for Active; 'I' for Inactive)
REMARK    1  A    between atoms: C_1  and  C_2
REMARK    2  A    between atoms: C_5  and  N_6
REMARK    3  A    between atoms: C_7  and  S_8
REMARK    4  A    between atoms: C_11  and  C_12
REMARK    5  A    between atoms: C_12  and  N_13
REMARK    6  A    between atoms: C_17  and  C_18
REMARK    7  A    between atoms: C_17  and  C_24
REMARK                            x       y       z     vdW  Elec       q    Type
REMARK                         _______ _______ _______ _____ _____    ______ ____
ROOT
ATOM      1  N   UNL     1       1.843   7.943  18.447  0.00  0.00    +0.000 N 
ATOM      2  C   UNL     1       1.892   6.554  18.669  0.00  0.00    +0.000 C 
ATOM      3  O   UNL     1       2.106   6.195  19.821  0.00  0.00    +0.000 OA
ATOM      4  N   UNL     1       1.880   5.594  17.545  0.00  0.00    +0.000 N 
ATOM      5  C   UNL     1       2.952   4.198  17.641  0.00  0.00    +0.000 C 
ATOM      6  C   UNL     1       3.001   8.606  17.560  0.00  0.00    +0.000 C 
ATOM      7  O   UNL     1       3.016   9.877  17.536  0.00  0.00    +0.000 OA
ATOM      8  H   UNL     1       1.953   6.042  16.645  0.00  0.00    +0.000 HD
ENDROOT
BRANCH   5   9
ATOM      9  C   UNL     1       4.441   4.571  17.417  0.00  0.00    +0.000 A 
ATOM     10  C   UNL     1       5.263   5.126  18.404  0.00  0.00    +0.000 A 
ATOM     11  C   UNL     1       6.644   5.184  18.214  0.00  0.00    +0.000 A 
ATOM     12  C   UNL     1       7.212   4.712  17.031  0.00  0.00    +0.000 A 
ATOM     13  C   UNL     1       6.399   4.187  16.029  0.00  0.00    +0.000 A 
ATOM     14  C   UNL     1       5.020   4.116  16.221  0.00  0.00    +0.000 A 
ENDBRANCH   5   9
BRANCH   5  15
ATOM     15  C   UNL     1       2.521   3.835  19.100  0.00  0.00    +0.000 A 
ATOM     16  C   UNL     1       1.176   3.378  19.235  0.00  0.00    +0.000 A 
ATOM     17  C   UNL     1       0.647   2.990  20.463  0.00  0.00    +0.000 A 
ATOM     18  C   UNL     1       1.474   2.968  21.577  0.00  0.00    +0.000 A 
ATOM     19  C   UNL     1       2.823   3.306  21.449  0.00  0.00    +0.000 A 
ATOM     20  C   UNL     1       3.356   3.713  20.216  0.00  0.00    +0.000 A 
ENDBRANCH   5  15
BRANCH   1  21
ATOM     21  C   UNL     1       1.556   8.915  19.536  0.00  0.00    +0.000 C 
BRANCH  21  26
ATOM     22  N   UNL     1       0.388  11.271  19.508  0.00  0.00    +0.000 N 
ATOM     23  C   UNL     1      -0.974  11.548  19.394  0.00  0.00    +0.000 A 
ATOM     24  N   UNL     1      -1.628  10.497  18.958  0.00  0.00    +0.000 NA
ATOM     25  N   UNL     1      -0.772   9.443  18.970  0.00  0.00    +0.000 NA
ATOM     26  C   UNL     1       0.405   9.859  19.407  0.00  0.00    +0.000 A 
BRANCH  22  31
ATOM     27  C   UNL     1       4.161  15.635  19.722  0.00  0.00    +0.000 C 
ATOM     28  C   UNL     1       3.360  14.366  19.668  0.00  0.00    +0.000 A 
ATOM     29  C   UNL     1       3.006  13.786  18.453  0.00  0.00    +0.000 A 
ATOM     30  C   UNL     1       2.092  12.720  18.408  0.00  0.00    +0.000 A 
ATOM     31  C   UNL     1       1.487  12.213  19.561  0.00  0.00    +0.000 A 
ATOM     32  C   UNL     1       1.931  12.743  20.787  0.00  0.00    +0.000 A 
ATOM     33  C   UNL     1       2.859  13.797  20.838  0.00  0.00    +0.000 A 
ENDBRANCH  22  31
BRANCH  23  34
ATOM     34  S   UNL     1      -1.797  12.989  19.898  0.00  0.00    +0.000 S 
ATOM     35  H   UNL     1      -2.542  13.187  18.804  0.00  0.00    +0.000 HD
ENDBRANCH  23  34
ENDBRANCH  21  26
ENDBRANCH   1  21
TORSDOF 6
ENDMDL
MODEL 4
REMARK VINA RESULT:      -7.3      0.808      1.289
REMARK  Name = 
REMARK  7 active torsions:
REMARK  status: ('A' for Active; 'I' for Inactive)
REMARK    1  A    between atoms: C_1  and  C_2
REMARK    2  A    between atoms: C_5  and  N_6
REMARK    3  A    between atoms: C_7  and  S_8
REMARK    4  A    between atoms: C_11  and  C_12
REMARK    5  A    between atoms: C_12  and  N_13
REMARK    6  A    between atoms: C_17  and  C_18
REMARK    7  A    between atoms: C_17  and  C_24
REMARK                            x       y       z     vdW  Elec       q    Type
REMARK                         _______ _______ _______ _____ _____    ______ ____
ROOT
ATOM      1  N   UNL     1       1.681   8.748  18.256  0.00  0.00    +0.000 N 
ATOM      2  C   UNL     1       1.886   7.368  18.444  0.00  0.00    +0.000 C 
ATOM      3  O   UNL     1       1.763   6.952  19.592  0.00  0.00    +0.000 OA
ATOM      4  N   UNL     1       2.407   6.510  17.359  0.00  0.00    +0.000 N 
ATOM      5  C   UNL     1       3.604   5.286  17.778  0.00  0.00    +0.000 C 
ATOM      6  C   UNL     1       2.939   9.645  17.831  0.00  0.00    +0.000 C 
ATOM      7  O   UNL     1       2.748  10.902  17.846  0.00  0.00    +0.000 OA
ATOM      8  H   UNL     1       2.698   7.036  16.549  0.00  0.00    +0.000 HD
ENDROOT
BRANCH   5   9
ATOM      9  C   UNL     1       4.999   5.894  18.083  0.00  0.00    +0.000 A 
ATOM     10  C   UNL     1       5.886   5.375  19.032  0.00  0.00    +0.000 A 
ATOM     11  C   UNL     1       7.213   5.805  19.061  0.00  0.00    +0.000 A 
ATOM     12  C   UNL     1       7.657   6.773  18.161  0.00  0.00    +0.000 A 
ATOM     13  C   UNL     1       6.774   7.321  17.233  0.00  0.00    +0.000 A 
ATOM     14  C   UNL     1       5.452   6.883  17.194  0.00  0.00    +0.000 A 
ENDBRANCH   5   9
BRANCH   5  15
ATOM     15  C   UNL     1       2.783   4.747  18.994  0.00  0.00    +0.000 A 
ATOM     16  C   UNL     1       1.680   3.908  18.651  0.00  0.00    +0.000 A 
ATOM     17  C   UNL     1       0.865   3.326  19.619  0.00  0.00    +0.000 A 
ATOM     18  C   UNL     1       1.181   3.498  20.959  0.00  0.00    +0.000 A 
ATOM     19  C   UNL     1       2.319   4.224  21.318  0.00  0.00    +0.000 A 
ATOM     20  C   UNL     1       3.133   4.826  20.346  0.00  0.00    +0.000 A 
ENDBRANCH   5  15
BRANCH   1  21
ATOM     21  C   UNL     1       0.891   9.575  19.206  0.00  0.00    +0.000 C 
BRANCH  21  26
ATOM     22  N   UNL     1      -1.062  11.334  19.165  0.00  0.00    +0.000 N 
ATOM     23  C   UNL     1      -2.303  11.220  18.538  0.00  0.00    +0.000 A 
ATOM     24  N   UNL     1      -2.291  10.245  17.658  0.00  0.00    +0.000 NA
ATOM     25  N   UNL     1      -1.131   9.557  17.819  0.00  0.00    +0.000 NA
ATOM     26  C   UNL     1      -0.437  10.120  18.794  0.00  0.00    +0.000 A 
BRANCH  22  31
ATOM     27  C   UNL     1       1.790  15.418  22.083  0.00  0.00    +0.000 C 
ATOM     28  C   UNL     1       0.878  14.502  21.318  0.00  0.00    +0.000 A 
ATOM     29  C   UNL     1       0.025  13.619  21.974  0.00  0.00    +0.000 A 
ATOM     30  C   UNL     1      -0.672  12.632  21.256  0.00  0.00    +0.000 A 
ATOM     31  C   UNL     1      -0.526  12.477  19.876  0.00  0.00    +0.000 A 
ATOM     32  C   UNL     1       0.261  13.439  19.217  0.00  0.00    +0.000 A 
ATOM     33  C   UNL     1       0.945  14.441  19.927  0.00  0.00    +0.000 A 
ENDBRANCH  22  31
BRANCH  23  34
ATOM     34  S   UNL     1      -3.757  12.080  18.925  0.00  0.00    +0.000 S 
ATOM     35  H   UNL     1      -4.612  11.051  18.899  0.00  0.00    +0.000 HD
ENDBRANCH  23  34
ENDBRANCH  21  26
ENDBRANCH   1  21
TORSDOF 6
ENDMDL
MODEL 5
REMARK VINA RESULT:      -7.3      5.542     10.546
REMARK  Name = 
REMARK  7 active torsions:
REMARK  status: ('A' for Active; 'I' for Inactive)
REMARK    1  A    between atoms: C_1  and  C_2
REMARK    2  A    between atoms: C_5  and  N_6
REMARK    3  A    between atoms: C_7  and  S_8
REMARK    4  A    between atoms: C_11  and  C_12
REMARK    5  A    between atoms: C_12  and  N_13
REMARK    6  A    between atoms: C_17  and  C_18
REMARK    7  A    between atoms: C_17  and  C_24
REMARK                            x       y       z     vdW  Elec       q    Type
REMARK                         _______ _______ _______ _____ _____    ______ ____
ROOT
ATOM      1  N   UNL     1      -2.850  13.286  22.033  0.00  0.00    +0.000 N 
ATOM      2  C   UNL     1      -4.041  12.885  21.400  0.00  0.00    +0.000 C 
ATOM      3  O   UNL     1      -4.159  13.194  20.219  0.00  0.00    +0.000 OA
ATOM      4  N   UNL     1      -5.162  12.300  22.165  0.00  0.00    +0.000 N 
ATOM      5  C   UNL     1      -6.799  12.804  21.747  0.00  0.00    +0.000 C 
ATOM      6  C   UNL     1      -2.946  14.390  23.190  0.00  0.00    +0.000 C 
ATOM      7  O   UNL     1      -1.836  14.848  23.607  0.00  0.00    +0.000 OA
ATOM      8  H   UNL     1      -5.018  12.337  23.162  0.00  0.00    +0.000 HD
ENDROOT
BRANCH   5   9
ATOM      9  C   UNL     1      -7.119  14.246  22.218  0.00  0.00    +0.000 A 
ATOM     10  C   UNL     1      -6.600  14.821  23.384  0.00  0.00    +0.000 A 
ATOM     11  C   UNL     1      -6.714  16.194  23.600  0.00  0.00    +0.000 A 
ATOM     12  C   UNL     1      -7.367  17.001  22.667  0.00  0.00    +0.000 A 
ATOM     13  C   UNL     1      -7.915  16.435  21.519  0.00  0.00    +0.000 A 
ATOM     14  C   UNL     1      -7.791  15.065  21.295  0.00  0.00    +0.000 A 
ENDBRANCH   5   9
BRANCH   5  15
ATOM     15  C   UNL     1      -6.587  12.588  20.213  0.00  0.00    +0.000 A 
ATOM     16  C   UNL     1      -6.602  11.225  19.788  0.00  0.00    +0.000 A 
ATOM     17  C   UNL     1      -6.455  10.866  18.451  0.00  0.00    +0.000 A 
ATOM     18  C   UNL     1      -6.371  11.863  17.490  0.00  0.00    +0.000 A 
ATOM     19  C   UNL     1      -6.463  13.204  17.868  0.00  0.00    +0.000 A 
ATOM     20  C   UNL     1      -6.596  13.571  19.217  0.00  0.00    +0.000 A 
ENDBRANCH   5  15
BRANCH   1  21
ATOM     21  C   UNL     1      -1.608  13.595  21.276  0.00  0.00    +0.000 C 
BRANCH  21  26
ATOM     22  N   UNL     1      -0.579  11.470  20.117  0.00  0.00    +0.000 N 
ATOM     23  C   UNL     1       0.578  10.778  20.473  0.00  0.00    +0.000 A 
ATOM     24  N   UNL     1       1.322  11.501  21.278  0.00  0.00    +0.000 NA
ATOM     25  N   UNL     1       0.598  12.589  21.646  0.00  0.00    +0.000 NA
ATOM     26  C   UNL     1      -0.584  12.529  21.056  0.00  0.00    +0.000 A 
BRANCH  22  31
ATOM     27  C   UNL     1      -3.386  10.041  15.279  0.00  0.00    +0.000 C 
ATOM     28  C   UNL     1      -2.841  10.527  16.591  0.00  0.00    +0.000 A 
ATOM     29  C   UNL     1      -2.139  11.726  16.683  0.00  0.00    +0.000 A 
ATOM     30  C   UNL     1      -1.464  12.071  17.866  0.00  0.00    +0.000 A 
ATOM     31  C   UNL     1      -1.446  11.230  18.981  0.00  0.00    +0.000 A 
ATOM     32  C   UNL     1      -2.241  10.072  18.906  0.00  0.00    +0.000 A 
ATOM     33  C   UNL     1      -2.934   9.731  17.732  0.00  0.00    +0.000 A 
ENDBRANCH  22  31
BRANCH  23  34
ATOM     34  S   UNL     1       0.975   9.133  20.096  0.00  0.00    +0.000 S 
ATOM     35  H   UNL     1       0.299   9.022  18.946  0.00  0.00    +0.000 HD
ENDBRANCH  23  34
ENDBRANCH  21  26
ENDBRANCH   1  21
TORSDOF 6
ENDMDL
MODEL 6
REMARK VINA RESULT:      -7.2      4.369      7.442
REMARK  Name = 
REMARK  7 active torsions:
REMARK  status: ('A' for Active; 'I' for Inactive)
REMARK    1  A    between atoms: C_1  and  C_2
REMARK    2  A    between atoms: C_5  and  N_6
REMARK    3  A    between atoms: C_7  and  S_8
REMARK    4  A    between atoms: C_11  and  C_12
REMARK    5  A    between atoms: C_12  and  N_13
REMARK    6  A    between atoms: C_17  and  C_18
REMARK    7  A    between atoms: C_17  and  C_24
REMARK                            x       y       z     vdW  Elec       q    Type
REMARK                         _______ _______ _______ _____ _____    ______ ____
ROOT
ATOM      1  N   UNL     1      -1.799  14.134  20.684  0.00  0.00    +0.000 N 
ATOM      2  C   UNL     1      -1.729  13.152  19.679  0.00  0.00    +0.000 C 
ATOM      3  O   UNL     1      -2.749  12.497  19.486  0.00  0.00    +0.000 OA
ATOM      4  N   UNL     1      -0.448  12.801  19.031  0.00  0.00    +0.000 N 
ATOM      5  C   UNL     1      -0.121  11.098  18.715  0.00  0.00    +0.000 C 
ATOM      6  C   UNL     1      -0.918  13.922  22.007  0.00  0.00    +0.000 C 
ATOM      7  O   UNL     1      -1.147  14.736  22.956  0.00  0.00    +0.000 OA
ATOM      8  H   UNL     1       0.347  13.245  19.466  0.00  0.00    +0.000 HD
ENDROOT
BRANCH   5   9
ATOM      9  C   UNL     1       0.216  10.305  20.005  0.00  0.00    +0.000 A 
ATOM     10  C   UNL     1      -0.462  10.462  21.219  0.00  0.00    +0.000 A 
ATOM     11  C   UNL     1      -0.285   9.536  22.246  0.00  0.00    +0.000 A 
ATOM     12  C   UNL     1       0.586   8.460  22.081  0.00  0.00    +0.000 A 
ATOM     13  C   UNL     1       1.291   8.311  20.889  0.00  0.00    +0.000 A 
ATOM     14  C   UNL     1       1.107   9.228  19.855  0.00  0.00    +0.000 A 
ENDBRANCH   5   9
BRANCH   5  15
ATOM     15  C   UNL     1      -1.521  10.840  18.069  0.00  0.00    +0.000 A 
ATOM     16  C   UNL     1      -1.742  11.505  16.825  0.00  0.00    +0.000 A 
ATOM     17  C   UNL     1      -2.926  11.358  16.108  0.00  0.00    +0.000 A 
ATOM     18  C   UNL     1      -3.892  10.476  16.573  0.00  0.00    +0.000 A 
ATOM     19  C   UNL     1      -3.654   9.731  17.731  0.00  0.00    +0.000 A 
ATOM     20  C   UNL     1      -2.468   9.888  18.464  0.00  0.00    +0.000 A 
ENDBRANCH   5  15
BRANCH   1  21
ATOM     21  C   UNL     1      -3.087  14.718  21.142  0.00  0.00    +0.000 C 
BRANCH  21  26
ATOM     22  N   UNL     1      -5.436  13.570  20.862  0.00  0.00    +0.000 N 
ATOM     23  C   UNL     1      -6.092  12.733  21.764  0.00  0.00    +0.000 A 
ATOM     24  N   UNL     1      -5.257  12.285  22.674  0.00  0.00    +0.000 NA
ATOM     25  N   UNL     1      -4.089  12.965  22.533  0.00  0.00    +0.000 NA
ATOM     26  C   UNL     1      -4.216  13.820  21.532  0.00  0.00    +0.000 A 
BRANCH  22  31
ATOM     27  C   UNL     1      -7.916  14.914  15.825  0.00  0.00    +0.000 C 
ATOM     28  C   UNL     1      -7.077  14.612  17.033  0.00  0.00    +0.000 A 
ATOM     29  C   UNL     1      -6.585  13.330  17.268  0.00  0.00    +0.000 A 
ATOM     30  C   UNL     1      -5.976  13.012  18.494  0.00  0.00    +0.000 A 
ATOM     31  C   UNL     1      -5.858  13.943  19.527  0.00  0.00    +0.000 A 
ATOM     32  C   UNL     1      -6.269  15.258  19.237  0.00  0.00    +0.000 A 
ATOM     33  C   UNL     1      -6.862  15.587  18.005  0.00  0.00    +0.000 A 
ENDBRANCH  22  31
BRANCH  23  34
ATOM     34  S   UNL     1      -7.794  12.413  21.853  0.00  0.00    +0.000 S 
ATOM     35  H   UNL     1      -7.775  11.125  21.487  0.00  0.00    +0.000 HD
ENDBRANCH  23  34
ENDBRANCH  21  26
ENDBRANCH   1  21
TORSDOF 6
ENDMDL
MODEL 7
REMARK VINA RESULT:      -7.2      4.051      7.073
REMARK  Name = 
REMARK  7 active torsions:
REMARK  status: ('A' for Active; 'I' for Inactive)
REMARK    1  A    between atoms: C_1  and  C_2
REMARK    2  A    between atoms: C_5  and  N_6
REMARK    3  A    between atoms: C_7  and  S_8
REMARK    4  A    between atoms: C_11  and  C_12
REMARK    5  A    between atoms: C_12  and  N_13
REMARK    6  A    between atoms: C_17  and  C_18
REMARK    7  A    between atoms: C_17  and  C_24
REMARK                            x       y       z     vdW  Elec       q    Type
REMARK                         _______ _______ _______ _____ _____    ______ ____
ROOT
ATOM      1  N   UNL     1      -1.289  13.955  20.287  0.00  0.00    +0.000 N 
ATOM      2  C   UNL     1      -1.474  12.966  19.303  0.00  0.00    +0.000 C 
ATOM      3  O   UNL     1      -2.555  12.388  19.310  0.00  0.00    +0.000 OA
ATOM      4  N   UNL     1      -0.360  12.518  18.440  0.00  0.00    +0.000 N 
ATOM      5  C   UNL     1      -0.219  10.794  18.101  0.00  0.00    +0.000 C 
ATOM      6  C   UNL     1      -0.199  13.685  21.431  0.00  0.00    +0.000 C 
ATOM      7  O   UNL     1      -0.193  14.518  22.391  0.00  0.00    +0.000 OA
ATOM      8  H   UNL     1       0.530  12.904  18.716  0.00  0.00    +0.000 HD
ENDROOT
BRANCH   5   9
ATOM      9  C   UNL     1       0.289   9.985  19.323  0.00  0.00    +0.000 A 
ATOM     10  C   UNL     1      -0.379   9.922  20.551  0.00  0.00    +0.000 A 
ATOM     11  C   UNL     1      -0.009   8.971  21.503  0.00  0.00    +0.000 A 
ATOM     12  C   UNL     1       1.043   8.092  21.246  0.00  0.00    +0.000 A 
ATOM     13  C   UNL     1       1.735   8.167  20.040  0.00  0.00    +0.000 A 
ATOM     14  C   UNL     1       1.360   9.108  19.083  0.00  0.00    +0.000 A 
ENDBRANCH   5   9
BRANCH   5  15
ATOM     15  C   UNL     1      -1.729  10.638  17.724  0.00  0.00    +0.000 A 
ATOM     16  C   UNL     1      -2.116  11.283  16.511  0.00  0.00    +0.000 A 
ATOM     17  C   UNL     1      -3.418  11.217  16.021  0.00  0.00    +0.000 A 
ATOM     18  C   UNL     1      -4.350  10.433  16.687  0.00  0.00    +0.000 A 
ATOM     19  C   UNL     1      -3.967   9.704  17.815  0.00  0.00    +0.000 A 
ATOM     20  C   UNL     1      -2.660   9.781  18.321  0.00  0.00    +0.000 A 
ENDBRANCH   5  15
BRANCH   1  21
ATOM     21  C   UNL     1      -2.427  14.635  20.959  0.00  0.00    +0.000 C 
BRANCH  21  26
ATOM     22  N   UNL     1      -4.823  13.653  21.420  0.00  0.00    +0.000 N 
ATOM     23  C   UNL     1      -5.236  12.885  22.508  0.00  0.00    +0.000 A 
ATOM     24  N   UNL     1      -4.202  12.398  23.154  0.00  0.00    +0.000 NA
ATOM     25  N   UNL     1      -3.086  12.988  22.653  0.00  0.00    +0.000 NA
ATOM     26  C   UNL     1      -3.446  13.829  21.697  0.00  0.00    +0.000 A 
BRANCH  22  31
ATOM     27  C   UNL     1      -7.127  15.255  16.375  0.00  0.00    +0.000 C 
ATOM     28  C   UNL     1      -6.739  14.818  17.759  0.00  0.00    +0.000 A 
ATOM     29  C   UNL     1      -6.538  15.744  18.779  0.00  0.00    +0.000 A 
ATOM     30  C   UNL     1      -5.983  15.346  20.007  0.00  0.00    +0.000 A 
ATOM     31  C   UNL     1      -5.592  14.028  20.251  0.00  0.00    +0.000 A 
ATOM     32  C   UNL     1      -5.893  13.088  19.248  0.00  0.00    +0.000 A 
ATOM     33  C   UNL     1      -6.466  13.477  18.025  0.00  0.00    +0.000 A 
ENDBRANCH  22  31
BRANCH  23  34
ATOM     34  S   UNL     1      -6.854  12.690  23.101  0.00  0.00    +0.000 S 
ATOM     35  H   UNL     1      -7.461  13.599  22.328  0.00  0.00    +0.000 HD
ENDBRANCH  23  34
ENDBRANCH  21  26
ENDBRANCH   1  21
TORSDOF 6
ENDMDL
MODEL 8
REMARK VINA RESULT:      -7.1      5.747      8.367
REMARK  Name = 
REMARK  7 active torsions:
REMARK  status: ('A' for Active; 'I' for Inactive)
REMARK    1  A    between atoms: C_1  and  C_2
REMARK    2  A    between atoms: C_5  and  N_6
REMARK    3  A    between atoms: C_7  and  S_8
REMARK    4  A    between atoms: C_11  and  C_12
REMARK    5  A    between atoms: C_12  and  N_13
REMARK    6  A    between atoms: C_17  and  C_18
REMARK    7  A    between atoms: C_17  and  C_24
REMARK                            x       y       z     vdW  Elec       q    Type
REMARK                         _______ _______ _______ _____ _____    ______ ____
ROOT
ATOM      1  N   UNL     1      -1.346  12.839  23.128  0.00  0.00    +0.000 N 
ATOM      2  C   UNL     1      -0.510  12.940  21.999  0.00  0.00    +0.000 C 
ATOM      3  O   UNL     1      -0.507  14.021  21.420  0.00  0.00    +0.000 OA
ATOM      4  N   UNL     1       0.170  11.754  21.436  0.00  0.00    +0.000 N 
ATOM      5  C   UNL     1       0.229  11.593  19.682  0.00  0.00    +0.000 C 
ATOM      6  C   UNL     1      -2.612  11.861  23.043  0.00  0.00    +0.000 C 
ATOM      7  O   UNL     1      -3.432  11.937  24.012  0.00  0.00    +0.000 OA
ATOM      8  H   UNL     1      -0.125  10.891  21.866  0.00  0.00    +0.000 HD
ENDROOT
BRANCH   5   9
ATOM      9  C   UNL     1      -1.142  11.203  19.070  0.00  0.00    +0.000 A 
ATOM     10  C   UNL     1      -2.329  11.907  19.301  0.00  0.00    +0.000 A 
ATOM     11  C   UNL     1      -3.455  11.661  18.514  0.00  0.00    +0.000 A 
ATOM     12  C   UNL     1      -3.412  10.696  17.508  0.00  0.00    +0.000 A 
ATOM     13  C   UNL     1      -2.246   9.967  17.291  0.00  0.00    +0.000 A 
ATOM     14  C   UNL     1      -1.116  10.219  18.067  0.00  0.00    +0.000 A 
ENDBRANCH   5   9
BRANCH   5  15
ATOM     15  C   UNL     1       0.714  13.063  19.457  0.00  0.00    +0.000 A 
ATOM     16  C   UNL     1       2.078  13.305  19.801  0.00  0.00    +0.000 A 
ATOM     17  C   UNL     1       2.671  14.554  19.635  0.00  0.00    +0.000 A 
ATOM     18  C   UNL     1       1.941  15.575  19.042  0.00  0.00    +0.000 A 
ATOM     19  C   UNL     1       0.639  15.331  18.597  0.00  0.00    +0.000 A 
ATOM     20  C   UNL     1       0.033  14.078  18.777  0.00  0.00    +0.000 A 
ENDBRANCH   5  15
BRANCH   1  21
ATOM     21  C   UNL     1      -1.801  14.031  23.892  0.00  0.00    +0.000 C 
BRANCH  21  26
ATOM     22  N   UNL     1      -3.493  15.487  22.503  0.00  0.00    +0.000 N 
ATOM     23  C   UNL     1      -3.281  16.750  21.951  0.00  0.00    +0.000 A 
ATOM     24  N   UNL     1      -2.222  17.318  22.480  0.00  0.00    +0.000 NA
ATOM     25  N   UNL     1      -1.585  16.383  23.233  0.00  0.00    +0.000 NA
ATOM     26  C   UNL     1      -2.265  15.251  23.164  0.00  0.00    +0.000 A 
BRANCH  22  31
ATOM     27  C   UNL     1      -7.914  11.801  22.944  0.00  0.00    +0.000 C 
ATOM     28  C   UNL     1      -6.909  12.895  22.724  0.00  0.00    +0.000 A 
ATOM     29  C   UNL     1      -6.120  12.932  21.577  0.00  0.00    +0.000 A 
ATOM     30  C   UNL     1      -5.050  13.836  21.474  0.00  0.00    +0.000 A 
ATOM     31  C   UNL     1      -4.717  14.712  22.509  0.00  0.00    +0.000 A 
ATOM     32  C   UNL     1      -5.584  14.732  23.617  0.00  0.00    +0.000 A 
ATOM     33  C   UNL     1      -6.667  13.842  23.718  0.00  0.00    +0.000 A 
ENDBRANCH  22  31
BRANCH  23  34
ATOM     34  S   UNL     1      -4.137  17.474  20.628  0.00  0.00    +0.000 S 
ATOM     35  H   UNL     1      -5.352  16.968  20.874  0.00  0.00    +0.000 HD
ENDBRANCH  23  34
ENDBRANCH  21  26
ENDBRANCH   1  21
TORSDOF 6
ENDMDL
MODEL 9
REMARK VINA RESULT:      -7.0      4.254      9.934
REMARK  Name = 
REMARK  7 active torsions:
REMARK  status: ('A' for Active; 'I' for Inactive)
REMARK    1  A    between atoms: C_1  and  C_2
REMARK    2  A    between atoms: C_5  and  N_6
REMARK    3  A    between atoms: C_7  and  S_8
REMARK    4  A    between atoms: C_11  and  C_12
REMARK    5  A    between atoms: C_12  and  N_13
REMARK    6  A    between atoms: C_17  and  C_18
REMARK    7  A    between atoms: C_17  and  C_24
REMARK                            x       y       z     vdW  Elec       q    Type
REMARK                         _______ _______ _______ _____ _____    ______ ____
ROOT
ATOM      1  N   UNL     1      -2.918  11.998  19.318  0.00  0.00    +0.000 N 
ATOM      2  C   UNL     1      -4.012  12.621  19.947  0.00  0.00    +0.000 C 
ATOM      3  O   UNL     1      -3.971  12.685  21.171  0.00  0.00    +0.000 OA
ATOM      4  N   UNL     1      -5.224  13.000  19.189  0.00  0.00    +0.000 N 
ATOM      5  C   UNL     1      -6.791  12.715  19.944  0.00  0.00    +0.000 C 
ATOM      6  C   UNL     1      -3.172  10.603  18.570  0.00  0.00    +0.000 C 
ATOM      7  O   UNL     1      -2.130   9.994  18.174  0.00  0.00    +0.000 OA
ATOM      8  H   UNL     1      -5.215  12.660  18.240  0.00  0.00    +0.000 HD
ENDROOT
BRANCH   5   9
ATOM      9  C   UNL     1      -7.176  11.213  19.976  0.00  0.00    +0.000 A 
ATOM     10  C   UNL     1      -6.793  10.288  18.998  0.00  0.00    +0.000 A 
ATOM     11  C   UNL     1      -6.945   8.921  19.229  0.00  0.00    +0.000 A 
ATOM     12  C   UNL     1      -7.501   8.467  20.425  0.00  0.00    +0.000 A 
ATOM     13  C   UNL     1      -7.916   9.380  21.391  0.00  0.00    +0.000 A 
ATOM     14  C   UNL     1      -7.753  10.747  21.169  0.00  0.00    +0.000 A 
ENDBRANCH   5   9
BRANCH   5  15
ATOM     15  C   UNL     1      -6.374  13.371  21.302  0.00  0.00    +0.000 A 
ATOM     16  C   UNL     1      -6.327  14.797  21.293  0.00  0.00    +0.000 A 
ATOM     17  C   UNL     1      -6.000  15.533  22.428  0.00  0.00    +0.000 A 
ATOM     18  C   UNL     1      -5.792  14.866  23.628  0.00  0.00    +0.000 A 
ATOM     19  C   UNL     1      -5.940  13.478  23.687  0.00  0.00    +0.000 A 
ATOM     20  C   UNL     1      -6.254  12.732  22.541  0.00  0.00    +0.000 A 
ENDBRANCH   5  15
BRANCH   1  21
ATOM     21  C   UNL     1      -1.587  11.876  19.969  0.00  0.00    +0.000 C 
BRANCH  21  26
ATOM     22  N   UNL     1       0.840  11.875  18.956  0.00  0.00    +0.000 N 
ATOM     23  C   UNL     1       1.577  12.968  18.502  0.00  0.00    +0.000 A 
ATOM     24  N   UNL     1       0.799  14.009  18.316  0.00  0.00    +0.000 NA
ATOM     25  N   UNL     1      -0.422  13.710  18.832  0.00  0.00    +0.000 NA
ATOM     26  C   UNL     1      -0.383  12.483  19.324  0.00  0.00    +0.000 A 
BRANCH  22  31
ATOM     27  C   UNL     1       3.044   6.541  19.090  0.00  0.00    +0.000 C 
ATOM     28  C   UNL     1       2.286   7.832  18.972  0.00  0.00    +0.000 A 
ATOM     29  C   UNL     1       2.349   8.602  17.813  0.00  0.00    +0.000 A 
ATOM     30  C   UNL     1       1.804   9.897  17.785  0.00  0.00    +0.000 A 
ATOM     31  C   UNL     1       1.204  10.473  18.907  0.00  0.00    +0.000 A 
ATOM     32  C   UNL     1       1.060   9.646  20.036  0.00  0.00    +0.000 A 
ATOM     33  C   UNL     1       1.586   8.343  20.063  0.00  0.00    +0.000 A 
ENDBRANCH  22  31
BRANCH  23  34
ATOM     34  S   UNL     1       3.300  13.079  18.345  0.00  0.00    +0.000 S 
ATOM     35  H   UNL     1       3.354  13.984  17.360  0.00  0.00    +0.000 HD
ENDBRANCH  23  34
ENDBRANCH  21  26
ENDBRANCH   1  21
TORSDOF 6
ENDMDL
