MODEL 1
REMARK VINA RESULT:      -8.2      0.000      0.000
REMARK  Name = 
REMARK  7 active torsions:
REMARK  status: ('A' for Active; 'I' for Inactive)
REMARK    1  A    between atoms: C_1  and  O_2
REMARK    2  A    between atoms: O_2  and  C_3
REMARK    3  A    between atoms: C_5  and  C_6
REMARK    4  A    between atoms: C_24  and  O_25
REMARK    5  A    between atoms: O_25  and  C_26
REMARK    6  A    between atoms: C_26  and  C_27
REMARK    7  A    between atoms: N_29  and  C_30
REMARK                            x       y       z     vdW  Elec       q    Type
REMARK                         _______ _______ _______ _____ _____    ______ ____
ROOT
ATOM      1  C   UNL     1       1.032   8.894  20.729  0.00  0.00    +0.000 A 
ATOM      2  C   UNL     1       0.467  10.123  20.377  0.00  0.00    +0.000 A 
ATOM      3  C   UNL     1       0.568  10.628  19.067  0.00  0.00    +0.000 A 
ATOM      4  C   UNL     1       1.385   9.965  18.149  0.00  0.00    +0.000 A 
ATOM      5  C   UNL     1       2.027   8.787  18.522  0.00  0.00    +0.000 A 
ATOM      6  C   UNL     1       1.858   8.242  19.803  0.00  0.00    +0.000 A 
ENDROOT
BRANCH   3   7
ATOM      7  C   UNL     1      -0.345  11.782  18.663  0.00  0.00    +0.000 C 
ATOM      8  C   UNL     1      -0.205  12.961  19.621  0.00  0.00    +0.000 C 
ATOM      9  C   UNL     1      -1.278  13.620  20.097  0.00  0.00    +0.000 C 
ATOM     10  C   UNL     1      -1.223  14.790  21.039  0.00  0.00    +0.000 C 
ATOM     11  C   UNL     1       0.163  15.415  21.128  0.00  0.00    +0.000 C 
ATOM     12  C   UNL     1       1.218  14.336  21.273  0.00  0.00    +0.000 C 
ATOM     13  C   UNL     1       1.150  13.407  20.079  0.00  0.00    +0.000 C 
ATOM     14  O   UNL     1       2.177  13.017  19.530  0.00  0.00    +0.000 OA
ATOM     15  O   UNL     1      -2.571  13.281  19.736  0.00  0.00    +0.000 OA
ATOM     16  C   UNL     1      -2.802  12.139  18.986  0.00  0.00    +0.000 C 
ATOM     17  C   UNL     1      -1.798  11.385  18.495  0.00  0.00    +0.000 C 
ATOM     18  C   UNL     1      -2.159  10.156  17.730  0.00  0.00    +0.000 C 
ATOM     19  O   UNL     1      -1.329   9.547  17.061  0.00  0.00    +0.000 OA
ATOM     20  C   UNL     1      -3.588   9.662  17.836  0.00  0.00    +0.000 C 
ATOM     21  C   UNL     1      -4.529  10.841  17.679  0.00  0.00    +0.000 C 
ATOM     22  C   UNL     1      -4.266  11.878  18.764  0.00  0.00    +0.000 C 
ENDBRANCH   3   7
BRANCH   1  24
ATOM     23  C   UNL     1       0.259   9.177  22.954  0.00  0.00    +0.000 C 
ATOM     24  O   UNL     1       0.766   8.306  21.939  0.00  0.00    +0.000 OA
ENDBRANCH   1  24
BRANCH   6  25
ATOM     25  O   UNL     1       2.516   7.049  19.956  0.00  0.00    +0.000 OA
BRANCH  25  26
ATOM     26  C   UNL     1       1.809   5.881  19.560  0.00  0.00    +0.000 C 
BRANCH  26  27
ATOM     27  C   UNL     1       2.416   5.263  18.298  0.00  0.00    +0.000 C 
ATOM     28  O   UNL     1       1.711   4.577  17.557  0.00  0.00    +0.000 OA
ATOM     29  N   UNL     1       3.767   5.518  18.126  0.00  0.00    +0.000 N 
ATOM     30  H   UNL     1       4.223   5.987  18.903  0.00  0.00    +0.000 HD
BRANCH  29  31
ATOM     31  C   UNL     1       4.566   5.142  17.024  0.00  0.00    +0.000 A 
ATOM     32  C   UNL     1       4.926   3.812  16.770  0.00  0.00    +0.000 A 
ATOM     33  C   UNL     1       5.710   3.483  15.663  0.00  0.00    +0.000 A 
ATOM     34  C   UNL     1       6.140   4.480  14.793  0.00  0.00    +0.000 A 
ATOM     35  C   UNL     1       5.775   5.802  15.024  0.00  0.00    +0.000 A 
ATOM     36  C   UNL     1       4.983   6.130  16.134  0.00  0.00    +0.000 A 
ENDBRANCH  29  31
ENDBRANCH  26  27
ENDBRANCH  25  26
ENDBRANCH   6  25
TORSDOF 6
ENDMDL
MODEL 2
REMARK VINA RESULT:      -8.1      2.017      2.481
REMARK  Name = 
REMARK  7 active torsions:
REMARK  status: ('A' for Active; 'I' for Inactive)
REMARK    1  A    between atoms: C_1  and  O_2
REMARK    2  A    between atoms: O_2  and  C_3
REMARK    3  A    between atoms: C_5  and  C_6
REMARK    4  A    between atoms: C_24  and  O_25
REMARK    5  A    between atoms: O_25  and  C_26
REMARK    6  A    between atoms: C_26  and  C_27
REMARK    7  A    between atoms: N_29  and  C_30
REMARK                            x       y       z     vdW  Elec       q    Type
REMARK                         _______ _______ _______ _____ _____    ______ ____
ROOT
ATOM      1  C   UNL     1       0.018   9.589  20.571  0.00  0.00    +0.000 A 
ATOM      2  C   UNL     1      -0.749  10.758  20.601  0.00  0.00    +0.000 A 
ATOM      3  C   UNL     1      -0.650  11.725  19.583  0.00  0.00    +0.000 A 
ATOM      4  C   UNL     1       0.347  11.587  18.614  0.00  0.00    +0.000 A 
ATOM      5  C   UNL     1       1.177  10.469  18.632  0.00  0.00    +0.000 A 
ATOM      6  C   UNL     1       1.022   9.466  19.600  0.00  0.00    +0.000 A 
ENDROOT
BRANCH   3   7
ATOM      7  C   UNL     1      -1.739  12.790  19.489  0.00  0.00    +0.000 C 
ATOM      8  C   UNL     1      -1.807  13.627  20.763  0.00  0.00    +0.000 C 
ATOM      9  C   UNL     1      -2.979  13.933  21.349  0.00  0.00    +0.000 C 
ATOM     10  C   UNL     1      -3.129  14.753  22.600  0.00  0.00    +0.000 C 
ATOM     11  C   UNL     1      -1.868  15.528  22.956  0.00  0.00    +0.000 C 
ATOM     12  C   UNL     1      -0.649  14.634  22.835  0.00  0.00    +0.000 C 
ATOM     13  C   UNL     1      -0.550  14.116  21.415  0.00  0.00    +0.000 C 
ATOM     14  O   UNL     1       0.533  14.077  20.838  0.00  0.00    +0.000 OA
ATOM     15  O   UNL     1      -4.194  13.524  20.825  0.00  0.00    +0.000 OA
ATOM     16  C   UNL     1      -4.224  12.645  19.754  0.00  0.00    +0.000 C 
ATOM     17  C   UNL     1      -3.103  12.244  19.122  0.00  0.00    +0.000 C 
ATOM     18  C   UNL     1      -3.248  11.267  18.003  0.00  0.00    +0.000 C 
ATOM     19  O   UNL     1      -2.320  11.028  17.234  0.00  0.00    +0.000 OA
ATOM     20  C   UNL     1      -4.575  10.549  17.869  0.00  0.00    +0.000 C 
ATOM     21  C   UNL     1      -5.698  11.558  18.016  0.00  0.00    +0.000 C 
ATOM     22  C   UNL     1      -5.622  12.240  19.376  0.00  0.00    +0.000 C 
ENDBRANCH   3   7
BRANCH   1  24
ATOM     23  C   UNL     1      -0.447   8.936  22.804  0.00  0.00    +0.000 C 
ATOM     24  O   UNL     1      -0.218   8.558  21.443  0.00  0.00    +0.000 OA
ENDBRANCH   1  24
BRANCH   6  25
ATOM     25  O   UNL     1       1.887   8.419  19.412  0.00  0.00    +0.000 OA
BRANCH  25  26
ATOM     26  C   UNL     1       2.445   8.285  18.112  0.00  0.00    +0.000 C 
BRANCH  26  27
ATOM     27  C   UNL     1       3.108   6.918  17.928  0.00  0.00    +0.000 C 
ATOM     28  O   UNL     1       4.181   6.837  17.327  0.00  0.00    +0.000 OA
ATOM     29  N   UNL     1       2.384   5.855  18.445  0.00  0.00    +0.000 N 
ATOM     30  H   UNL     1       1.456   6.086  18.786  0.00  0.00    +0.000 HD
BRANCH  29  31
ATOM     31  C   UNL     1       2.783   4.501  18.486  0.00  0.00    +0.000 A 
ATOM     32  C   UNL     1       3.752   4.025  19.380  0.00  0.00    +0.000 A 
ATOM     33  C   UNL     1       4.111   2.676  19.392  0.00  0.00    +0.000 A 
ATOM     34  C   UNL     1       3.502   1.785  18.514  0.00  0.00    +0.000 A 
ATOM     35  C   UNL     1       2.527   2.242  17.634  0.00  0.00    +0.000 A 
ATOM     36  C   UNL     1       2.164   3.596  17.625  0.00  0.00    +0.000 A 
ENDBRANCH  29  31
ENDBRANCH  26  27
ENDBRANCH  25  26
ENDBRANCH   6  25
TORSDOF 6
ENDMDL
MODEL 3
REMARK VINA RESULT:      -8.0      2.215      4.400
REMARK  Name = 
REMARK  7 active torsions:
REMARK  status: ('A' for Active; 'I' for Inactive)
REMARK    1  A    between atoms: C_1  and  O_2
REMARK    2  A    between atoms: O_2  and  C_3
REMARK    3  A    between atoms: C_5  and  C_6
REMARK    4  A    between atoms: C_24  and  O_25
REMARK    5  A    between atoms: O_25  and  C_26
REMARK    6  A    between atoms: C_26  and  C_27
REMARK    7  A    between atoms: N_29  and  C_30
REMARK                            x       y       z     vdW  Elec       q    Type
REMARK                         _______ _______ _______ _____ _____    ______ ____
ROOT
ATOM      1  C   UNL     1      -0.996  11.219  18.573  0.00  0.00    +0.000 A 
ATOM      2  C   UNL     1      -1.333  12.193  19.518  0.00  0.00    +0.000 A 
ATOM      3  C   UNL     1      -0.407  12.629  20.483  0.00  0.00    +0.000 A 
ATOM      4  C   UNL     1       0.814  11.960  20.599  0.00  0.00    +0.000 A 
ATOM      5  C   UNL     1       1.120  10.925  19.719  0.00  0.00    +0.000 A 
ATOM      6  C   UNL     1       0.228  10.548  18.705  0.00  0.00    +0.000 A 
ENDROOT
BRANCH   3   7
ATOM      7  C   UNL     1      -0.710  13.914  21.250  0.00  0.00    +0.000 C 
ATOM      8  C   UNL     1      -1.881  13.724  22.209  0.00  0.00    +0.000 C 
ATOM      9  C   UNL     1      -2.867  14.633  22.314  0.00  0.00    +0.000 C 
ATOM     10  C   UNL     1      -4.050  14.521  23.235  0.00  0.00    +0.000 C 
ATOM     11  C   UNL     1      -3.859  13.468  24.318  0.00  0.00    +0.000 C 
ATOM     12  C   UNL     1      -3.302  12.192  23.719  0.00  0.00    +0.000 C 
ATOM     13  C   UNL     1      -1.974  12.490  23.054  0.00  0.00    +0.000 C 
ATOM     14  O   UNL     1      -1.021  11.727  23.189  0.00  0.00    +0.000 OA
ATOM     15  O   UNL     1      -2.872  15.803  21.572  0.00  0.00    +0.000 OA
ATOM     16  C   UNL     1      -1.929  15.994  20.576  0.00  0.00    +0.000 C 
ATOM     17  C   UNL     1      -0.922  15.123  20.362  0.00  0.00    +0.000 C 
ATOM     18  C   UNL     1       0.018  15.408  19.239  0.00  0.00    +0.000 C 
ATOM     19  O   UNL     1       1.080  14.802  19.119  0.00  0.00    +0.000 OA
ATOM     20  C   UNL     1      -0.401  16.452  18.224  0.00  0.00    +0.000 C 
ATOM     21  C   UNL     1      -0.941  17.664  18.960  0.00  0.00    +0.000 C 
ATOM     22  C   UNL     1      -2.139  17.274  19.815  0.00  0.00    +0.000 C 
ENDBRANCH   3   7
BRANCH   1  24
ATOM     23  C   UNL     1      -2.752   9.874  17.715  0.00  0.00    +0.000 C 
ATOM     24  O   UNL     1      -1.818  10.939  17.512  0.00  0.00    +0.000 OA
ENDBRANCH   1  24
BRANCH   6  25
ATOM     25  O   UNL     1       0.735   9.558  17.903  0.00  0.00    +0.000 OA
BRANCH  25  26
ATOM     26  C   UNL     1       2.101   9.223  18.099  0.00  0.00    +0.000 C 
BRANCH  26  27
ATOM     27  C   UNL     1       2.255   7.797  18.636  0.00  0.00    +0.000 C 
ATOM     28  O   UNL     1       2.013   7.564  19.821  0.00  0.00    +0.000 OA
ATOM     29  N   UNL     1       2.707   6.878  17.702  0.00  0.00    +0.000 N 
ATOM     30  H   UNL     1       2.987   7.269  16.808  0.00  0.00    +0.000 HD
BRANCH  29  31
ATOM     31  C   UNL     1       2.867   5.488  17.893  0.00  0.00    +0.000 A 
ATOM     32  C   UNL     1       1.800   4.584  17.804  0.00  0.00    +0.000 A 
ATOM     33  C   UNL     1       2.005   3.217  17.993  0.00  0.00    +0.000 A 
ATOM     34  C   UNL     1       3.281   2.734  18.267  0.00  0.00    +0.000 A 
ATOM     35  C   UNL     1       4.351   3.620  18.342  0.00  0.00    +0.000 A 
ATOM     36  C   UNL     1       4.145   4.993  18.148  0.00  0.00    +0.000 A 
ENDBRANCH  29  31
ENDBRANCH  26  27
ENDBRANCH  25  26
ENDBRANCH   6  25
TORSDOF 6
ENDMDL
MODEL 4
REMARK VINA RESULT:      -8.0      2.224      4.735
REMARK  Name = 
REMARK  7 active torsions:
REMARK  status: ('A' for Active; 'I' for Inactive)
REMARK    1  A    between atoms: C_1  and  O_2
REMARK    2  A    between atoms: O_2  and  C_3
REMARK    3  A    between atoms: C_5  and  C_6
REMARK    4  A    between atoms: C_24  and  O_25
REMARK    5  A    between atoms: O_25  and  C_26
REMARK    6  A    between atoms: C_26  and  C_27
REMARK    7  A    between atoms: N_29  and  C_30
REMARK                            x       y       z     vdW  Elec       q    Type
REMARK                         _______ _______ _______ _____ _____    ______ ____
ROOT
ATOM      1  C   UNL     1      -0.835  10.465  20.299  0.00  0.00    +0.000 A 
ATOM      2  C   UNL     1      -1.426  11.703  20.564  0.00  0.00    +0.000 A 
ATOM      3  C   UNL     1      -1.483  12.224  21.871  0.00  0.00    +0.000 A 
ATOM      4  C   UNL     1      -1.086  11.415  22.938  0.00  0.00    +0.000 A 
ATOM      5  C   UNL     1      -0.581  10.141  22.688  0.00  0.00    +0.000 A 
ATOM      6  C   UNL     1      -0.449   9.657  21.378  0.00  0.00    +0.000 A 
ENDROOT
BRANCH   3   7
ATOM      7  C   UNL     1      -1.820  13.701  22.048  0.00  0.00    +0.000 C 
ATOM      8  C   UNL     1      -3.309  13.959  21.840  0.00  0.00    +0.000 C 
ATOM      9  C   UNL     1      -3.754  14.993  21.102  0.00  0.00    +0.000 C 
ATOM     10  C   UNL     1      -5.202  15.315  20.853  0.00  0.00    +0.000 C 
ATOM     11  C   UNL     1      -6.142  14.592  21.809  0.00  0.00    +0.000 C 
ATOM     12  C   UNL     1      -5.750  13.133  21.930  0.00  0.00    +0.000 C 
ATOM     13  C   UNL     1      -4.327  13.039  22.442  0.00  0.00    +0.000 C 
ATOM     14  O   UNL     1      -4.025  12.216  23.302  0.00  0.00    +0.000 OA
ATOM     15  O   UNL     1      -2.892  15.895  20.502  0.00  0.00    +0.000 OA
ATOM     16  C   UNL     1      -1.527  15.661  20.518  0.00  0.00    +0.000 C 
ATOM     17  C   UNL     1      -0.981  14.629  21.193  0.00  0.00    +0.000 C 
ATOM     18  C   UNL     1       0.498  14.450  21.114  0.00  0.00    +0.000 C 
ATOM     19  O   UNL     1       1.095  13.689  21.871  0.00  0.00    +0.000 OA
ATOM     20  C   UNL     1       1.238  15.216  20.036  0.00  0.00    +0.000 C 
ATOM     21  C   UNL     1       0.744  16.650  20.024  0.00  0.00    +0.000 C 
ATOM     22  C   UNL     1      -0.753  16.691  19.743  0.00  0.00    +0.000 C 
ENDBRANCH   3   7
BRANCH   1  24
ATOM     23  C   UNL     1      -1.650  10.289  18.078  0.00  0.00    +0.000 C 
ATOM     24  O   UNL     1      -0.596  10.048  19.015  0.00  0.00    +0.000 OA
ENDBRANCH   1  24
BRANCH   6  25
ATOM     25  O   UNL     1       0.127   8.413  21.335  0.00  0.00    +0.000 OA
BRANCH  25  26
ATOM     26  C   UNL     1       1.546   8.376  21.254  0.00  0.00    +0.000 C 
BRANCH  26  27
ATOM     27  C   UNL     1       2.014   7.605  20.018  0.00  0.00    +0.000 C 
ATOM     28  O   UNL     1       2.066   8.176  18.928  0.00  0.00    +0.000 OA
ATOM     29  N   UNL     1       2.311   6.271  20.252  0.00  0.00    +0.000 N 
ATOM     30  H   UNL     1       2.082   5.931  21.181  0.00  0.00    +0.000 HD
BRANCH  29  31
ATOM     31  C   UNL     1       2.834   5.346  19.322  0.00  0.00    +0.000 A 
ATOM     32  C   UNL     1       2.034   4.686  18.380  0.00  0.00    +0.000 A 
ATOM     33  C   UNL     1       2.594   3.785  17.473  0.00  0.00    +0.000 A 
ATOM     34  C   UNL     1       3.962   3.536  17.493  0.00  0.00    +0.000 A 
ATOM     35  C   UNL     1       4.770   4.198  18.412  0.00  0.00    +0.000 A 
ATOM     36  C   UNL     1       4.207   5.106  19.319  0.00  0.00    +0.000 A 
ENDBRANCH  29  31
ENDBRANCH  26  27
ENDBRANCH  25  26
ENDBRANCH   6  25
TORSDOF 6
ENDMDL
MODEL 5
REMARK VINA RESULT:      -7.9      2.805      4.316
REMARK  Name = 
REMARK  7 active torsions:
REMARK  status: ('A' for Active; 'I' for Inactive)
REMARK    1  A    between atoms: C_1  and  O_2
REMARK    2  A    between atoms: O_2  and  C_3
REMARK    3  A    between atoms: C_5  and  C_6
REMARK    4  A    between atoms: C_24  and  O_25
REMARK    5  A    between atoms: O_25  and  C_26
REMARK    6  A    between atoms: C_26  and  C_27
REMARK    7  A    between atoms: N_29  and  C_30
REMARK                            x       y       z     vdW  Elec       q    Type
REMARK                         _______ _______ _______ _____ _____    ______ ____
ROOT
ATOM      1  C   UNL     1       0.129  11.756  20.649  0.00  0.00    +0.000 A 
ATOM      2  C   UNL     1      -0.968  12.622  20.686  0.00  0.00    +0.000 A 
ATOM      3  C   UNL     1      -1.828  12.667  21.799  0.00  0.00    +0.000 A 
ATOM      4  C   UNL     1      -1.674  11.717  22.812  0.00  0.00    +0.000 A 
ATOM      5  C   UNL     1      -0.637  10.790  22.736  0.00  0.00    +0.000 A 
ATOM      6  C   UNL     1       0.268  10.800  21.666  0.00  0.00    +0.000 A 
ENDROOT
BRANCH   3   7
ATOM      7  C   UNL     1      -2.783  13.851  21.928  0.00  0.00    +0.000 C 
ATOM      8  C   UNL     1      -2.539  14.621  23.223  0.00  0.00    +0.000 C 
ATOM      9  C   UNL     1      -3.554  15.024  24.010  0.00  0.00    +0.000 C 
ATOM     10  C   UNL     1      -3.397  15.788  25.295  0.00  0.00    +0.000 C 
ATOM     11  C   UNL     1      -2.011  16.398  25.457  0.00  0.00    +0.000 C 
ATOM     12  C   UNL     1      -0.944  15.382  25.099  0.00  0.00    +0.000 C 
ATOM     13  C   UNL     1      -1.143  14.932  23.667  0.00  0.00    +0.000 C 
ATOM     14  O   UNL     1      -0.182  14.804  22.912  0.00  0.00    +0.000 OA
ATOM     15  O   UNL     1      -4.878  14.781  23.687  0.00  0.00    +0.000 OA
ATOM     16  C   UNL     1      -5.189  13.969  22.609  0.00  0.00    +0.000 C 
ATOM     17  C   UNL     1      -4.244  13.480  21.781  0.00  0.00    +0.000 C 
ATOM     18  C   UNL     1      -4.686  12.585  20.671  0.00  0.00    +0.000 C 
ATOM     19  O   UNL     1      -3.934  12.286  19.747  0.00  0.00    +0.000 OA
ATOM     20  C   UNL     1      -6.093  12.027  20.741  0.00  0.00    +0.000 C 
ATOM     21  C   UNL     1      -7.048  13.145  21.112  0.00  0.00    +0.000 C 
ATOM     22  C   UNL     1      -6.668  13.742  22.461  0.00  0.00    +0.000 C 
ENDBRANCH   3   7
BRANCH   1  24
ATOM     23  C   UNL     1       2.052  12.884  19.839  0.00  0.00    +0.000 C 
ATOM     24  O   UNL     1       1.080  11.849  19.666  0.00  0.00    +0.000 OA
ENDBRANCH   1  24
BRANCH   6  25
ATOM     25  O   UNL     1       1.253   9.856  21.804  0.00  0.00    +0.000 OA
BRANCH  25  26
ATOM     26  C   UNL     1       0.869   8.505  21.587  0.00  0.00    +0.000 C 
BRANCH  26  27
ATOM     27  C   UNL     1       1.554   7.923  20.348  0.00  0.00    +0.000 C 
ATOM     28  O   UNL     1       1.666   8.613  19.334  0.00  0.00    +0.000 OA
ATOM     29  N   UNL     1       1.964   6.606  20.485  0.00  0.00    +0.000 N 
ATOM     30  H   UNL     1       1.670   6.146  21.341  0.00  0.00    +0.000 HD
BRANCH  29  31
ATOM     31  C   UNL     1       2.684   5.842  19.540  0.00  0.00    +0.000 A 
ATOM     32  C   UNL     1       4.081   5.731  19.564  0.00  0.00    +0.000 A 
ATOM     33  C   UNL     1       4.752   4.959  18.615  0.00  0.00    +0.000 A 
ATOM     34  C   UNL     1       4.035   4.284  17.632  0.00  0.00    +0.000 A 
ATOM     35  C   UNL     1       2.647   4.373  17.608  0.00  0.00    +0.000 A 
ATOM     36  C   UNL     1       1.974   5.145  18.564  0.00  0.00    +0.000 A 
ENDBRANCH  29  31
ENDBRANCH  26  27
ENDBRANCH  25  26
ENDBRANCH   6  25
TORSDOF 6
ENDMDL
MODEL 6
REMARK VINA RESULT:      -7.9      2.302      3.404
REMARK  Name = 
REMARK  7 active torsions:
REMARK  status: ('A' for Active; 'I' for Inactive)
REMARK    1  A    between atoms: C_1  and  O_2
REMARK    2  A    between atoms: O_2  and  C_3
REMARK    3  A    between atoms: C_5  and  C_6
REMARK    4  A    between atoms: C_24  and  O_25
REMARK    5  A    between atoms: O_25  and  C_26
REMARK    6  A    between atoms: C_26  and  C_27
REMARK    7  A    between atoms: N_29  and  C_30
REMARK                            x       y       z     vdW  Elec       q    Type
REMARK                         _______ _______ _______ _____ _____    ______ ____
ROOT
ATOM      1  C   UNL     1       1.227  11.060  18.553  0.00  0.00    +0.000 A 
ATOM      2  C   UNL     1       0.067  11.839  18.562  0.00  0.00    +0.000 A 
ATOM      3  C   UNL     1      -1.079  11.439  19.276  0.00  0.00    +0.000 A 
ATOM      4  C   UNL     1      -1.108  10.166  19.849  0.00  0.00    +0.000 A 
ATOM      5  C   UNL     1       0.015   9.346  19.764  0.00  0.00    +0.000 A 
ATOM      6  C   UNL     1       1.184   9.779  19.123  0.00  0.00    +0.000 A 
ENDROOT
BRANCH   3   7
ATOM      7  C   UNL     1      -2.171  12.474  19.530  0.00  0.00    +0.000 C 
ATOM      8  C   UNL     1      -2.259  12.836  21.009  0.00  0.00    +0.000 C 
ATOM      9  C   UNL     1      -3.440  12.927  21.648  0.00  0.00    +0.000 C 
ATOM     10  C   UNL     1      -3.611  13.280  23.099  0.00  0.00    +0.000 C 
ATOM     11  C   UNL     1      -2.357  13.892  23.712  0.00  0.00    +0.000 C 
ATOM     12  C   UNL     1      -1.133  13.091  23.314  0.00  0.00    +0.000 C 
ATOM     13  C   UNL     1      -1.013  13.078  21.804  0.00  0.00    +0.000 C 
ATOM     14  O   UNL     1       0.077  13.236  21.262  0.00  0.00    +0.000 OA
ATOM     15  O   UNL     1      -4.647  12.717  21.001  0.00  0.00    +0.000 OA
ATOM     16  C   UNL     1      -4.658  12.247  19.698  0.00  0.00    +0.000 C 
ATOM     17  C   UNL     1      -3.528  12.081  18.982  0.00  0.00    +0.000 C 
ATOM     18  C   UNL     1      -3.653  11.536  17.599  0.00  0.00    +0.000 C 
ATOM     19  O   UNL     1      -2.715  11.569  16.807  0.00  0.00    +0.000 OA
ATOM     20  C   UNL     1      -4.975  10.903  17.214  0.00  0.00    +0.000 C 
ATOM     21  C   UNL     1      -6.105  11.804  17.676  0.00  0.00    +0.000 C 
ATOM     22  C   UNL     1      -6.049  11.991  19.186  0.00  0.00    +0.000 C 
ENDBRANCH   3   7
BRANCH   1  24
ATOM     23  C   UNL     1       2.638  12.936  18.211  0.00  0.00    +0.000 C 
ATOM     24  O   UNL     1       2.403  11.536  18.033  0.00  0.00    +0.000 OA
ENDBRANCH   1  24
BRANCH   6  25
ATOM     25  O   UNL     1       2.197   8.859  19.201  0.00  0.00    +0.000 OA
BRANCH  25  26
ATOM     26  C   UNL     1       2.624   8.283  17.975  0.00  0.00    +0.000 C 
BRANCH  26  27
ATOM     27  C   UNL     1       2.963   6.799  18.143  0.00  0.00    +0.000 C 
ATOM     28  O   UNL     1       4.141   6.439  18.133  0.00  0.00    +0.000 OA
ATOM     29  N   UNL     1       1.860   5.968  18.257  0.00  0.00    +0.000 N 
ATOM     30  H   UNL     1       0.961   6.416  18.108  0.00  0.00    +0.000 HD
BRANCH  29  31
ATOM     31  C   UNL     1       1.872   4.576  18.497  0.00  0.00    +0.000 A 
ATOM     32  C   UNL     1       2.340   3.651  17.555  0.00  0.00    +0.000 A 
ATOM     33  C   UNL     1       2.341   2.284  17.836  0.00  0.00    +0.000 A 
ATOM     34  C   UNL     1       1.878   1.825  19.065  0.00  0.00    +0.000 A 
ATOM     35  C   UNL     1       1.427   2.735  20.015  0.00  0.00    +0.000 A 
ATOM     36  C   UNL     1       1.430   4.108  19.733  0.00  0.00    +0.000 A 
ENDBRANCH  29  31
ENDBRANCH  26  27
ENDBRANCH  25  26
ENDBRANCH   6  25
TORSDOF 6
ENDMDL
MODEL 7
REMARK VINA RESULT:      -7.8      2.238      3.724
REMARK  Name = 
REMARK  7 active torsions:
REMARK  status: ('A' for Active; 'I' for Inactive)
REMARK    1  A    between atoms: C_1  and  O_2
REMARK    2  A    between atoms: O_2  and  C_3
REMARK    3  A    between atoms: C_5  and  C_6
REMARK    4  A    between atoms: C_24  and  O_25
REMARK    5  A    between atoms: O_25  and  C_26
REMARK    6  A    between atoms: C_26  and  C_27
REMARK    7  A    between atoms: N_29  and  C_30
REMARK                            x       y       z     vdW  Elec       q    Type
REMARK                         _______ _______ _______ _____ _____    ______ ____
ROOT
ATOM      1  C   UNL     1       0.319  12.424  18.641  0.00  0.00    +0.000 A 
ATOM      2  C   UNL     1      -0.966  12.927  18.868  0.00  0.00    +0.000 A 
ATOM      3  C   UNL     1      -1.901  12.222  19.649  0.00  0.00    +0.000 A 
ATOM      4  C   UNL     1      -1.592  10.926  20.067  0.00  0.00    +0.000 A 
ATOM      5  C   UNL     1      -0.346  10.382  19.764  0.00  0.00    +0.000 A 
ATOM      6  C   UNL     1       0.615  11.118  19.057  0.00  0.00    +0.000 A 
ENDROOT
BRANCH   3   7
ATOM      7  C   UNL     1      -3.141  12.965  20.140  0.00  0.00    +0.000 C 
ATOM      8  C   UNL     1      -3.040  13.287  21.628  0.00  0.00    +0.000 C 
ATOM      9  C   UNL     1      -4.073  13.091  22.468  0.00  0.00    +0.000 C 
ATOM     10  C   UNL     1      -4.055  13.386  23.942  0.00  0.00    +0.000 C 
ATOM     11  C   UNL     1      -2.889  14.275  24.354  0.00  0.00    +0.000 C 
ATOM     12  C   UNL     1      -1.605  13.792  23.709  0.00  0.00    +0.000 C 
ATOM     13  C   UNL     1      -1.762  13.816  22.203  0.00  0.00    +0.000 C 
ATOM     14  O   UNL     1      -0.856  14.232  21.486  0.00  0.00    +0.000 OA
ATOM     15  O   UNL     1      -5.294  12.602  22.033  0.00  0.00    +0.000 OA
ATOM     16  C   UNL     1      -5.432  12.150  20.731  0.00  0.00    +0.000 C 
ATOM     17  C   UNL     1      -4.444  12.263  19.821  0.00  0.00    +0.000 C 
ATOM     18  C   UNL     1      -4.688  11.710  18.456  0.00  0.00    +0.000 C 
ATOM     19  O   UNL     1      -3.944  11.971  17.514  0.00  0.00    +0.000 OA
ATOM     20  C   UNL     1      -5.872  10.782  18.279  0.00  0.00    +0.000 C 
ATOM     21  C   UNL     1      -7.078  11.385  18.975  0.00  0.00    +0.000 C 
ATOM     22  C   UNL     1      -6.794  11.573  20.459  0.00  0.00    +0.000 C 
ENDBRANCH   3   7
BRANCH   1  24
ATOM     23  C   UNL     1       2.061  14.004  18.951  0.00  0.00    +0.000 C 
ATOM     24  O   UNL     1       1.293  13.192  18.058  0.00  0.00    +0.000 OA
ENDBRANCH   1  24
BRANCH   6  25
ATOM     25  O   UNL     1       1.797  10.438  18.916  0.00  0.00    +0.000 OA
BRANCH  25  26
ATOM     26  C   UNL     1       1.803   9.370  17.978  0.00  0.00    +0.000 C 
BRANCH  26  27
ATOM     27  C   UNL     1       2.236   8.056  18.633  0.00  0.00    +0.000 C 
ATOM     28  O   UNL     1       2.040   7.882  19.837  0.00  0.00    +0.000 OA
ATOM     29  N   UNL     1       2.868   7.168  17.776  0.00  0.00    +0.000 N 
ATOM     30  H   UNL     1       3.069   7.528  16.849  0.00  0.00    +0.000 HD
BRANCH  29  31
ATOM     31  C   UNL     1       3.302   5.860  18.084  0.00  0.00    +0.000 A 
ATOM     32  C   UNL     1       4.552   5.594  18.660  0.00  0.00    +0.000 A 
ATOM     33  C   UNL     1       4.937   4.286  18.956  0.00  0.00    +0.000 A 
ATOM     34  C   UNL     1       4.078   3.227  18.683  0.00  0.00    +0.000 A 
ATOM     35  C   UNL     1       2.828   3.479  18.126  0.00  0.00    +0.000 A 
ATOM     36  C   UNL     1       2.439   4.794  17.835  0.00  0.00    +0.000 A 
ENDBRANCH  29  31
ENDBRANCH  26  27
ENDBRANCH  25  26
ENDBRANCH   6  25
TORSDOF 6
ENDMDL
MODEL 8
REMARK VINA RESULT:      -7.8      1.582      2.032
REMARK  Name = 
REMARK  7 active torsions:
REMARK  status: ('A' for Active; 'I' for Inactive)
REMARK    1  A    between atoms: C_1  and  O_2
REMARK    2  A    between atoms: O_2  and  C_3
REMARK    3  A    between atoms: C_5  and  C_6
REMARK    4  A    between atoms: C_24  and  O_25
REMARK    5  A    between atoms: O_25  and  C_26
REMARK    6  A    between atoms: C_26  and  C_27
REMARK    7  A    between atoms: N_29  and  C_30
REMARK                            x       y       z     vdW  Elec       q    Type
REMARK                         _______ _______ _______ _____ _____    ______ ____
ROOT
ATOM      1  C   UNL     1       0.045   9.653  20.711  0.00  0.00    +0.000 A 
ATOM      2  C   UNL     1      -0.738  10.811  20.757  0.00  0.00    +0.000 A 
ATOM      3  C   UNL     1      -0.700  11.762  19.721  0.00  0.00    +0.000 A 
ATOM      4  C   UNL     1       0.254  11.624  18.711  0.00  0.00    +0.000 A 
ATOM      5  C   UNL     1       1.101  10.518  18.708  0.00  0.00    +0.000 A 
ATOM      6  C   UNL     1       1.006   9.529  19.697  0.00  0.00    +0.000 A 
ENDROOT
BRANCH   3   7
ATOM      7  C   UNL     1      -1.808  12.810  19.660  0.00  0.00    +0.000 C 
ATOM      8  C   UNL     1      -1.917  13.579  20.973  0.00  0.00    +0.000 C 
ATOM      9  C   UNL     1      -3.105  13.833  21.551  0.00  0.00    +0.000 C 
ATOM     10  C   UNL     1      -3.295  14.585  22.839  0.00  0.00    +0.000 C 
ATOM     11  C   UNL     1      -2.056  15.364  23.258  0.00  0.00    +0.000 C 
ATOM     12  C   UNL     1      -0.818  14.501  23.115  0.00  0.00    +0.000 C 
ATOM     13  C   UNL     1      -0.682  14.058  21.674  0.00  0.00    +0.000 C 
ATOM     14  O   UNL     1       0.412  14.070  21.116  0.00  0.00    +0.000 OA
ATOM     15  O   UNL     1      -4.302  13.427  20.983  0.00  0.00    +0.000 OA
ATOM     16  C   UNL     1      -4.294  12.604  19.870  0.00  0.00    +0.000 C 
ATOM     17  C   UNL     1      -3.154  12.257  19.239  0.00  0.00    +0.000 C 
ATOM     18  C   UNL     1      -3.258  11.335  18.070  0.00  0.00    +0.000 C 
ATOM     19  O   UNL     1      -2.312  11.154  17.308  0.00  0.00    +0.000 OA
ATOM     20  C   UNL     1      -4.568  10.600  17.874  0.00  0.00    +0.000 C 
ATOM     21  C   UNL     1      -5.714  11.578  18.051  0.00  0.00    +0.000 C 
ATOM     22  C   UNL     1      -5.676  12.192  19.444  0.00  0.00    +0.000 C 
ENDBRANCH   3   7
BRANCH   1  24
ATOM     23  C   UNL     1      -0.446   9.031  22.947  0.00  0.00    +0.000 C 
ATOM     24  O   UNL     1      -0.135   8.632  21.609  0.00  0.00    +0.000 OA
ENDBRANCH   1  24
BRANCH   6  25
ATOM     25  O   UNL     1       1.877   8.492  19.486  0.00  0.00    +0.000 OA
BRANCH  25  26
ATOM     26  C   UNL     1       2.162   8.170  18.132  0.00  0.00    +0.000 C 
BRANCH  26  27
ATOM     27  C   UNL     1       3.116   6.978  18.030  0.00  0.00    +0.000 C 
ATOM     28  O   UNL     1       2.854   5.935  18.632  0.00  0.00    +0.000 OA
ATOM     29  N   UNL     1       4.249   7.212  17.267  0.00  0.00    +0.000 N 
ATOM     30  H   UNL     1       4.373   8.171  16.956  0.00  0.00    +0.000 HD
BRANCH  29  31
ATOM     31  C   UNL     1       5.257   6.278  16.940  0.00  0.00    +0.000 A 
ATOM     32  C   UNL     1       5.395   5.734  15.656  0.00  0.00    +0.000 A 
ATOM     33  C   UNL     1       6.411   4.819  15.374  0.00  0.00    +0.000 A 
ATOM     34  C   UNL     1       7.304   4.441  16.370  0.00  0.00    +0.000 A 
ATOM     35  C   UNL     1       7.188   4.987  17.644  0.00  0.00    +0.000 A 
ATOM     36  C   UNL     1       6.170   5.909  17.925  0.00  0.00    +0.000 A 
ENDBRANCH  29  31
ENDBRANCH  26  27
ENDBRANCH  25  26
ENDBRANCH   6  25
TORSDOF 6
ENDMDL
MODEL 9
REMARK VINA RESULT:      -7.8      1.923      2.907
REMARK  Name = 
REMARK  7 active torsions:
REMARK  status: ('A' for Active; 'I' for Inactive)
REMARK    1  A    between atoms: C_1  and  O_2
REMARK    2  A    between atoms: O_2  and  C_3
REMARK    3  A    between atoms: C_5  and  C_6
REMARK    4  A    between atoms: C_24  and  O_25
REMARK    5  A    between atoms: O_25  and  C_26
REMARK    6  A    between atoms: C_26  and  C_27
REMARK    7  A    between atoms: N_29  and  C_30
REMARK                            x       y       z     vdW  Elec       q    Type
REMARK                         _______ _______ _______ _____ _____    ______ ____
ROOT
ATOM      1  C   UNL     1       0.101   9.968  20.417  0.00  0.00    +0.000 A 
ATOM      2  C   UNL     1      -0.877  10.942  20.647  0.00  0.00    +0.000 A 
ATOM      3  C   UNL     1      -0.935  12.118  19.877  0.00  0.00    +0.000 A 
ATOM      4  C   UNL     1       0.099  12.389  18.978  0.00  0.00    +0.000 A 
ATOM      5  C   UNL     1       1.127  11.464  18.810  0.00  0.00    +0.000 A 
ATOM      6  C   UNL     1       1.139  10.255  19.519  0.00  0.00    +0.000 A 
ENDROOT
BRANCH   3   7
ATOM      7  C   UNL     1      -2.204  12.963  19.940  0.00  0.00    +0.000 C 
ATOM      8  C   UNL     1      -2.444  13.497  21.349  0.00  0.00    +0.000 C 
ATOM      9  C   UNL     1      -3.660  13.459  21.924  0.00  0.00    +0.000 C 
ATOM     10  C   UNL     1      -3.978  13.966  23.303  0.00  0.00    +0.000 C 
ATOM     11  C   UNL     1      -2.890  14.870  23.868  0.00  0.00    +0.000 C 
ATOM     12  C   UNL     1      -1.524  14.257  23.634  0.00  0.00    +0.000 C 
ATOM     13  C   UNL     1      -1.310  14.065  22.147  0.00  0.00    +0.000 C 
ATOM     14  O   UNL     1      -0.232  14.343  21.628  0.00  0.00    +0.000 OA
ATOM     15  O   UNL     1      -4.769  12.950  21.270  0.00  0.00    +0.000 OA
ATOM     16  C   UNL     1      -4.619  12.316  20.047  0.00  0.00    +0.000 C 
ATOM     17  C   UNL     1      -3.436  12.263  19.405  0.00  0.00    +0.000 C 
ATOM     18  C   UNL     1      -3.379  11.523  18.110  0.00  0.00    +0.000 C 
ATOM     19  O   UNL     1      -2.414  11.619  17.356  0.00  0.00    +0.000 OA
ATOM     20  C   UNL     1      -4.544  10.617  17.771  0.00  0.00    +0.000 C 
ATOM     21  C   UNL     1      -5.840  11.352  18.058  0.00  0.00    +0.000 C 
ATOM     22  C   UNL     1      -5.911  11.747  19.527  0.00  0.00    +0.000 C 
ENDBRANCH   3   7
BRANCH   1  24
ATOM     23  C   UNL     1      -0.318   8.746  22.407  0.00  0.00    +0.000 C 
ATOM     24  O   UNL     1       0.040   8.739  21.021  0.00  0.00    +0.000 OA
ENDBRANCH   1  24
BRANCH   6  25
ATOM     25  O   UNL     1       2.194   9.452  19.170  0.00  0.00    +0.000 OA
BRANCH  25  26
ATOM     26  C   UNL     1       1.944   8.483  18.161  0.00  0.00    +0.000 C 
BRANCH  26  27
ATOM     27  C   UNL     1       2.266   7.069  18.653  0.00  0.00    +0.000 C 
ATOM     28  O   UNL     1       2.509   6.881  19.846  0.00  0.00    +0.000 OA
ATOM     29  N   UNL     1       2.290   6.106  17.657  0.00  0.00    +0.000 N 
ATOM     30  H   UNL     1       2.202   6.459  16.709  0.00  0.00    +0.000 HD
BRANCH  29  31
ATOM     31  C   UNL     1       2.483   4.718  17.828  0.00  0.00    +0.000 A 
ATOM     32  C   UNL     1       3.694   4.080  17.528  0.00  0.00    +0.000 A 
ATOM     33  C   UNL     1       3.844   2.705  17.720  0.00  0.00    +0.000 A 
ATOM     34  C   UNL     1       2.786   1.952  18.218  0.00  0.00    +0.000 A 
ATOM     35  C   UNL     1       1.584   2.576  18.536  0.00  0.00    +0.000 A 
ATOM     36  C   UNL     1       1.436   3.958  18.347  0.00  0.00    +0.000 A 
ENDBRANCH  29  31
ENDBRANCH  26  27
ENDBRANCH  25  26
ENDBRANCH   6  25
TORSDOF 6
ENDMDL
