MODEL 1
REMARK VINA RESULT:      -8.4      0.000      0.000
REMARK  Name = 
REMARK  8 active torsions:
REMARK  status: ('A' for Active; 'I' for Inactive)
REMARK    1  A    between atoms: C_2  and  C_3
REMARK    2  A    between atoms: C_2  and  O_18
REMARK    3  A    between atoms: C_3  and  C_4
REMARK    4  A    between atoms: C_4  and  N_5
REMARK    5  A    between atoms: C_4  and  C_12
REMARK    6  A    between atoms: C_6  and  C_8
REMARK    7  A    between atoms: O_18  and  C_19
REMARK    8  A    between atoms: C_22  and  N_23
REMARK                            x       y       z     vdW  Elec       q    Type
REMARK                         _______ _______ _______ _____ _____    ______ ____
ROOT
ATOM      1  C   UNL     1       2.883   6.249  18.068  0.00  0.00    +0.000 C 
ENDROOT
BRANCH   1   2
ATOM      2  C   UNL     1       2.224   7.498  18.645  0.00  0.00    +0.000 A 
ATOM      3  C   UNL     1       1.950   7.590  20.017  0.00  0.00    +0.000 A 
ATOM      4  C   UNL     1       1.305   8.716  20.536  0.00  0.00    +0.000 A 
ATOM      5  C   UNL     1       0.929   9.763  19.695  0.00  0.00    +0.000 A 
ATOM      6  C   UNL     1       1.202   9.690  18.333  0.00  0.00    +0.000 A 
ATOM      7  C   UNL     1       1.849   8.571  17.813  0.00  0.00    +0.000 A 
ENDBRANCH   1   2
BRANCH   1   8
ATOM      8  N   UNL     1       2.499   5.094  18.865  0.00  0.00    +0.000 N 
ATOM      9  C   UNL     1       1.636   4.106  18.394  0.00  0.00    +0.000 C 
ATOM     10  O   UNL     1       1.175   4.125  17.252  0.00  0.00    +0.000 OA
ATOM     11  H   UNL     1       2.693   5.100  19.861  0.00  0.00    +0.000 HD
BRANCH   9  12
ATOM     12  C   UNL     1       1.323   3.000  19.426  0.00  0.00    +0.000 C 
ATOM     13  F   UNL     1       1.232   3.512  20.692  0.00  0.00    +0.000 F 
ATOM     14  F   UNL     1       0.139   2.376  19.186  0.00  0.00    +0.000 F 
ATOM     15  F   UNL     1       2.280   2.036  19.477  0.00  0.00    +0.000 F 
ENDBRANCH   9  12
ENDBRANCH   1   8
BRANCH   1  16
ATOM     16  C   UNL     1       4.396   6.458  18.065  0.00  0.00    +0.000 C 
BRANCH  16  18
ATOM     17  O   UNL     1       5.692   5.377  19.827  0.00  0.00    +0.000 OA
ATOM     18  C   UNL     1       5.181   5.358  18.721  0.00  0.00    +0.000 C 
BRANCH  18  19
ATOM     19  O   UNL     1       5.137   4.272  17.840  0.00  0.00    +0.000 OA
BRANCH  19  20
ATOM     20  C   UNL     1       5.698   4.318  16.550  0.00  0.00    +0.000 A 
ATOM     21  C   UNL     1       7.029   4.745  16.520  0.00  0.00    +0.000 A 
ATOM     22  C   UNL     1       7.657   4.972  15.295  0.00  0.00    +0.000 A 
ATOM     23  C   UNL     1       6.945   4.754  14.109  0.00  0.00    +0.000 A 
ATOM     24  C   UNL     1       5.617   4.303  14.144  0.00  0.00    +0.000 A 
ATOM     25  C   UNL     1       4.992   4.083  15.374  0.00  0.00    +0.000 A 
BRANCH  23  26
ATOM     26  N   UNL     1       7.586   5.017  12.814  0.00  0.00    +0.000 N 
ATOM     27  O   UNL     1       7.289   4.275  11.865  0.00  0.00    +0.000 OA
ATOM     28  O   UNL     1       8.390   5.954  12.749  0.00  0.00    +0.000 OA
ENDBRANCH  23  26
ENDBRANCH  19  20
ENDBRANCH  18  19
ENDBRANCH  16  18
ENDBRANCH   1  16
TORSDOF 8
ENDMDL
MODEL 2
REMARK VINA RESULT:      -8.3      0.363      1.180
REMARK  Name = 
REMARK  8 active torsions:
REMARK  status: ('A' for Active; 'I' for Inactive)
REMARK    1  A    between atoms: C_2  and  C_3
REMARK    2  A    between atoms: C_2  and  O_18
REMARK    3  A    between atoms: C_3  and  C_4
REMARK    4  A    between atoms: C_4  and  N_5
REMARK    5  A    between atoms: C_4  and  C_12
REMARK    6  A    between atoms: C_6  and  C_8
REMARK    7  A    between atoms: O_18  and  C_19
REMARK    8  A    between atoms: C_22  and  N_23
REMARK                            x       y       z     vdW  Elec       q    Type
REMARK                         _______ _______ _______ _____ _____    ______ ____
ROOT
ATOM      1  C   UNL     1       3.009   5.991  18.219  0.00  0.00    +0.000 C 
ENDROOT
BRANCH   1   2
ATOM      2  C   UNL     1       2.333   7.247  18.758  0.00  0.00    +0.000 A 
ATOM      3  C   UNL     1       1.970   7.336  20.110  0.00  0.00    +0.000 A 
ATOM      4  C   UNL     1       1.309   8.470  20.591  0.00  0.00    +0.000 A 
ATOM      5  C   UNL     1       1.004   9.525  19.734  0.00  0.00    +0.000 A 
ATOM      6  C   UNL     1       1.364   9.455  18.392  0.00  0.00    +0.000 A 
ATOM      7  C   UNL     1       2.028   8.329  17.910  0.00  0.00    +0.000 A 
ENDBRANCH   1   2
BRANCH   1   8
ATOM      8  N   UNL     1       2.466   4.824  18.898  0.00  0.00    +0.000 N 
ATOM      9  C   UNL     1       1.530   3.978  18.308  0.00  0.00    +0.000 C 
ATOM     10  O   UNL     1       1.132   4.137  17.154  0.00  0.00    +0.000 OA
ATOM     11  H   UNL     1       2.609   4.731  19.898  0.00  0.00    +0.000 HD
BRANCH   9  12
ATOM     12  C   UNL     1       1.050   2.833  19.230  0.00  0.00    +0.000 C 
ATOM     13  F   UNL     1       2.093   2.039  19.621  0.00  0.00    +0.000 F 
ATOM     14  F   UNL     1       0.472   3.287  20.374  0.00  0.00    +0.000 F 
ATOM     15  F   UNL     1       0.152   2.009  18.628  0.00  0.00    +0.000 F 
ENDBRANCH   9  12
ENDBRANCH   1   8
BRANCH   1  16
ATOM     16  C   UNL     1       4.516   6.123  18.436  0.00  0.00    +0.000 C 
BRANCH  16  18
ATOM     17  O   UNL     1       5.564   4.608  20.036  0.00  0.00    +0.000 OA
ATOM     18  C   UNL     1       5.193   4.866  18.904  0.00  0.00    +0.000 C 
BRANCH  18  19
ATOM     19  O   UNL     1       5.237   4.014  17.796  0.00  0.00    +0.000 OA
BRANCH  19  20
ATOM     20  C   UNL     1       5.838   4.382  16.578  0.00  0.00    +0.000 A 
ATOM     21  C   UNL     1       5.078   4.069  15.447  0.00  0.00    +0.000 A 
ATOM     22  C   UNL     1       5.621   4.250  14.174  0.00  0.00    +0.000 A 
ATOM     23  C   UNL     1       6.920   4.760  14.050  0.00  0.00    +0.000 A 
ATOM     24  C   UNL     1       7.669   5.096  15.187  0.00  0.00    +0.000 A 
ATOM     25  C   UNL     1       7.122   4.906  16.458  0.00  0.00    +0.000 A 
BRANCH  23  26
ATOM     26  N   UNL     1       7.512   4.929  12.717  0.00  0.00    +0.000 N 
ATOM     27  O   UNL     1       7.185   4.118  11.836  0.00  0.00    +0.000 OA
ATOM     28  O   UNL     1       8.308   5.861  12.553  0.00  0.00    +0.000 OA
ENDBRANCH  23  26
ENDBRANCH  19  20
ENDBRANCH  18  19
ENDBRANCH  16  18
ENDBRANCH   1  16
TORSDOF 8
ENDMDL
MODEL 3
REMARK VINA RESULT:      -8.3      0.407      1.246
REMARK  Name = 
REMARK  8 active torsions:
REMARK  status: ('A' for Active; 'I' for Inactive)
REMARK    1  A    between atoms: C_2  and  C_3
REMARK    2  A    between atoms: C_2  and  O_18
REMARK    3  A    between atoms: C_3  and  C_4
REMARK    4  A    between atoms: C_4  and  N_5
REMARK    5  A    between atoms: C_4  and  C_12
REMARK    6  A    between atoms: C_6  and  C_8
REMARK    7  A    between atoms: O_18  and  C_19
REMARK    8  A    between atoms: C_22  and  N_23
REMARK                            x       y       z     vdW  Elec       q    Type
REMARK                         _______ _______ _______ _____ _____    ______ ____
ROOT
ATOM      1  C   UNL     1       2.939   6.057  18.129  0.00  0.00    +0.000 C 
ENDROOT
BRANCH   1   2
ATOM      2  C   UNL     1       2.275   7.310  18.690  0.00  0.00    +0.000 A 
ATOM      3  C   UNL     1       2.015   8.411  17.861  0.00  0.00    +0.000 A 
ATOM      4  C   UNL     1       1.449   9.575  18.388  0.00  0.00    +0.000 A 
ATOM      5  C   UNL     1       1.133   9.654  19.744  0.00  0.00    +0.000 A 
ATOM      6  C   UNL     1       1.377   8.567  20.577  0.00  0.00    +0.000 A 
ATOM      7  C   UNL     1       1.938   7.404  20.054  0.00  0.00    +0.000 A 
ENDBRANCH   1   2
BRANCH   1   8
ATOM      8  N   UNL     1       2.456   4.892  18.855  0.00  0.00    +0.000 N 
ATOM      9  C   UNL     1       1.527   4.003  18.319  0.00  0.00    +0.000 C 
ATOM     10  O   UNL     1       1.086   4.120  17.175  0.00  0.00    +0.000 OA
ATOM     11  H   UNL     1       2.635   4.829  19.851  0.00  0.00    +0.000 HD
BRANCH   9  12
ATOM     12  C   UNL     1       1.115   2.868  19.284  0.00  0.00    +0.000 C 
ATOM     13  F   UNL     1       2.177   2.441  20.032  0.00  0.00    +0.000 F 
ATOM     14  F   UNL     1       0.159   3.254  20.172  0.00  0.00    +0.000 F 
ATOM     15  F   UNL     1       0.640   1.770  18.639  0.00  0.00    +0.000 F 
ENDBRANCH   9  12
ENDBRANCH   1   8
BRANCH   1  16
ATOM     16  C   UNL     1       4.453   6.216  18.255  0.00  0.00    +0.000 C 
BRANCH  16  18
ATOM     17  O   UNL     1       5.640   4.899  19.932  0.00  0.00    +0.000 OA
ATOM     18  C   UNL     1       5.164   5.017  18.817  0.00  0.00    +0.000 C 
BRANCH  18  19
ATOM     19  O   UNL     1       5.094   4.028  17.830  0.00  0.00    +0.000 OA
BRANCH  19  20
ATOM     20  C   UNL     1       5.725   4.158  16.579  0.00  0.00    +0.000 A 
ATOM     21  C   UNL     1       6.997   4.737  16.638  0.00  0.00    +0.000 A 
ATOM     22  C   UNL     1       7.670   5.055  15.457  0.00  0.00    +0.000 A 
ATOM     23  C   UNL     1       7.063   4.774  14.226  0.00  0.00    +0.000 A 
ATOM     24  C   UNL     1       5.797   4.171  14.173  0.00  0.00    +0.000 A 
ATOM     25  C   UNL     1       5.126   3.862  15.358  0.00  0.00    +0.000 A 
BRANCH  23  26
ATOM     26  N   UNL     1       7.748   5.129  12.977  0.00  0.00    +0.000 N 
ATOM     27  O   UNL     1       8.668   5.960  13.043  0.00  0.00    +0.000 OA
ATOM     28  O   UNL     1       7.364   4.589  11.934  0.00  0.00    +0.000 OA
ENDBRANCH  23  26
ENDBRANCH  19  20
ENDBRANCH  18  19
ENDBRANCH  16  18
ENDBRANCH   1  16
TORSDOF 8
ENDMDL
MODEL 4
REMARK VINA RESULT:      -8.0      0.919      1.863
REMARK  Name = 
REMARK  8 active torsions:
REMARK  status: ('A' for Active; 'I' for Inactive)
REMARK    1  A    between atoms: C_2  and  C_3
REMARK    2  A    between atoms: C_2  and  O_18
REMARK    3  A    between atoms: C_3  and  C_4
REMARK    4  A    between atoms: C_4  and  N_5
REMARK    5  A    between atoms: C_4  and  C_12
REMARK    6  A    between atoms: C_6  and  C_8
REMARK    7  A    between atoms: O_18  and  C_19
REMARK    8  A    between atoms: C_22  and  N_23
REMARK                            x       y       z     vdW  Elec       q    Type
REMARK                         _______ _______ _______ _____ _____    ______ ____
ROOT
ATOM      1  C   UNL     1       3.086   5.862  18.378  0.00  0.00    +0.000 C 
ENDROOT
BRANCH   1   2
ATOM      2  C   UNL     1       2.387   7.185  18.669  0.00  0.00    +0.000 A 
ATOM      3  C   UNL     1       2.212   8.137  17.653  0.00  0.00    +0.000 A 
ATOM      4  C   UNL     1       1.613   9.368  17.933  0.00  0.00    +0.000 A 
ATOM      5  C   UNL     1       1.178   9.663  19.225  0.00  0.00    +0.000 A 
ATOM      6  C   UNL     1       1.336   8.726  20.241  0.00  0.00    +0.000 A 
ATOM      7  C   UNL     1       1.930   7.496  19.964  0.00  0.00    +0.000 A 
ENDBRANCH   1   2
BRANCH   1   8
ATOM      8  N   UNL     1       2.362   4.783  19.033  0.00  0.00    +0.000 N 
ATOM      9  C   UNL     1       1.765   3.739  18.328  0.00  0.00    +0.000 C 
ATOM     10  O   UNL     1       1.851   3.638  17.104  0.00  0.00    +0.000 OA
ATOM     11  H   UNL     1       2.101   4.890  20.008  0.00  0.00    +0.000 HD
BRANCH   9  12
ATOM     12  C   UNL     1       1.003   2.734  19.220  0.00  0.00    +0.000 C 
ATOM     13  F   UNL     1       0.085   2.023  18.496  0.00  0.00    +0.000 F 
ATOM     14  F   UNL     1       1.823   1.814  19.795  0.00  0.00    +0.000 F 
ATOM     15  F   UNL     1       0.310   3.334  20.224  0.00  0.00    +0.000 F 
ENDBRANCH   9  12
ENDBRANCH   1   8
BRANCH   1  16
ATOM     16  C   UNL     1       4.528   5.959  18.874  0.00  0.00    +0.000 C 
BRANCH  16  18
ATOM     17  O   UNL     1       4.878   3.629  19.511  0.00  0.00    +0.000 OA
ATOM     18  C   UNL     1       5.253   4.645  18.952  0.00  0.00    +0.000 C 
BRANCH  18  19
ATOM     19  O   UNL     1       6.410   4.794  18.180  0.00  0.00    +0.000 OA
BRANCH  19  20
ATOM     20  C   UNL     1       6.403   4.698  16.776  0.00  0.00    +0.000 A 
ATOM     21  C   UNL     1       5.469   3.789  16.270  0.00  0.00    +0.000 A 
ATOM     22  C   UNL     1       5.457   3.493  14.906  0.00  0.00    +0.000 A 
ATOM     23  C   UNL     1       6.378   4.125  14.060  0.00  0.00    +0.000 A 
ATOM     24  C   UNL     1       7.297   5.054  14.569  0.00  0.00    +0.000 A 
ATOM     25  C   UNL     1       7.307   5.342  15.936  0.00  0.00    +0.000 A 
BRANCH  23  26
ATOM     26  N   UNL     1       6.394   3.801  12.628  0.00  0.00    +0.000 N 
ATOM     27  O   UNL     1       7.246   4.362  11.922  0.00  0.00    +0.000 OA
ATOM     28  O   UNL     1       5.553   2.996  12.210  0.00  0.00    +0.000 OA
ENDBRANCH  23  26
ENDBRANCH  19  20
ENDBRANCH  18  19
ENDBRANCH  16  18
ENDBRANCH   1  16
TORSDOF 8
ENDMDL
MODEL 5
REMARK VINA RESULT:      -8.0      1.078      1.704
REMARK  Name = 
REMARK  8 active torsions:
REMARK  status: ('A' for Active; 'I' for Inactive)
REMARK    1  A    between atoms: C_2  and  C_3
REMARK    2  A    between atoms: C_2  and  O_18
REMARK    3  A    between atoms: C_3  and  C_4
REMARK    4  A    between atoms: C_4  and  N_5
REMARK    5  A    between atoms: C_4  and  C_12
REMARK    6  A    between atoms: C_6  and  C_8
REMARK    7  A    between atoms: O_18  and  C_19
REMARK    8  A    between atoms: C_22  and  N_23
REMARK                            x       y       z     vdW  Elec       q    Type
REMARK                         _______ _______ _______ _____ _____    ______ ____
ROOT
ATOM      1  C   UNL     1       3.186   5.869  18.589  0.00  0.00    +0.000 C 
ENDROOT
BRANCH   1   2
ATOM      2  C   UNL     1       2.396   7.142  18.873  0.00  0.00    +0.000 A 
ATOM      3  C   UNL     1       2.184   8.090  17.863  0.00  0.00    +0.000 A 
ATOM      4  C   UNL     1       1.499   9.277  18.139  0.00  0.00    +0.000 A 
ATOM      5  C   UNL     1       1.016   9.530  19.422  0.00  0.00    +0.000 A 
ATOM      6  C   UNL     1       1.211   8.595  20.433  0.00  0.00    +0.000 A 
ATOM      7  C   UNL     1       1.889   7.409  20.160  0.00  0.00    +0.000 A 
ENDBRANCH   1   2
BRANCH   1   8
ATOM      8  N   UNL     1       2.488   4.731  19.167  0.00  0.00    +0.000 N 
ATOM      9  C   UNL     1       1.887   3.742  18.391  0.00  0.00    +0.000 C 
ATOM     10  O   UNL     1       1.946   3.744  17.161  0.00  0.00    +0.000 OA
ATOM     11  H   UNL     1       2.248   4.754  20.153  0.00  0.00    +0.000 HD
BRANCH   9  12
ATOM     12  C   UNL     1       1.154   2.657  19.213  0.00  0.00    +0.000 C 
ATOM     13  F   UNL     1       0.077   2.160  18.532  0.00  0.00    +0.000 F 
ATOM     14  F   UNL     1       1.946   1.588  19.496  0.00  0.00    +0.000 F 
ATOM     15  F   UNL     1       0.673   3.122  20.396  0.00  0.00    +0.000 F 
ENDBRANCH   9  12
ENDBRANCH   1   8
BRANCH   1  16
ATOM     16  C   UNL     1       4.588   6.031  19.174  0.00  0.00    +0.000 C 
BRANCH  16  18
ATOM     17  O   UNL     1       5.610   3.822  19.360  0.00  0.00    +0.000 OA
ATOM     18  C   UNL     1       5.540   4.919  18.834  0.00  0.00    +0.000 C 
BRANCH  18  19
ATOM     19  O   UNL     1       6.278   5.364  17.731  0.00  0.00    +0.000 OA
BRANCH  19  20
ATOM     20  C   UNL     1       6.191   4.756  16.465  0.00  0.00    +0.000 A 
ATOM     21  C   UNL     1       7.136   5.218  15.543  0.00  0.00    +0.000 A 
ATOM     22  C   UNL     1       7.067   4.802  14.213  0.00  0.00    +0.000 A 
ATOM     23  C   UNL     1       6.056   3.913  13.823  0.00  0.00    +0.000 A 
ATOM     24  C   UNL     1       5.126   3.435  14.757  0.00  0.00    +0.000 A 
ATOM     25  C   UNL     1       5.196   3.859  16.086  0.00  0.00    +0.000 A 
BRANCH  23  26
ATOM     26  N   UNL     1       5.957   3.492  12.421  0.00  0.00    +0.000 N 
ATOM     27  O   UNL     1       4.841   3.547  11.882  0.00  0.00    +0.000 OA
ATOM     28  O   UNL     1       6.988   3.098  11.863  0.00  0.00    +0.000 OA
ENDBRANCH  23  26
ENDBRANCH  19  20
ENDBRANCH  18  19
ENDBRANCH  16  18
ENDBRANCH   1  16
TORSDOF 8
ENDMDL
MODEL 6
REMARK VINA RESULT:      -8.0      0.882      1.402
REMARK  Name = 
REMARK  8 active torsions:
REMARK  status: ('A' for Active; 'I' for Inactive)
REMARK    1  A    between atoms: C_2  and  C_3
REMARK    2  A    between atoms: C_2  and  O_18
REMARK    3  A    between atoms: C_3  and  C_4
REMARK    4  A    between atoms: C_4  and  N_5
REMARK    5  A    between atoms: C_4  and  C_12
REMARK    6  A    between atoms: C_6  and  C_8
REMARK    7  A    between atoms: O_18  and  C_19
REMARK    8  A    between atoms: C_22  and  N_23
REMARK                            x       y       z     vdW  Elec       q    Type
REMARK                         _______ _______ _______ _____ _____    ______ ____
ROOT
ATOM      1  C   UNL     1       3.103   5.989  18.229  0.00  0.00    +0.000 C 
ENDROOT
BRANCH   1   2
ATOM      2  C   UNL     1       2.415   7.290  18.628  0.00  0.00    +0.000 A 
ATOM      3  C   UNL     1       2.000   7.500  19.951  0.00  0.00    +0.000 A 
ATOM      4  C   UNL     1       1.329   8.674  20.305  0.00  0.00    +0.000 A 
ATOM      5  C   UNL     1       1.066   9.651  19.346  0.00  0.00    +0.000 A 
ATOM      6  C   UNL     1       1.479   9.462  18.031  0.00  0.00    +0.000 A 
ATOM      7  C   UNL     1       2.153   8.295  17.677  0.00  0.00    +0.000 A 
ENDBRANCH   1   2
BRANCH   1   8
ATOM      8  N   UNL     1       2.469   4.879  18.922  0.00  0.00    +0.000 N 
ATOM      9  C   UNL     1       1.740   3.894  18.257  0.00  0.00    +0.000 C 
ATOM     10  O   UNL     1       1.624   3.875  17.032  0.00  0.00    +0.000 OA
ATOM     11  H   UNL     1       2.372   4.923  19.931  0.00  0.00    +0.000 HD
BRANCH   9  12
ATOM     12  C   UNL     1       1.108   2.840  19.195  0.00  0.00    +0.000 C 
ATOM     13  F   UNL     1       0.501   3.431  20.269  0.00  0.00    +0.000 F 
ATOM     14  F   UNL     1       0.148   2.098  18.580  0.00  0.00    +0.000 F 
ATOM     15  F   UNL     1       2.019   1.970  19.706  0.00  0.00    +0.000 F 
ENDBRANCH   9  12
ENDBRANCH   1   8
BRANCH   1  16
ATOM     16  C   UNL     1       4.587   6.101  18.576  0.00  0.00    +0.000 C 
BRANCH  16  18
ATOM     17  O   UNL     1       4.841   3.928  19.658  0.00  0.00    +0.000 OA
ATOM     18  C   UNL     1       5.252   4.795  18.907  0.00  0.00    +0.000 C 
BRANCH  18  19
ATOM     19  O   UNL     1       6.402   4.734  18.112  0.00  0.00    +0.000 OA
BRANCH  19  20
ATOM     20  C   UNL     1       6.349   4.638  16.709  0.00  0.00    +0.000 A 
ATOM     21  C   UNL     1       5.381   3.749  16.232  0.00  0.00    +0.000 A 
ATOM     22  C   UNL     1       5.321   3.454  14.869  0.00  0.00    +0.000 A 
ATOM     23  C   UNL     1       6.228   4.067  13.995  0.00  0.00    +0.000 A 
ATOM     24  C   UNL     1       7.181   4.977  14.475  0.00  0.00    +0.000 A 
ATOM     25  C   UNL     1       7.240   5.264  15.841  0.00  0.00    +0.000 A 
BRANCH  23  26
ATOM     26  N   UNL     1       6.193   3.743  12.563  0.00  0.00    +0.000 N 
ATOM     27  O   UNL     1       7.214   3.975  11.897  0.00  0.00    +0.000 OA
ATOM     28  O   UNL     1       5.148   3.268  12.105  0.00  0.00    +0.000 OA
ENDBRANCH  23  26
ENDBRANCH  19  20
ENDBRANCH  18  19
ENDBRANCH  16  18
ENDBRANCH   1  16
TORSDOF 8
ENDMDL
MODEL 7
REMARK VINA RESULT:      -7.9      0.681      1.588
REMARK  Name = 
REMARK  8 active torsions:
REMARK  status: ('A' for Active; 'I' for Inactive)
REMARK    1  A    between atoms: C_2  and  C_3
REMARK    2  A    between atoms: C_2  and  O_18
REMARK    3  A    between atoms: C_3  and  C_4
REMARK    4  A    between atoms: C_4  and  N_5
REMARK    5  A    between atoms: C_4  and  C_12
REMARK    6  A    between atoms: C_6  and  C_8
REMARK    7  A    between atoms: O_18  and  C_19
REMARK    8  A    between atoms: C_22  and  N_23
REMARK                            x       y       z     vdW  Elec       q    Type
REMARK                         _______ _______ _______ _____ _____    ______ ____
ROOT
ATOM      1  C   UNL     1       3.391   5.691  18.768  0.00  0.00    +0.000 C 
ENDROOT
BRANCH   1   2
ATOM      2  C   UNL     1       2.583   6.978  18.900  0.00  0.00    +0.000 A 
ATOM      3  C   UNL     1       2.441   7.845  17.807  0.00  0.00    +0.000 A 
ATOM      4  C   UNL     1       1.739   9.046  17.944  0.00  0.00    +0.000 A 
ATOM      5  C   UNL     1       1.169   9.394  19.167  0.00  0.00    +0.000 A 
ATOM      6  C   UNL     1       1.295   8.540  20.259  0.00  0.00    +0.000 A 
ATOM      7  C   UNL     1       1.990   7.340  20.125  0.00  0.00    +0.000 A 
ENDBRANCH   1   2
BRANCH   1   8
ATOM      8  N   UNL     1       2.601   4.575  19.267  0.00  0.00    +0.000 N 
ATOM      9  C   UNL     1       1.850   3.752  18.431  0.00  0.00    +0.000 C 
ATOM     10  O   UNL     1       1.840   3.888  17.208  0.00  0.00    +0.000 OA
ATOM     11  H   UNL     1       2.420   4.511  20.263  0.00  0.00    +0.000 HD
BRANCH   9  12
ATOM     12  C   UNL     1       1.045   2.664  19.179  0.00  0.00    +0.000 C 
ATOM     13  F   UNL     1       0.439   3.173  20.295  0.00  0.00    +0.000 F 
ATOM     14  F   UNL     1       0.051   2.130  18.420  0.00  0.00    +0.000 F 
ATOM     15  F   UNL     1       1.820   1.632  19.606  0.00  0.00    +0.000 F 
ENDBRANCH   9  12
ENDBRANCH   1   8
BRANCH   1  16
ATOM     16  C   UNL     1       4.694   5.857  19.550  0.00  0.00    +0.000 C 
BRANCH  16  18
ATOM     17  O   UNL     1       6.898   4.813  19.624  0.00  0.00    +0.000 OA
ATOM     18  C   UNL     1       5.822   4.984  19.078  0.00  0.00    +0.000 C 
BRANCH  18  19
ATOM     19  O   UNL     1       5.357   4.337  17.928  0.00  0.00    +0.000 OA
BRANCH  19  20
ATOM     20  C   UNL     1       5.872   4.604  16.647  0.00  0.00    +0.000 A 
ATOM     21  C   UNL     1       5.147   4.017  15.605  0.00  0.00    +0.000 A 
ATOM     22  C   UNL     1       5.633   4.084  14.298  0.00  0.00    +0.000 A 
ATOM     23  C   UNL     1       6.838   4.753  14.048  0.00  0.00    +0.000 A 
ATOM     24  C   UNL     1       7.549   5.361  15.093  0.00  0.00    +0.000 A 
ATOM     25  C   UNL     1       7.061   5.285  16.400  0.00  0.00    +0.000 A 
BRANCH  23  26
ATOM     26  N   UNL     1       7.373   4.806  12.682  0.00  0.00    +0.000 N 
ATOM     27  O   UNL     1       8.124   5.751  12.395  0.00  0.00    +0.000 OA
ATOM     28  O   UNL     1       7.038   3.912  11.897  0.00  0.00    +0.000 OA
ENDBRANCH  23  26
ENDBRANCH  19  20
ENDBRANCH  18  19
ENDBRANCH  16  18
ENDBRANCH   1  16
TORSDOF 8
ENDMDL
MODEL 8
REMARK VINA RESULT:      -7.8      1.076      1.470
REMARK  Name = 
REMARK  8 active torsions:
REMARK  status: ('A' for Active; 'I' for Inactive)
REMARK    1  A    between atoms: C_2  and  C_3
REMARK    2  A    between atoms: C_2  and  O_18
REMARK    3  A    between atoms: C_3  and  C_4
REMARK    4  A    between atoms: C_4  and  N_5
REMARK    5  A    between atoms: C_4  and  C_12
REMARK    6  A    between atoms: C_6  and  C_8
REMARK    7  A    between atoms: O_18  and  C_19
REMARK    8  A    between atoms: C_22  and  N_23
REMARK                            x       y       z     vdW  Elec       q    Type
REMARK                         _______ _______ _______ _____ _____    ______ ____
ROOT
ATOM      1  C   UNL     1       3.632   5.390  18.734  0.00  0.00    +0.000 C 
ENDROOT
BRANCH   1   2
ATOM      2  C   UNL     1       2.895   6.721  18.844  0.00  0.00    +0.000 A 
ATOM      3  C   UNL     1       2.222   7.067  20.024  0.00  0.00    +0.000 A 
ATOM      4  C   UNL     1       1.509   8.267  20.106  0.00  0.00    +0.000 A 
ATOM      5  C   UNL     1       1.462   9.135  19.015  0.00  0.00    +0.000 A 
ATOM      6  C   UNL     1       2.133   8.809  17.841  0.00  0.00    +0.000 A 
ATOM      7  C   UNL     1       2.847   7.616  17.758  0.00  0.00    +0.000 A 
ENDBRANCH   1   2
BRANCH   1   8
ATOM      8  N   UNL     1       2.788   4.330  19.266  0.00  0.00    +0.000 N 
ATOM      9  C   UNL     1       1.850   3.653  18.489  0.00  0.00    +0.000 C 
ATOM     10  O   UNL     1       1.705   3.877  17.288  0.00  0.00    +0.000 OA
ATOM     11  H   UNL     1       2.726   4.213  20.272  0.00  0.00    +0.000 HD
BRANCH   9  12
ATOM     12  C   UNL     1       1.027   2.604  19.271  0.00  0.00    +0.000 C 
ATOM     13  F   UNL     1       0.027   2.079  18.498  0.00  0.00    +0.000 F 
ATOM     14  F   UNL     1       1.777   1.547  19.684  0.00  0.00    +0.000 F 
ATOM     15  F   UNL     1       0.422   3.119  20.374  0.00  0.00    +0.000 F 
ENDBRANCH   9  12
ENDBRANCH   1   8
BRANCH   1  16
ATOM     16  C   UNL     1       4.949   5.502  19.499  0.00  0.00    +0.000 C 
BRANCH  16  18
ATOM     17  O   UNL     1       7.166   4.628  18.972  0.00  0.00    +0.000 OA
ATOM     18  C   UNL     1       6.178   5.272  18.665  0.00  0.00    +0.000 C 
BRANCH  18  19
ATOM     19  O   UNL     1       5.926   5.874  17.428  0.00  0.00    +0.000 OA
BRANCH  19  20
ATOM     20  C   UNL     1       6.015   5.174  16.211  0.00  0.00    +0.000 A 
ATOM     21  C   UNL     1       7.222   5.362  15.530  0.00  0.00    +0.000 A 
ATOM     22  C   UNL     1       7.383   4.841  14.246  0.00  0.00    +0.000 A 
ATOM     23  C   UNL     1       6.332   4.121  13.662  0.00  0.00    +0.000 A 
ATOM     24  C   UNL     1       5.133   3.914  14.358  0.00  0.00    +0.000 A 
ATOM     25  C   UNL     1       4.976   4.444  15.641  0.00  0.00    +0.000 A 
BRANCH  23  26
ATOM     26  N   UNL     1       6.480   3.592  12.300  0.00  0.00    +0.000 N 
ATOM     27  O   UNL     1       5.750   2.644  11.970  0.00  0.00    +0.000 OA
ATOM     28  O   UNL     1       7.327   4.115  11.567  0.00  0.00    +0.000 OA
ENDBRANCH  23  26
ENDBRANCH  19  20
ENDBRANCH  18  19
ENDBRANCH  16  18
ENDBRANCH   1  16
TORSDOF 8
ENDMDL
MODEL 9
REMARK VINA RESULT:      -7.8      2.706      4.125
REMARK  Name = 
REMARK  8 active torsions:
REMARK  status: ('A' for Active; 'I' for Inactive)
REMARK    1  A    between atoms: C_2  and  C_3
REMARK    2  A    between atoms: C_2  and  O_18
REMARK    3  A    between atoms: C_3  and  C_4
REMARK    4  A    between atoms: C_4  and  N_5
REMARK    5  A    between atoms: C_4  and  C_12
REMARK    6  A    between atoms: C_6  and  C_8
REMARK    7  A    between atoms: O_18  and  C_19
REMARK    8  A    between atoms: C_22  and  N_23
REMARK                            x       y       z     vdW  Elec       q    Type
REMARK                         _______ _______ _______ _____ _____    ______ ____
ROOT
ATOM      1  C   UNL     1       3.765   5.369  19.634  0.00  0.00    +0.000 C 
ENDROOT
BRANCH   1   2
ATOM      2  C   UNL     1       2.627   4.355  19.696  0.00  0.00    +0.000 A 
ATOM      3  C   UNL     1       2.182   3.858  20.930  0.00  0.00    +0.000 A 
ATOM      4  C   UNL     1       1.171   2.895  20.981  0.00  0.00    +0.000 A 
ATOM      5  C   UNL     1       0.590   2.419  19.806  0.00  0.00    +0.000 A 
ATOM      6  C   UNL     1       1.014   2.909  18.575  0.00  0.00    +0.000 A 
ATOM      7  C   UNL     1       2.019   3.872  18.521  0.00  0.00    +0.000 A 
ENDBRANCH   1   2
BRANCH   1   8
ATOM      8  N   UNL     1       3.402   6.441  18.719  0.00  0.00    +0.000 N 
ATOM      9  C   UNL     1       2.508   7.453  19.063  0.00  0.00    +0.000 C 
ATOM     10  O   UNL     1       1.999   7.531  20.181  0.00  0.00    +0.000 OA
ATOM     11  H   UNL     1       3.639   6.347  17.737  0.00  0.00    +0.000 HD
BRANCH   9  12
ATOM     12  C   UNL     1       2.227   8.456  17.921  0.00  0.00    +0.000 C 
ATOM     13  F   UNL     1       2.482   9.742  18.315  0.00  0.00    +0.000 F 
ATOM     14  F   UNL     1       3.002   8.237  16.825  0.00  0.00    +0.000 F 
ATOM     15  F   UNL     1       0.933   8.437  17.505  0.00  0.00    +0.000 F 
ENDBRANCH   9  12
ENDBRANCH   1   8
BRANCH   1  16
ATOM     16  C   UNL     1       5.032   4.644  19.183  0.00  0.00    +0.000 C 
BRANCH  16  18
ATOM     17  O   UNL     1       7.144   5.432  20.119  0.00  0.00    +0.000 OA
ATOM     18  C   UNL     1       6.285   5.470  19.255  0.00  0.00    +0.000 C 
BRANCH  18  19
ATOM     19  O   UNL     1       6.313   6.235  18.084  0.00  0.00    +0.000 OA
BRANCH  19  20
ATOM     20  C   UNL     1       6.349   5.657  16.802  0.00  0.00    +0.000 A 
ATOM     21  C   UNL     1       5.344   6.110  15.942  0.00  0.00    +0.000 A 
ATOM     22  C   UNL     1       5.180   5.512  14.691  0.00  0.00    +0.000 A 
ATOM     23  C   UNL     1       6.039   4.472  14.310  0.00  0.00    +0.000 A 
ATOM     24  C   UNL     1       7.060   4.038  15.167  0.00  0.00    +0.000 A 
ATOM     25  C   UNL     1       7.215   4.636  16.420  0.00  0.00    +0.000 A 
BRANCH  23  26
ATOM     26  N   UNL     1       5.858   3.817  13.009  0.00  0.00    +0.000 N 
ATOM     27  O   UNL     1       6.877   3.454  12.402  0.00  0.00    +0.000 OA
ATOM     28  O   UNL     1       4.703   3.675  12.590  0.00  0.00    +0.000 OA
ENDBRANCH  23  26
ENDBRANCH  19  20
ENDBRANCH  18  19
ENDBRANCH  16  18
ENDBRANCH   1  16
TORSDOF 8
ENDMDL
