MODEL 1
REMARK VINA RESULT:      -8.4      0.000      0.000
REMARK  Name = 
REMARK  3 active torsions:
REMARK  status: ('A' for Active; 'I' for Inactive)
REMARK    1  A    between atoms: N_3  and  C_4
REMARK    2  A    between atoms: C_7  and  C_8
REMARK    3  A    between atoms: C_14  and  C_16
REMARK                            x       y       z     vdW  Elec       q    Type
REMARK                         _______ _______ _______ _____ _____    ______ ____
ROOT
ATOM      1  C   UNL     1       1.463   8.675  19.999  0.00  0.00    +0.000 A 
ATOM      2  C   UNL     1       1.400   8.534  21.387  0.00  0.00    +0.000 A 
ATOM      3  C   UNL     1       0.529   9.326  22.142  0.00  0.00    +0.000 A 
ATOM      4  C   UNL     1      -0.290  10.269  21.518  0.00  0.00    +0.000 A 
ATOM      5  C   UNL     1      -0.206  10.434  20.130  0.00  0.00    +0.000 A 
ATOM      6  C   UNL     1       0.646   9.628  19.374  0.00  0.00    +0.000 A 
ENDROOT
BRANCH   1   9
ATOM      7  O   UNL     1       1.856   5.777  19.791  0.00  0.00    +0.000 OA
ATOM      8  C   UNL     1       2.528   6.588  19.159  0.00  0.00    +0.000 C 
ATOM      9  N   UNL     1       2.346   7.951  19.181  0.00  0.00    +0.000 N 
ATOM     10  N   UNL     1       3.549   6.156  18.349  0.00  0.00    +0.000 N 
ATOM     11  C   UNL     1       4.357   6.932  17.412  0.00  0.00    +0.000 C 
ATOM     12  C   UNL     1       4.909   5.884  16.508  0.00  0.00    +0.000 A 
ATOM     13  C   UNL     1       5.353   5.985  15.207  0.00  0.00    +0.000 A 
ATOM     14  C   UNL     1       5.802   4.820  14.581  0.00  0.00    +0.000 A 
ATOM     15  C   UNL     1       5.893   3.609  15.288  0.00  0.00    +0.000 A 
ATOM     16  C   UNL     1       5.393   3.507  16.586  0.00  0.00    +0.000 A 
ATOM     17  C   UNL     1       4.817   4.637  17.132  0.00  0.00    +0.000 A 
ATOM     18  C   UNL     1       3.807   4.723  18.232  0.00  0.00    +0.000 C 
ATOM     19  H   UNL     1       2.863   8.490  18.509  0.00  0.00    +0.000 HD
ENDBRANCH   1   9
BRANCH   4  20
ATOM     20  C   UNL     1      -1.107  11.168  22.377  0.00  0.00    +0.000 C 
ATOM     21  O   UNL     1      -1.555  10.703  23.418  0.00  0.00    +0.000 OA
ATOM     22  N   UNL     1      -1.275  12.504  22.027  0.00  0.00    +0.000 N 
ATOM     23  C   UNL     1      -1.800  13.440  23.026  0.00  0.00    +0.000 C 
ATOM     24  C   UNL     1      -0.974  14.741  23.046  0.00  0.00    +0.000 C 
ATOM     25  N   UNL     1      -0.781  15.281  21.691  0.00  0.00    +0.000 N 
ATOM     26  C   UNL     1      -0.718  16.674  21.529  0.00  0.00    +0.000 C 
ATOM     27  O   UNL     1      -0.732  17.417  22.505  0.00  0.00    +0.000 OA
ATOM     28  C   UNL     1      -0.269  14.307  20.718  0.00  0.00    +0.000 C 
ATOM     29  C   UNL     1      -1.167  13.069  20.676  0.00  0.00    +0.000 C 
BRANCH  26  30
ATOM     30  C   UNL     1      -0.644  17.202  20.176  0.00  0.00    +0.000 A 
ATOM     31  C   UNL     1      -1.636  17.427  19.249  0.00  0.00    +0.000 A 
ATOM     32  C   UNL     1      -1.015  17.976  18.098  0.00  0.00    +0.000 A 
ATOM     33  C   UNL     1       0.329  18.015  18.376  0.00  0.00    +0.000 A 
ATOM     34  O   UNL     1       0.570  17.521  19.617  0.00  0.00    +0.000 OA
ENDBRANCH  26  30
ENDBRANCH   4  20
TORSDOF 3
ENDMDL
MODEL 2
REMARK VINA RESULT:      -8.2      0.979      1.064
REMARK  Name = 
REMARK  3 active torsions:
REMARK  status: ('A' for Active; 'I' for Inactive)
REMARK    1  A    between atoms: N_3  and  C_4
REMARK    2  A    between atoms: C_7  and  C_8
REMARK    3  A    between atoms: C_14  and  C_16
REMARK                            x       y       z     vdW  Elec       q    Type
REMARK                         _______ _______ _______ _____ _____    ______ ____
ROOT
ATOM      1  C   UNL     1       1.166   9.330  19.629  0.00  0.00    +0.000 A 
ATOM      2  C   UNL     1       1.244   9.603  20.996  0.00  0.00    +0.000 A 
ATOM      3  C   UNL     1       0.321  10.461  21.602  0.00  0.00    +0.000 A 
ATOM      4  C   UNL     1      -0.691  11.057  20.848  0.00  0.00    +0.000 A 
ATOM      5  C   UNL     1      -0.752  10.810  19.471  0.00  0.00    +0.000 A 
ATOM      6  C   UNL     1       0.154   9.936  18.870  0.00  0.00    +0.000 A 
ENDROOT
BRANCH   1   9
ATOM      7  O   UNL     1       1.741   6.474  19.961  0.00  0.00    +0.000 OA
ATOM      8  C   UNL     1       2.353   7.190  19.173  0.00  0.00    +0.000 C 
ATOM      9  N   UNL     1       2.085   8.519  18.941  0.00  0.00    +0.000 N 
ATOM     10  N   UNL     1       3.391   6.675  18.435  0.00  0.00    +0.000 N 
ATOM     11  C   UNL     1       4.138   7.307  17.351  0.00  0.00    +0.000 C 
ATOM     12  C   UNL     1       4.746   6.142  16.648  0.00  0.00    +0.000 A 
ATOM     13  C   UNL     1       5.168   6.022  15.342  0.00  0.00    +0.000 A 
ATOM     14  C   UNL     1       5.684   4.788  14.937  0.00  0.00    +0.000 A 
ATOM     15  C   UNL     1       5.858   3.741  15.857  0.00  0.00    +0.000 A 
ATOM     16  C   UNL     1       5.381   3.856  17.161  0.00  0.00    +0.000 A 
ATOM     17  C   UNL     1       4.739   5.032  17.498  0.00  0.00    +0.000 A 
ATOM     18  C   UNL     1       3.739   5.264  18.585  0.00  0.00    +0.000 C 
ATOM     19  H   UNL     1       2.559   8.951  18.169  0.00  0.00    +0.000 HD
ENDBRANCH   1   9
BRANCH   4  20
ATOM     20  C   UNL     1      -1.570  12.055  21.516  0.00  0.00    +0.000 C 
ATOM     21  O   UNL     1      -2.203  11.684  22.497  0.00  0.00    +0.000 OA
ATOM     22  N   UNL     1      -1.594  13.372  21.070  0.00  0.00    +0.000 N 
ATOM     23  C   UNL     1      -2.204  14.399  21.921  0.00  0.00    +0.000 C 
ATOM     24  C   UNL     1      -1.307  15.651  21.999  0.00  0.00    +0.000 C 
ATOM     25  N   UNL     1      -0.872  16.090  20.664  0.00  0.00    +0.000 N 
ATOM     26  C   UNL     1      -0.693  17.463  20.437  0.00  0.00    +0.000 C 
ATOM     27  O   UNL     1      -0.809  18.267  21.356  0.00  0.00    +0.000 OA
ATOM     28  C   UNL     1      -0.281  15.027  19.839  0.00  0.00    +0.000 C 
ATOM     29  C   UNL     1      -1.241  13.841  19.724  0.00  0.00    +0.000 C 
BRANCH  26  30
ATOM     30  C   UNL     1      -0.376  17.897  19.086  0.00  0.00    +0.000 A 
ATOM     31  C   UNL     1      -1.200  18.165  18.017  0.00  0.00    +0.000 A 
ATOM     32  C   UNL     1      -0.371  18.577  16.942  0.00  0.00    +0.000 A 
ATOM     33  C   UNL     1       0.919  18.495  17.408  0.00  0.00    +0.000 A 
ATOM     34  O   UNL     1       0.931  18.056  18.692  0.00  0.00    +0.000 OA
ENDBRANCH  26  30
ENDBRANCH   4  20
TORSDOF 3
ENDMDL
MODEL 3
REMARK VINA RESULT:      -8.1      6.689     10.089
REMARK  Name = 
REMARK  3 active torsions:
REMARK  status: ('A' for Active; 'I' for Inactive)
REMARK    1  A    between atoms: N_3  and  C_4
REMARK    2  A    between atoms: C_7  and  C_8
REMARK    3  A    between atoms: C_14  and  C_16
REMARK                            x       y       z     vdW  Elec       q    Type
REMARK                         _______ _______ _______ _____ _____    ______ ____
ROOT
ATOM      1  C   UNL     1       2.622  14.761  19.287  0.00  0.00    +0.000 A 
ATOM      2  C   UNL     1       3.423  14.776  20.432  0.00  0.00    +0.000 A 
ATOM      3  C   UNL     1       4.470  15.693  20.553  0.00  0.00    +0.000 A 
ATOM      4  C   UNL     1       4.731  16.607  19.530  0.00  0.00    +0.000 A 
ATOM      5  C   UNL     1       3.950  16.573  18.369  0.00  0.00    +0.000 A 
ATOM      6  C   UNL     1       2.890  15.673  18.258  0.00  0.00    +0.000 A 
ENDROOT
BRANCH   1   9
ATOM      7  O   UNL     1      -0.278  15.140  19.497  0.00  0.00    +0.000 OA
ATOM      8  C   UNL     1       0.235  14.055  19.237  0.00  0.00    +0.000 C 
ATOM      9  N   UNL     1       1.584  13.838  19.073  0.00  0.00    +0.000 N 
ATOM     10  N   UNL     1      -0.550  12.939  19.079  0.00  0.00    +0.000 N 
ATOM     11  C   UNL     1      -0.158  11.608  18.626  0.00  0.00    +0.000 C 
ATOM     12  C   UNL     1      -1.455  11.013  18.193  0.00  0.00    +0.000 A 
ATOM     13  C   UNL     1      -1.704  10.005  17.287  0.00  0.00    +0.000 A 
ATOM     14  C   UNL     1      -3.037   9.659  17.050  0.00  0.00    +0.000 A 
ATOM     15  C   UNL     1      -4.078  10.251  17.785  0.00  0.00    +0.000 A 
ATOM     16  C   UNL     1      -3.818  11.305  18.660  0.00  0.00    +0.000 A 
ATOM     17  C   UNL     1      -2.508  11.730  18.767  0.00  0.00    +0.000 A 
ATOM     18  C   UNL     1      -2.000  13.067  19.203  0.00  0.00    +0.000 C 
ATOM     19  H   UNL     1       1.861  12.941  18.718  0.00  0.00    +0.000 HD
ENDBRANCH   1   9
BRANCH   4  20
ATOM     20  C   UNL     1       5.932  17.478  19.655  0.00  0.00    +0.000 C 
ATOM     21  O   UNL     1       5.763  18.619  20.069  0.00  0.00    +0.000 OA
ATOM     22  N   UNL     1       7.195  16.966  19.381  0.00  0.00    +0.000 N 
ATOM     23  C   UNL     1       8.377  17.722  19.811  0.00  0.00    +0.000 C 
ATOM     24  C   UNL     1       9.407  16.793  20.484  0.00  0.00    +0.000 C 
ATOM     25  N   UNL     1       9.665  15.593  19.674  0.00  0.00    +0.000 N 
ATOM     26  C   UNL     1      10.952  15.034  19.698  0.00  0.00    +0.000 C 
ATOM     27  O   UNL     1      11.813  15.483  20.448  0.00  0.00    +0.000 OA
ATOM     28  C   UNL     1       8.455  14.875  19.251  0.00  0.00    +0.000 C 
ATOM     29  C   UNL     1       7.501  15.819  18.516  0.00  0.00    +0.000 C 
BRANCH  26  30
ATOM     30  C   UNL     1      11.230  13.919  18.807  0.00  0.00    +0.000 A 
ATOM     31  C   UNL     1      11.394  12.579  19.076  0.00  0.00    +0.000 A 
ATOM     32  C   UNL     1      11.622  11.928  17.836  0.00  0.00    +0.000 A 
ATOM     33  C   UNL     1      11.624  12.919  16.885  0.00  0.00    +0.000 A 
ATOM     34  O   UNL     1      11.420  14.130  17.462  0.00  0.00    +0.000 OA
ENDBRANCH  26  30
ENDBRANCH   4  20
TORSDOF 3
ENDMDL
MODEL 4
REMARK VINA RESULT:      -8.1      3.293      4.006
REMARK  Name = 
REMARK  3 active torsions:
REMARK  status: ('A' for Active; 'I' for Inactive)
REMARK    1  A    between atoms: N_3  and  C_4
REMARK    2  A    between atoms: C_7  and  C_8
REMARK    3  A    between atoms: C_14  and  C_16
REMARK                            x       y       z     vdW  Elec       q    Type
REMARK                         _______ _______ _______ _____ _____    ______ ____
ROOT
ATOM      1  C   UNL     1       0.615   9.637  21.072  0.00  0.00    +0.000 A 
ATOM      2  C   UNL     1      -0.129   9.446  22.239  0.00  0.00    +0.000 A 
ATOM      3  C   UNL     1      -0.854  10.501  22.799  0.00  0.00    +0.000 A 
ATOM      4  C   UNL     1      -0.843  11.763  22.200  0.00  0.00    +0.000 A 
ATOM      5  C   UNL     1      -0.073  11.965  21.048  0.00  0.00    +0.000 A 
ATOM      6  C   UNL     1       0.632  10.905  20.476  0.00  0.00    +0.000 A 
ENDROOT
BRANCH   1   9
ATOM      7  O   UNL     1       1.792   9.544  18.388  0.00  0.00    +0.000 OA
ATOM      8  C   UNL     1       1.892   8.621  19.192  0.00  0.00    +0.000 C 
ATOM      9  N   UNL     1       1.406   8.639  20.479  0.00  0.00    +0.000 N 
ATOM     10  N   UNL     1       2.534   7.461  18.834  0.00  0.00    +0.000 N 
ATOM     11  C   UNL     1       2.887   6.321  19.675  0.00  0.00    +0.000 C 
ATOM     12  C   UNL     1       3.957   5.648  18.885  0.00  0.00    +0.000 A 
ATOM     13  C   UNL     1       4.977   4.822  19.304  0.00  0.00    +0.000 A 
ATOM     14  C   UNL     1       5.865   4.345  18.337  0.00  0.00    +0.000 A 
ATOM     15  C   UNL     1       5.664   4.618  16.973  0.00  0.00    +0.000 A 
ATOM     16  C   UNL     1       4.660   5.495  16.567  0.00  0.00    +0.000 A 
ATOM     17  C   UNL     1       3.887   6.073  17.555  0.00  0.00    +0.000 A 
ATOM     18  C   UNL     1       3.112   7.351  17.498  0.00  0.00    +0.000 C 
ATOM     19  H   UNL     1       1.681   7.882  21.079  0.00  0.00    +0.000 HD
ENDBRANCH   1   9
BRANCH   4  20
ATOM     20  C   UNL     1      -1.531  12.880  22.903  0.00  0.00    +0.000 C 
ATOM     21  O   UNL     1      -0.982  13.350  23.892  0.00  0.00    +0.000 OA
ATOM     22  N   UNL     1      -2.713  13.403  22.390  0.00  0.00    +0.000 N 
ATOM     23  C   UNL     1      -3.200  14.690  22.899  0.00  0.00    +0.000 C 
ATOM     24  C   UNL     1      -3.638  15.608  21.741  0.00  0.00    +0.000 C 
ATOM     25  N   UNL     1      -4.523  14.907  20.798  0.00  0.00    +0.000 N 
ATOM     26  C   UNL     1      -5.531  15.641  20.155  0.00  0.00    +0.000 C 
ATOM     27  O   UNL     1      -5.611  16.856  20.307  0.00  0.00    +0.000 OA
ATOM     28  C   UNL     1      -4.005  13.616  20.325  0.00  0.00    +0.000 C 
ATOM     29  C   UNL     1      -3.662  12.710  21.510  0.00  0.00    +0.000 C 
BRANCH  26  30
ATOM     30  C   UNL     1      -6.473  14.919  19.315  0.00  0.00    +0.000 A 
ATOM     31  C   UNL     1      -6.895  15.166  18.029  0.00  0.00    +0.000 A 
ATOM     32  C   UNL     1      -7.805  14.134  17.681  0.00  0.00    +0.000 A 
ATOM     33  C   UNL     1      -7.917  13.339  18.796  0.00  0.00    +0.000 A 
ATOM     34  O   UNL     1      -7.141  13.820  19.800  0.00  0.00    +0.000 OA
ENDBRANCH  26  30
ENDBRANCH   4  20
TORSDOF 3
ENDMDL
MODEL 5
REMARK VINA RESULT:      -8.0      3.821      4.893
REMARK  Name = 
REMARK  3 active torsions:
REMARK  status: ('A' for Active; 'I' for Inactive)
REMARK    1  A    between atoms: N_3  and  C_4
REMARK    2  A    between atoms: C_7  and  C_8
REMARK    3  A    between atoms: C_14  and  C_16
REMARK                            x       y       z     vdW  Elec       q    Type
REMARK                         _______ _______ _______ _____ _____    ______ ____
ROOT
ATOM      1  C   UNL     1       1.469  10.051  18.475  0.00  0.00    +0.000 A 
ATOM      2  C   UNL     1       0.240  10.519  18.948  0.00  0.00    +0.000 A 
ATOM      3  C   UNL     1      -0.021  11.890  19.010  0.00  0.00    +0.000 A 
ATOM      4  C   UNL     1       0.943  12.813  18.599  0.00  0.00    +0.000 A 
ATOM      5  C   UNL     1       2.187  12.348  18.155  0.00  0.00    +0.000 A 
ATOM      6  C   UNL     1       2.439  10.978  18.071  0.00  0.00    +0.000 A 
ENDROOT
BRANCH   1   9
ATOM      7  O   UNL     1       1.676   8.109  20.662  0.00  0.00    +0.000 OA
ATOM      8  C   UNL     1       1.955   7.834  19.498  0.00  0.00    +0.000 C 
ATOM      9  N   UNL     1       1.822   8.692  18.430  0.00  0.00    +0.000 N 
ATOM     10  N   UNL     1       2.434   6.588  19.178  0.00  0.00    +0.000 N 
ATOM     11  C   UNL     1       2.678   6.019  17.856  0.00  0.00    +0.000 C 
ATOM     12  C   UNL     1       2.697   4.553  18.127  0.00  0.00    +0.000 A 
ATOM     13  C   UNL     1       2.438   3.496  17.282  0.00  0.00    +0.000 A 
ATOM     14  C   UNL     1       2.505   2.206  17.815  0.00  0.00    +0.000 A 
ATOM     15  C   UNL     1       2.922   1.993  19.141  0.00  0.00    +0.000 A 
ATOM     16  C   UNL     1       3.131   3.071  19.999  0.00  0.00    +0.000 A 
ATOM     17  C   UNL     1       2.914   4.337  19.491  0.00  0.00    +0.000 A 
ATOM     18  C   UNL     1       2.585   5.591  20.235  0.00  0.00    +0.000 C 
ATOM     19  H   UNL     1       1.943   8.300  17.514  0.00  0.00    +0.000 HD
ENDBRANCH   1   9
BRANCH   4  20
ATOM     20  C   UNL     1       0.661  14.260  18.800  0.00  0.00    +0.000 C 
ATOM     21  O   UNL     1      -0.512  14.601  18.891  0.00  0.00    +0.000 OA
ATOM     22  N   UNL     1       1.710  15.160  18.953  0.00  0.00    +0.000 N 
ATOM     23  C   UNL     1       1.424  16.505  19.463  0.00  0.00    +0.000 C 
ATOM     24  C   UNL     1       2.438  16.907  20.552  0.00  0.00    +0.000 C 
ATOM     25  N   UNL     1       3.823  16.658  20.121  0.00  0.00    +0.000 N 
ATOM     26  C   UNL     1       4.830  17.525  20.572  0.00  0.00    +0.000 C 
ATOM     27  O   UNL     1       4.572  18.413  21.380  0.00  0.00    +0.000 OA
ATOM     28  C   UNL     1       4.063  15.305  19.603  0.00  0.00    +0.000 C 
ATOM     29  C   UNL     1       3.086  14.984  18.470  0.00  0.00    +0.000 C 
BRANCH  26  30
ATOM     30  C   UNL     1       6.174  17.343  20.050  0.00  0.00    +0.000 A 
ATOM     31  C   UNL     1       7.337  16.971  20.686  0.00  0.00    +0.000 A 
ATOM     32  C   UNL     1       8.356  16.923  19.699  0.00  0.00    +0.000 A 
ATOM     33  C   UNL     1       7.760  17.309  18.523  0.00  0.00    +0.000 A 
ATOM     34  O   UNL     1       6.450  17.596  18.727  0.00  0.00    +0.000 OA
ENDBRANCH  26  30
ENDBRANCH   4  20
TORSDOF 3
ENDMDL
MODEL 6
REMARK VINA RESULT:      -8.0      3.146      4.782
REMARK  Name = 
REMARK  3 active torsions:
REMARK  status: ('A' for Active; 'I' for Inactive)
REMARK    1  A    between atoms: N_3  and  C_4
REMARK    2  A    between atoms: C_7  and  C_8
REMARK    3  A    between atoms: C_14  and  C_16
REMARK                            x       y       z     vdW  Elec       q    Type
REMARK                         _______ _______ _______ _____ _____    ______ ____
ROOT
ATOM      1  C   UNL     1       0.845  10.094  19.744  0.00  0.00    +0.000 A 
ATOM      2  C   UNL     1       1.333  10.897  20.777  0.00  0.00    +0.000 A 
ATOM      3  C   UNL     1       0.840  12.192  20.962  0.00  0.00    +0.000 A 
ATOM      4  C   UNL     1      -0.146  12.702  20.115  0.00  0.00    +0.000 A 
ATOM      5  C   UNL     1      -0.614  11.910  19.059  0.00  0.00    +0.000 A 
ATOM      6  C   UNL     1      -0.139  10.609  18.889  0.00  0.00    +0.000 A 
ENDROOT
BRANCH   1   9
ATOM      7  O   UNL     1       1.132   7.790  21.534  0.00  0.00    +0.000 OA
ATOM      8  C   UNL     1       1.488   7.769  20.359  0.00  0.00    +0.000 C 
ATOM      9  N   UNL     1       1.325   8.803  19.466  0.00  0.00    +0.000 N 
ATOM     10  N   UNL     1       2.095   6.652  19.840  0.00  0.00    +0.000 N 
ATOM     11  C   UNL     1       2.452   6.372  18.453  0.00  0.00    +0.000 C 
ATOM     12  C   UNL     1       2.596   4.888  18.443  0.00  0.00    +0.000 A 
ATOM     13  C   UNL     1       2.475   3.997  17.400  0.00  0.00    +0.000 A 
ATOM     14  C   UNL     1       2.637   2.638  17.683  0.00  0.00    +0.000 A 
ATOM     15  C   UNL     1       3.010   2.208  18.968  0.00  0.00    +0.000 A 
ATOM     16  C   UNL     1       3.079   3.113  20.026  0.00  0.00    +0.000 A 
ATOM     17  C   UNL     1       2.769   4.431  19.753  0.00  0.00    +0.000 A 
ATOM     18  C   UNL     1       2.290   5.486  20.698  0.00  0.00    +0.000 C 
ATOM     19  H   UNL     1       1.524   8.607  18.501  0.00  0.00    +0.000 HD
ENDBRANCH   1   9
BRANCH   4  20
ATOM     20  C   UNL     1      -0.546  14.126  20.279  0.00  0.00    +0.000 C 
ATOM     21  O   UNL     1       0.200  14.980  19.818  0.00  0.00    +0.000 OA
ATOM     22  N   UNL     1      -1.764  14.443  20.870  0.00  0.00    +0.000 N 
ATOM     23  C   UNL     1      -2.284  15.808  20.738  0.00  0.00    +0.000 C 
ATOM     24  C   UNL     1      -3.779  15.792  20.360  0.00  0.00    +0.000 C 
ATOM     25  N   UNL     1      -4.547  14.888  21.229  0.00  0.00    +0.000 N 
ATOM     26  C   UNL     1      -5.874  15.224  21.537  0.00  0.00    +0.000 C 
ATOM     27  O   UNL     1      -6.406  16.202  21.020  0.00  0.00    +0.000 OA
ATOM     28  C   UNL     1      -3.984  13.536  21.347  0.00  0.00    +0.000 C 
ATOM     29  C   UNL     1      -2.525  13.602  21.803  0.00  0.00    +0.000 C 
BRANCH  26  30
ATOM     30  C   UNL     1      -6.588  14.388  22.489  0.00  0.00    +0.000 A 
ATOM     31  C   UNL     1      -6.624  14.429  23.864  0.00  0.00    +0.000 A 
ATOM     32  C   UNL     1      -7.500  13.398  24.291  0.00  0.00    +0.000 A 
ATOM     33  C   UNL     1      -7.916  12.760  23.148  0.00  0.00    +0.000 A 
ATOM     34  O   UNL     1      -7.348  13.328  22.054  0.00  0.00    +0.000 OA
ENDBRANCH  26  30
ENDBRANCH   4  20
TORSDOF 3
ENDMDL
MODEL 7
REMARK VINA RESULT:      -8.0      3.237      5.191
REMARK  Name = 
REMARK  3 active torsions:
REMARK  status: ('A' for Active; 'I' for Inactive)
REMARK    1  A    between atoms: N_3  and  C_4
REMARK    2  A    between atoms: C_7  and  C_8
REMARK    3  A    between atoms: C_14  and  C_16
REMARK                            x       y       z     vdW  Elec       q    Type
REMARK                         _______ _______ _______ _____ _____    ______ ____
ROOT
ATOM      1  C   UNL     1       0.738  10.883  19.564  0.00  0.00    +0.000 A 
ATOM      2  C   UNL     1      -0.231  11.434  18.723  0.00  0.00    +0.000 A 
ATOM      3  C   UNL     1      -0.690  12.739  18.927  0.00  0.00    +0.000 A 
ATOM      4  C   UNL     1      -0.186  13.509  19.977  0.00  0.00    +0.000 A 
ATOM      5  C   UNL     1       0.763  12.948  20.841  0.00  0.00    +0.000 A 
ATOM      6  C   UNL     1       1.238  11.655  20.623  0.00  0.00    +0.000 A 
ENDROOT
BRANCH   1   9
ATOM      7  O   UNL     1       0.263   8.579  21.314  0.00  0.00    +0.000 OA
ATOM      8  C   UNL     1       1.000   8.530  20.333  0.00  0.00    +0.000 C 
ATOM      9  N   UNL     1       1.212   9.565  19.452  0.00  0.00    +0.000 N 
ATOM     10  N   UNL     1       1.685   7.376  20.040  0.00  0.00    +0.000 N 
ATOM     11  C   UNL     1       2.481   7.067  18.857  0.00  0.00    +0.000 C 
ATOM     12  C   UNL     1       2.536   5.577  18.878  0.00  0.00    +0.000 A 
ATOM     13  C   UNL     1       2.732   4.687  17.844  0.00  0.00    +0.000 A 
ATOM     14  C   UNL     1       2.711   3.323  18.149  0.00  0.00    +0.000 A 
ATOM     15  C   UNL     1       2.595   2.882  19.478  0.00  0.00    +0.000 A 
ATOM     16  C   UNL     1       2.346   3.788  20.507  0.00  0.00    +0.000 A 
ATOM     17  C   UNL     1       2.222   5.120  20.161  0.00  0.00    +0.000 A 
ATOM     18  C   UNL     1       1.507   6.207  20.898  0.00  0.00    +0.000 C 
ATOM     19  H   UNL     1       1.719   9.351  18.612  0.00  0.00    +0.000 HD
ENDBRANCH   1   9
BRANCH   4  20
ATOM     20  C   UNL     1      -0.795  14.844  20.224  0.00  0.00    +0.000 C 
ATOM     21  O   UNL     1      -0.187  15.828  19.821  0.00  0.00    +0.000 OA
ATOM     22  N   UNL     1      -2.047  14.938  20.824  0.00  0.00    +0.000 N 
ATOM     23  C   UNL     1      -2.766  16.215  20.770  0.00  0.00    +0.000 C 
ATOM     24  C   UNL     1      -4.242  15.997  20.381  0.00  0.00    +0.000 C 
ATOM     25  N   UNL     1      -4.864  14.936  21.188  0.00  0.00    +0.000 N 
ATOM     26  C   UNL     1      -6.226  15.050  21.506  0.00  0.00    +0.000 C 
ATOM     27  O   UNL     1      -6.900  15.966  21.044  0.00  0.00    +0.000 OA
ATOM     28  C   UNL     1      -4.104  13.680  21.228  0.00  0.00    +0.000 C 
ATOM     29  C   UNL     1      -2.670  13.936  21.698  0.00  0.00    +0.000 C 
BRANCH  26  30
ATOM     30  C   UNL     1      -6.805  14.059  22.399  0.00  0.00    +0.000 A 
ATOM     31  C   UNL     1      -6.797  13.983  23.774  0.00  0.00    +0.000 A 
ATOM     32  C   UNL     1      -7.532  12.823  24.132  0.00  0.00    +0.000 A 
ATOM     33  C   UNL     1      -7.910  12.236  22.949  0.00  0.00    +0.000 A 
ATOM     34  O   UNL     1      -7.451  12.956  21.895  0.00  0.00    +0.000 OA
ENDBRANCH  26  30
ENDBRANCH   4  20
TORSDOF 3
ENDMDL
MODEL 8
REMARK VINA RESULT:      -7.9      1.130      1.559
REMARK  Name = 
REMARK  3 active torsions:
REMARK  status: ('A' for Active; 'I' for Inactive)
REMARK    1  A    between atoms: N_3  and  C_4
REMARK    2  A    between atoms: C_7  and  C_8
REMARK    3  A    between atoms: C_14  and  C_16
REMARK                            x       y       z     vdW  Elec       q    Type
REMARK                         _______ _______ _______ _____ _____    ______ ____
ROOT
ATOM      1  C   UNL     1       1.293   8.699  20.473  0.00  0.00    +0.000 A 
ATOM      2  C   UNL     1       1.220   8.808  21.864  0.00  0.00    +0.000 A 
ATOM      3  C   UNL     1       0.321   9.697  22.460  0.00  0.00    +0.000 A 
ATOM      4  C   UNL     1      -0.516  10.490  21.673  0.00  0.00    +0.000 A 
ATOM      5  C   UNL     1      -0.423  10.406  20.279  0.00  0.00    +0.000 A 
ATOM      6  C   UNL     1       0.458   9.502  19.684  0.00  0.00    +0.000 A 
ENDROOT
BRANCH   1   9
ATOM      7  O   UNL     1       2.340   8.904  17.742  0.00  0.00    +0.000 OA
ATOM      8  C   UNL     1       2.623   7.978  18.496  0.00  0.00    +0.000 C 
ATOM      9  N   UNL     1       2.203   7.866  19.802  0.00  0.00    +0.000 N 
ATOM     10  N   UNL     1       3.423   6.951  18.059  0.00  0.00    +0.000 N 
ATOM     11  C   UNL     1       3.993   5.850  18.831  0.00  0.00    +0.000 C 
ATOM     12  C   UNL     1       5.117   5.390  17.966  0.00  0.00    +0.000 A 
ATOM     13  C   UNL     1       6.274   4.723  18.304  0.00  0.00    +0.000 A 
ATOM     14  C   UNL     1       7.180   4.434  17.281  0.00  0.00    +0.000 A 
ATOM     15  C   UNL     1       6.873   4.724  15.940  0.00  0.00    +0.000 A 
ATOM     16  C   UNL     1       5.724   5.445  15.617  0.00  0.00    +0.000 A 
ATOM     17  C   UNL     1       4.917   5.851  16.662  0.00  0.00    +0.000 A 
ATOM     18  C   UNL     1       3.948   6.989  16.696  0.00  0.00    +0.000 C 
ATOM     19  H   UNL     1       2.623   7.140  20.354  0.00  0.00    +0.000 HD
ENDBRANCH   1   9
BRANCH   4  20
ATOM     20  C   UNL     1      -1.365  11.506  22.354  0.00  0.00    +0.000 C 
ATOM     21  O   UNL     1      -1.965  11.157  23.363  0.00  0.00    +0.000 OA
ATOM     22  N   UNL     1      -1.396  12.815  21.885  0.00  0.00    +0.000 N 
ATOM     23  C   UNL     1      -1.970  13.861  22.737  0.00  0.00    +0.000 C 
ATOM     24  C   UNL     1      -1.063  15.108  22.761  0.00  0.00    +0.000 C 
ATOM     25  N   UNL     1      -0.673  15.520  21.404  0.00  0.00    +0.000 N 
ATOM     26  C   UNL     1      -0.494  16.887  21.145  0.00  0.00    +0.000 C 
ATOM     27  O   UNL     1      -0.572  17.709  22.053  0.00  0.00    +0.000 OA
ATOM     28  C   UNL     1      -0.117  14.439  20.578  0.00  0.00    +0.000 C 
ATOM     29  C   UNL     1      -1.089  13.258  20.519  0.00  0.00    +0.000 C 
BRANCH  26  30
ATOM     30  C   UNL     1      -0.222  17.295  19.776  0.00  0.00    +0.000 A 
ATOM     31  C   UNL     1       0.942  17.737  19.190  0.00  0.00    +0.000 A 
ATOM     32  C   UNL     1       0.656  17.975  17.821  0.00  0.00    +0.000 A 
ATOM     33  C   UNL     1      -0.680  17.702  17.661  0.00  0.00    +0.000 A 
ATOM     34  O   UNL     1      -1.229  17.320  18.842  0.00  0.00    +0.000 OA
ENDBRANCH  26  30
ENDBRANCH   4  20
TORSDOF 3
ENDMDL
MODEL 9
REMARK VINA RESULT:      -7.9      4.228      5.520
REMARK  Name = 
REMARK  3 active torsions:
REMARK  status: ('A' for Active; 'I' for Inactive)
REMARK    1  A    between atoms: N_3  and  C_4
REMARK    2  A    between atoms: C_7  and  C_8
REMARK    3  A    between atoms: C_14  and  C_16
REMARK                            x       y       z     vdW  Elec       q    Type
REMARK                         _______ _______ _______ _____ _____    ______ ____
ROOT
ATOM      1  C   UNL     1       1.456  10.331  18.684  0.00  0.00    +0.000 A 
ATOM      2  C   UNL     1       0.409  10.965  19.356  0.00  0.00    +0.000 A 
ATOM      3  C   UNL     1       0.280  12.356  19.318  0.00  0.00    +0.000 A 
ATOM      4  C   UNL     1       1.198  13.132  18.608  0.00  0.00    +0.000 A 
ATOM      5  C   UNL     1       2.267  12.502  17.959  0.00  0.00    +0.000 A 
ATOM      6  C   UNL     1       2.382  11.112  17.978  0.00  0.00    +0.000 A 
ENDROOT
BRANCH   1   9
ATOM      7  O   UNL     1       1.245   8.465  20.936  0.00  0.00    +0.000 OA
ATOM      8  C   UNL     1       1.616   8.120  19.817  0.00  0.00    +0.000 C 
ATOM      9  N   UNL     1       1.679   8.945  18.717  0.00  0.00    +0.000 N 
ATOM     10  N   UNL     1       2.002   6.823  19.587  0.00  0.00    +0.000 N 
ATOM     11  C   UNL     1       2.328   6.183  18.316  0.00  0.00    +0.000 C 
ATOM     12  C   UNL     1       2.177   4.733  18.630  0.00  0.00    +0.000 A 
ATOM     13  C   UNL     1       1.905   3.673  17.793  0.00  0.00    +0.000 A 
ATOM     14  C   UNL     1       1.791   2.404  18.367  0.00  0.00    +0.000 A 
ATOM     15  C   UNL     1       2.045   2.205  19.736  0.00  0.00    +0.000 A 
ATOM     16  C   UNL     1       2.267   3.291  20.580  0.00  0.00    +0.000 A 
ATOM     17  C   UNL     1       2.227   4.551  20.015  0.00  0.00    +0.000 A 
ATOM     18  C   UNL     1       1.945   5.859  20.683  0.00  0.00    +0.000 C 
ATOM     19  H   UNL     1       1.856   8.507  17.831  0.00  0.00    +0.000 HD
ENDBRANCH   1   9
BRANCH   4  20
ATOM     20  C   UNL     1       1.086  14.613  18.701  0.00  0.00    +0.000 C 
ATOM     21  O   UNL     1      -0.026  15.086  18.903  0.00  0.00    +0.000 OA
ATOM     22  N   UNL     1       2.229  15.404  18.634  0.00  0.00    +0.000 N 
ATOM     23  C   UNL     1       2.145  16.810  19.042  0.00  0.00    +0.000 C 
ATOM     24  C   UNL     1       3.330  17.188  19.953  0.00  0.00    +0.000 C 
ATOM     25  N   UNL     1       4.614  16.756  19.379  0.00  0.00    +0.000 N 
ATOM     26  C   UNL     1       5.751  17.543  19.616  0.00  0.00    +0.000 C 
ATOM     27  O   UNL     1       5.691  18.518  20.359  0.00  0.00    +0.000 OA
ATOM     28  C   UNL     1       4.650  15.346  18.969  0.00  0.00    +0.000 C 
ATOM     29  C   UNL     1       3.504  15.039  18.003  0.00  0.00    +0.000 C 
BRANCH  26  30
ATOM     30  C   UNL     1       6.990  17.173  18.950  0.00  0.00    +0.000 A 
ATOM     31  C   UNL     1       7.495  15.934  18.628  0.00  0.00    +0.000 A 
ATOM     32  C   UNL     1       8.730  16.146  17.963  0.00  0.00    +0.000 A 
ATOM     33  C   UNL     1       8.925  17.506  17.956  0.00  0.00    +0.000 A 
ATOM     34  O   UNL     1       7.896  18.135  18.577  0.00  0.00    +0.000 OA
ENDBRANCH  26  30
ENDBRANCH   4  20
TORSDOF 3
ENDMDL
