MODEL 1
REMARK VINA RESULT:      -7.5      0.000      0.000
REMARK  Name = 
REMARK  2 active torsions:
REMARK  status: ('A' for Active; 'I' for Inactive)
REMARK    1  A    between atoms: O_1  and  C_2
REMARK    2  A    between atoms: C_5  and  C_6
REMARK                            x       y       z     vdW  Elec       q    Type
REMARK                         _______ _______ _______ _____ _____    ______ ____
ROOT
ATOM      1  C   UNL     1       6.739   5.447  16.107  0.00  0.00    +0.000 A 
ATOM      2  C   UNL     1       5.771   4.996  17.012  0.00  0.00    +0.000 A 
ATOM      3 BR   UNL     1       5.981   5.521  18.837  0.00  0.00    +0.000 Br
ATOM      4  C   UNL     1       4.772   4.131  16.548  0.00  0.00    +0.000 A 
ATOM      5  N   UNL     1       4.789   3.678  15.258  0.00  0.00    +0.000 NA
ATOM      6  C   UNL     1       5.756   4.084  14.406  0.00  0.00    +0.000 A 
ATOM      7  C   UNL     1       5.783   3.594  13.104  0.00  0.00    +0.000 A 
ATOM      8  C   UNL     1       6.759   3.988  12.178  0.00  0.00    +0.000 A 
ATOM      9  C   UNL     1       7.736   4.900  12.551  0.00  0.00    +0.000 A 
ATOM     10  C   UNL     1       7.737   5.401  13.848  0.00  0.00    +0.000 A 
ATOM     11  C   UNL     1       6.757   4.995  14.782  0.00  0.00    +0.000 A 
ENDROOT
BRANCH   4  12
ATOM     12  C   UNL     1       3.655   3.599  17.366  0.00  0.00    +0.000 A 
ATOM     13  C   UNL     1       3.683   2.313  17.938  0.00  0.00    +0.000 A 
ATOM     14  C   UNL     1       2.575   1.776  18.600  0.00  0.00    +0.000 A 
ATOM     15  C   UNL     1       1.432   2.544  18.775  0.00  0.00    +0.000 A 
ATOM     16  C   UNL     1       1.408   3.854  18.310  0.00  0.00    +0.000 A 
ATOM     17  C   UNL     1       2.506   4.375  17.613  0.00  0.00    +0.000 A 
ENDBRANCH   4  12
BRANCH   1  18
ATOM     18  O   UNL     1       7.712   6.341  16.499  0.00  0.00    +0.000 OA
ATOM     19  H   UNL     1       8.572   5.996  16.194  0.00  0.00    +0.000 HD
ENDBRANCH   1  18
TORSDOF 2
ENDMDL
MODEL 2
REMARK VINA RESULT:      -7.4      0.092      1.134
REMARK  Name = 
REMARK  2 active torsions:
REMARK  status: ('A' for Active; 'I' for Inactive)
REMARK    1  A    between atoms: O_1  and  C_2
REMARK    2  A    between atoms: C_5  and  C_6
REMARK                            x       y       z     vdW  Elec       q    Type
REMARK                         _______ _______ _______ _____ _____    ______ ____
ROOT
ATOM      1  C   UNL     1       6.698   5.443  16.106  0.00  0.00    +0.000 A 
ATOM      2  C   UNL     1       5.720   4.992  17.001  0.00  0.00    +0.000 A 
ATOM      3 BR   UNL     1       5.915   5.511  18.829  0.00  0.00    +0.000 Br
ATOM      4  C   UNL     1       4.724   4.130  16.526  0.00  0.00    +0.000 A 
ATOM      5  N   UNL     1       4.751   3.680  15.235  0.00  0.00    +0.000 NA
ATOM      6  C   UNL     1       5.727   4.086  14.393  0.00  0.00    +0.000 A 
ATOM      7  C   UNL     1       5.765   3.598  13.090  0.00  0.00    +0.000 A 
ATOM      8  C   UNL     1       6.749   3.992  12.174  0.00  0.00    +0.000 A 
ATOM      9  C   UNL     1       7.725   4.902  12.558  0.00  0.00    +0.000 A 
ATOM     10  C   UNL     1       7.716   5.399  13.856  0.00  0.00    +0.000 A 
ATOM     11  C   UNL     1       6.726   4.994  14.780  0.00  0.00    +0.000 A 
ENDROOT
BRANCH   4  12
ATOM     12  C   UNL     1       3.598   3.598  17.333  0.00  0.00    +0.000 A 
ATOM     13  C   UNL     1       2.428   4.341  17.578  0.00  0.00    +0.000 A 
ATOM     14  C   UNL     1       1.429   3.880  18.441  0.00  0.00    +0.000 A 
ATOM     15  C   UNL     1       1.540   2.624  19.023  0.00  0.00    +0.000 A 
ATOM     16  C   UNL     1       2.636   1.823  18.721  0.00  0.00    +0.000 A 
ATOM     17  C   UNL     1       3.653   2.305  17.887  0.00  0.00    +0.000 A 
ENDBRANCH   4  12
BRANCH   1  18
ATOM     18  O   UNL     1       7.669   6.333  16.509  0.00  0.00    +0.000 OA
ATOM     19  H   UNL     1       7.806   6.971  15.784  0.00  0.00    +0.000 HD
ENDBRANCH   1  18
TORSDOF 2
ENDMDL
MODEL 3
REMARK VINA RESULT:      -7.3      3.390      6.516
REMARK  Name = 
REMARK  2 active torsions:
REMARK  status: ('A' for Active; 'I' for Inactive)
REMARK    1  A    between atoms: O_1  and  C_2
REMARK    2  A    between atoms: C_5  and  C_6
REMARK                            x       y       z     vdW  Elec       q    Type
REMARK                         _______ _______ _______ _____ _____    ______ ____
ROOT
ATOM      1  C   UNL     1       3.113   3.550  17.330  0.00  0.00    +0.000 A 
ATOM      2  C   UNL     1       4.298   4.273  17.152  0.00  0.00    +0.000 A 
ATOM      3 BR   UNL     1       5.232   4.013  15.507  0.00  0.00    +0.000 Br
ATOM      4  C   UNL     1       4.765   5.063  18.210  0.00  0.00    +0.000 A 
ATOM      5  N   UNL     1       4.117   5.067  19.415  0.00  0.00    +0.000 NA
ATOM      6  C   UNL     1       2.998   4.328  19.588  0.00  0.00    +0.000 A 
ATOM      7  C   UNL     1       2.363   4.314  20.826  0.00  0.00    +0.000 A 
ATOM      8  C   UNL     1       1.197   3.571  21.057  0.00  0.00    +0.000 A 
ATOM      9  C   UNL     1       0.639   2.823  20.030  0.00  0.00    +0.000 A 
ATOM     10  C   UNL     1       1.257   2.814  18.785  0.00  0.00    +0.000 A 
ATOM     11  C   UNL     1       2.438   3.557  18.556  0.00  0.00    +0.000 A 
ENDROOT
BRANCH   4  12
ATOM     12  C   UNL     1       5.977   5.919  18.168  0.00  0.00    +0.000 A 
ATOM     13  C   UNL     1       7.122   5.643  18.939  0.00  0.00    +0.000 A 
ATOM     14  C   UNL     1       8.208   6.523  18.986  0.00  0.00    +0.000 A 
ATOM     15  C   UNL     1       8.208   7.667  18.200  0.00  0.00    +0.000 A 
ATOM     16  C   UNL     1       7.135   7.917  17.351  0.00  0.00    +0.000 A 
ATOM     17  C   UNL     1       6.032   7.053  17.337  0.00  0.00    +0.000 A 
ENDBRANCH   4  12
BRANCH   1  18
ATOM     18  O   UNL     1       2.582   2.799  16.303  0.00  0.00    +0.000 OA
ATOM     19  H   UNL     1       1.710   2.474  16.594  0.00  0.00    +0.000 HD
ENDBRANCH   1  18
TORSDOF 2
ENDMDL
MODEL 4
REMARK VINA RESULT:      -7.1      3.435      6.611
REMARK  Name = 
REMARK  2 active torsions:
REMARK  status: ('A' for Active; 'I' for Inactive)
REMARK    1  A    between atoms: O_1  and  C_2
REMARK    2  A    between atoms: C_5  and  C_6
REMARK                            x       y       z     vdW  Elec       q    Type
REMARK                         _______ _______ _______ _____ _____    ______ ____
ROOT
ATOM      1  C   UNL     1       3.113   3.523  17.389  0.00  0.00    +0.000 A 
ATOM      2  C   UNL     1       4.279   4.282  17.232  0.00  0.00    +0.000 A 
ATOM      3 BR   UNL     1       5.220   4.090  15.580  0.00  0.00    +0.000 Br
ATOM      4  C   UNL     1       4.724   5.056  18.310  0.00  0.00    +0.000 A 
ATOM      5  N   UNL     1       4.076   5.011  19.514  0.00  0.00    +0.000 NA
ATOM      6  C   UNL     1       2.978   4.239  19.666  0.00  0.00    +0.000 A 
ATOM      7  C   UNL     1       2.342   4.175  20.903  0.00  0.00    +0.000 A 
ATOM      8  C   UNL     1       1.197   3.396  21.114  0.00  0.00    +0.000 A 
ATOM      9  C   UNL     1       0.659   2.660  20.067  0.00  0.00    +0.000 A 
ATOM     10  C   UNL     1       1.278   2.700  18.822  0.00  0.00    +0.000 A 
ATOM     11  C   UNL     1       2.438   3.479  18.615  0.00  0.00    +0.000 A 
ENDROOT
BRANCH   4  12
ATOM     12  C   UNL     1       5.913   5.944  18.292  0.00  0.00    +0.000 A 
ATOM     13  C   UNL     1       5.997   7.076  17.460  0.00  0.00    +0.000 A 
ATOM     14  C   UNL     1       7.169   7.833  17.360  0.00  0.00    +0.000 A 
ATOM     15  C   UNL     1       8.266   7.519  18.151  0.00  0.00    +0.000 A 
ATOM     16  C   UNL     1       8.181   6.468  19.058  0.00  0.00    +0.000 A 
ATOM     17  C   UNL     1       7.018   5.689  19.126  0.00  0.00    +0.000 A 
ENDBRANCH   4  12
BRANCH   1  18
ATOM     18  O   UNL     1       2.603   2.785  16.342  0.00  0.00    +0.000 OA
ATOM     19  H   UNL     1       1.630   2.817  16.403  0.00  0.00    +0.000 HD
ENDBRANCH   1  18
TORSDOF 2
ENDMDL
MODEL 5
REMARK VINA RESULT:      -6.9      3.431      4.489
REMARK  Name = 
REMARK  2 active torsions:
REMARK  status: ('A' for Active; 'I' for Inactive)
REMARK    1  A    between atoms: O_1  and  C_2
REMARK    2  A    between atoms: C_5  and  C_6
REMARK                            x       y       z     vdW  Elec       q    Type
REMARK                         _______ _______ _______ _____ _____    ______ ____
ROOT
ATOM      1  C   UNL     1       3.646   3.911  17.658  0.00  0.00    +0.000 A 
ATOM      2  C   UNL     1       2.860   4.847  18.340  0.00  0.00    +0.000 A 
ATOM      3 BR   UNL     1       1.429   4.164  19.405  0.00  0.00    +0.000 Br
ATOM      4  C   UNL     1       3.111   6.209  18.133  0.00  0.00    +0.000 A 
ATOM      5  N   UNL     1       4.053   6.614  17.228  0.00  0.00    +0.000 NA
ATOM      6  C   UNL     1       4.774   5.700  16.542  0.00  0.00    +0.000 A 
ATOM      7  C   UNL     1       5.709   6.120  15.600  0.00  0.00    +0.000 A 
ATOM      8  C   UNL     1       6.488   5.215  14.867  0.00  0.00    +0.000 A 
ATOM      9  C   UNL     1       6.342   3.850  15.076  0.00  0.00    +0.000 A 
ATOM     10  C   UNL     1       5.410   3.403  16.006  0.00  0.00    +0.000 A 
ATOM     11  C   UNL     1       4.620   4.317  16.737  0.00  0.00    +0.000 A 
ENDROOT
BRANCH   4  12
ATOM     12  C   UNL     1       2.397   7.322  18.808  0.00  0.00    +0.000 A 
ATOM     13  C   UNL     1       2.105   7.307  20.184  0.00  0.00    +0.000 A 
ATOM     14  C   UNL     1       1.325   8.301  20.783  0.00  0.00    +0.000 A 
ATOM     15  C   UNL     1       0.879   9.380  20.032  0.00  0.00    +0.000 A 
ATOM     16  C   UNL     1       1.236   9.477  18.691  0.00  0.00    +0.000 A 
ATOM     17  C   UNL     1       1.985   8.459  18.086  0.00  0.00    +0.000 A 
ENDBRANCH   4  12
BRANCH   1  18
ATOM     18  O   UNL     1       3.476   2.559  17.866  0.00  0.00    +0.000 OA
ATOM     19  H   UNL     1       4.015   2.088  17.204  0.00  0.00    +0.000 HD
ENDBRANCH   1  18
TORSDOF 2
ENDMDL
MODEL 6
REMARK VINA RESULT:      -6.8      2.474      6.270
REMARK  Name = 
REMARK  2 active torsions:
REMARK  status: ('A' for Active; 'I' for Inactive)
REMARK    1  A    between atoms: O_1  and  C_2
REMARK    2  A    between atoms: C_5  and  C_6
REMARK                            x       y       z     vdW  Elec       q    Type
REMARK                         _______ _______ _______ _____ _____    ______ ____
ROOT
ATOM      1  C   UNL     1       2.981   5.866  19.374  0.00  0.00    +0.000 A 
ATOM      2  C   UNL     1       3.796   5.932  18.238  0.00  0.00    +0.000 A 
ATOM      3 BR   UNL     1       3.973   7.638  17.398  0.00  0.00    +0.000 Br
ATOM      4  C   UNL     1       4.351   4.746  17.743  0.00  0.00    +0.000 A 
ATOM      5  N   UNL     1       4.043   3.541  18.313  0.00  0.00    +0.000 NA
ATOM      6  C   UNL     1       3.218   3.487  19.382  0.00  0.00    +0.000 A 
ATOM      7  C   UNL     1       2.884   2.255  19.937  0.00  0.00    +0.000 A 
ATOM      8  C   UNL     1       2.040   2.142  21.050  0.00  0.00    +0.000 A 
ATOM      9  C   UNL     1       1.513   3.284  21.636  0.00  0.00    +0.000 A 
ATOM     10  C   UNL     1       1.824   4.528  21.098  0.00  0.00    +0.000 A 
ATOM     11  C   UNL     1       2.668   4.638  19.970  0.00  0.00    +0.000 A 
ENDROOT
BRANCH   4  12
ATOM     12  C   UNL     1       5.265   4.651  16.577  0.00  0.00    +0.000 A 
ATOM     13  C   UNL     1       6.637   4.949  16.667  0.00  0.00    +0.000 A 
ATOM     14  C   UNL     1       7.462   4.977  15.538  0.00  0.00    +0.000 A 
ATOM     15  C   UNL     1       6.948   4.630  14.296  0.00  0.00    +0.000 A 
ATOM     16  C   UNL     1       5.619   4.232  14.189  0.00  0.00    +0.000 A 
ATOM     17  C   UNL     1       4.788   4.244  15.316  0.00  0.00    +0.000 A 
ENDBRANCH   4  12
BRANCH   1  18
ATOM     18  O   UNL     1       2.453   7.010  19.933  0.00  0.00    +0.000 OA
ATOM     19  H   UNL     1       2.888   7.774  19.511  0.00  0.00    +0.000 HD
ENDBRANCH   1  18
TORSDOF 2
ENDMDL
MODEL 7
REMARK VINA RESULT:      -6.8      3.838      5.049
REMARK  Name = 
REMARK  2 active torsions:
REMARK  status: ('A' for Active; 'I' for Inactive)
REMARK    1  A    between atoms: O_1  and  C_2
REMARK    2  A    between atoms: C_5  and  C_6
REMARK                            x       y       z     vdW  Elec       q    Type
REMARK                         _______ _______ _______ _____ _____    ______ ____
ROOT
ATOM      1  C   UNL     1       3.483   4.306  18.424  0.00  0.00    +0.000 A 
ATOM      2  C   UNL     1       2.686   5.267  19.057  0.00  0.00    +0.000 A 
ATOM      3 BR   UNL     1       1.422   4.634  20.342  0.00  0.00    +0.000 Br
ATOM      4  C   UNL     1       2.802   6.603  18.653  0.00  0.00    +0.000 A 
ATOM      5  N   UNL     1       3.619   6.948  17.612  0.00  0.00    +0.000 NA
ATOM      6  C   UNL     1       4.349   6.003  16.979  0.00  0.00    +0.000 A 
ATOM      7  C   UNL     1       5.154   6.357  15.901  0.00  0.00    +0.000 A 
ATOM      8  C   UNL     1       5.937   5.419  15.214  0.00  0.00    +0.000 A 
ATOM      9  C   UNL     1       5.926   4.089  15.609  0.00  0.00    +0.000 A 
ATOM     10  C   UNL     1       5.125   3.705  16.679  0.00  0.00    +0.000 A 
ATOM     11  C   UNL     1       4.330   4.652  17.364  0.00  0.00    +0.000 A 
ENDROOT
BRANCH   4  12
ATOM     12  C   UNL     1       2.061   7.743  19.249  0.00  0.00    +0.000 A 
ATOM     13  C   UNL     1       1.675   8.868  18.497  0.00  0.00    +0.000 A 
ATOM     14  C   UNL     1       1.089   9.989  19.094  0.00  0.00    +0.000 A 
ATOM     15  C   UNL     1       0.805   9.981  20.453  0.00  0.00    +0.000 A 
ATOM     16  C   UNL     1       1.082   8.845  21.206  0.00  0.00    +0.000 A 
ATOM     17  C   UNL     1       1.704   7.740  20.611  0.00  0.00    +0.000 A 
ENDBRANCH   4  12
BRANCH   1  18
ATOM     18  O   UNL     1       3.447   2.986  18.820  0.00  0.00    +0.000 OA
ATOM     19  H   UNL     1       4.360   2.642  18.789  0.00  0.00    +0.000 HD
ENDBRANCH   1  18
TORSDOF 2
ENDMDL
MODEL 8
REMARK VINA RESULT:      -6.7      3.477      6.369
REMARK  Name = 
REMARK  2 active torsions:
REMARK  status: ('A' for Active; 'I' for Inactive)
REMARK    1  A    between atoms: O_1  and  C_2
REMARK    2  A    between atoms: C_5  and  C_6
REMARK                            x       y       z     vdW  Elec       q    Type
REMARK                         _______ _______ _______ _____ _____    ______ ____
ROOT
ATOM      1  C   UNL     1       2.897   5.950  19.765  0.00  0.00    +0.000 A 
ATOM      2  C   UNL     1       3.823   5.326  18.920  0.00  0.00    +0.000 A 
ATOM      3 BR   UNL     1       4.644   3.727  19.566  0.00  0.00    +0.000 Br
ATOM      4  C   UNL     1       4.149   5.949  17.709  0.00  0.00    +0.000 A 
ATOM      5  N   UNL     1       3.633   7.176  17.396  0.00  0.00    +0.000 NA
ATOM      6  C   UNL     1       2.776   7.789  18.242  0.00  0.00    +0.000 A 
ATOM      7  C   UNL     1       2.279   9.051  17.930  0.00  0.00    +0.000 A 
ATOM      8  C   UNL     1       1.382   9.728  18.768  0.00  0.00    +0.000 A 
ATOM      9  C   UNL     1       0.959   9.135  19.950  0.00  0.00    +0.000 A 
ATOM     10  C   UNL     1       1.445   7.878  20.289  0.00  0.00    +0.000 A 
ATOM     11  C   UNL     1       2.356   7.201  19.447  0.00  0.00    +0.000 A 
ENDROOT
BRANCH   4  12
ATOM     12  C   UNL     1       5.076   5.400  16.688  0.00  0.00    +0.000 A 
ATOM     13  C   UNL     1       6.432   5.770  16.623  0.00  0.00    +0.000 A 
ATOM     14  C   UNL     1       7.264   5.344  15.583  0.00  0.00    +0.000 A 
ATOM     15  C   UNL     1       6.778   4.470  14.620  0.00  0.00    +0.000 A 
ATOM     16  C   UNL     1       5.470   4.005  14.713  0.00  0.00    +0.000 A 
ATOM     17  C   UNL     1       4.630   4.466  15.734  0.00  0.00    +0.000 A 
ENDBRANCH   4  12
BRANCH   1  18
ATOM     18  O   UNL     1       2.502   5.354  20.943  0.00  0.00    +0.000 OA
ATOM     19  H   UNL     1       1.752   5.867  21.298  0.00  0.00    +0.000 HD
ENDBRANCH   1  18
TORSDOF 2
ENDMDL
MODEL 9
REMARK VINA RESULT:      -6.7      2.483      6.299
REMARK  Name = 
REMARK  2 active torsions:
REMARK  status: ('A' for Active; 'I' for Inactive)
REMARK    1  A    between atoms: O_1  and  C_2
REMARK    2  A    between atoms: C_5  and  C_6
REMARK                            x       y       z     vdW  Elec       q    Type
REMARK                         _______ _______ _______ _____ _____    ______ ____
ROOT
ATOM      1  C   UNL     1       2.818   5.913  19.319  0.00  0.00    +0.000 A 
ATOM      2  C   UNL     1       3.644   6.029  18.195  0.00  0.00    +0.000 A 
ATOM      3 BR   UNL     1       3.743   7.748  17.368  0.00  0.00    +0.000 Br
ATOM      4  C   UNL     1       4.267   4.877  17.701  0.00  0.00    +0.000 A 
ATOM      5  N   UNL     1       4.014   3.654  18.259  0.00  0.00    +0.000 NA
ATOM      6  C   UNL     1       3.179   3.549  19.316  0.00  0.00    +0.000 A 
ATOM      7  C   UNL     1       2.903   2.298  19.859  0.00  0.00    +0.000 A 
ATOM      8  C   UNL     1       2.051   2.133  20.959  0.00  0.00    +0.000 A 
ATOM      9  C   UNL     1       1.456   3.243  21.545  0.00  0.00    +0.000 A 
ATOM     10  C   UNL     1       1.709   4.504  21.018  0.00  0.00    +0.000 A 
ATOM     11  C   UNL     1       2.562   4.666  19.903  0.00  0.00    +0.000 A 
ENDROOT
BRANCH   4  12
ATOM     12  C   UNL     1       5.201   4.838  16.547  0.00  0.00    +0.000 A 
ATOM     13  C   UNL     1       4.810   4.381  15.275  0.00  0.00    +0.000 A 
ATOM     14  C   UNL     1       5.727   4.232  14.230  0.00  0.00    +0.000 A 
ATOM     15  C   UNL     1       7.051   4.609  14.411  0.00  0.00    +0.000 A 
ATOM     16  C   UNL     1       7.448   5.159  15.626  0.00  0.00    +0.000 A 
ATOM     17  C   UNL     1       6.534   5.270  16.681  0.00  0.00    +0.000 A 
ENDBRANCH   4  12
BRANCH   1  18
ATOM     18  O   UNL     1       2.223   7.024  19.877  0.00  0.00    +0.000 OA
ATOM     19  H   UNL     1       1.261   6.944  19.742  0.00  0.00    +0.000 HD
ENDBRANCH   1  18
TORSDOF 2
ENDMDL
