MODEL 1
REMARK VINA RESULT:      -7.1      0.000      0.000
REMARK  Name = 
REMARK  7 active torsions:
REMARK  status: ('A' for Active; 'I' for Inactive)
REMARK    1  A    between atoms: C_1  and  C_2
REMARK    2  A    between atoms: C_2  and  C_3
REMARK    3  A    between atoms: C_5  and  C_6
REMARK    4  A    between atoms: C_5  and  C_7
REMARK    5  A    between atoms: C_9  and  N_10
REMARK    6  A    between atoms: N_10  and  C_11
REMARK    7  A    between atoms: C_14  and  O_15
REMARK                            x       y       z     vdW  Elec       q    Type
REMARK                         _______ _______ _______ _____ _____    ______ ____
ROOT
ATOM      1  C   UNL     1       1.967   2.424  21.396  0.00  0.00    +0.000 C 
ATOM      2  C   UNL     1       1.823   2.937  19.969  0.00  0.00    +0.000 C 
ATOM      3  C   UNL     1       0.446   2.582  19.420  0.00  0.00    +0.000 C 
ATOM      4  O   UNL     1       1.994   4.373  19.967  0.00  0.00    +0.000 OA
ATOM      5  C   UNL     1       2.771   4.799  18.820  0.00  0.00    +0.000 C 
ATOM      6  C   UNL     1       3.611   5.996  19.283  0.00  0.00    +0.000 C 
ATOM      7  C   UNL     1       1.818   5.260  17.710  0.00  0.00    +0.000 C 
ATOM      8  C   UNL     1       3.572   3.605  18.396  0.00  0.00    +0.000 C 
ATOM      9  C   UNL     1       4.654   3.487  17.614  0.00  0.00    +0.000 C 
ATOM     10  C   UNL     1       2.943   2.446  19.075  0.00  0.00    +0.000 C 
ATOM     11  O   UNL     1       3.279   1.285  18.909  0.00  0.00    +0.000 OA
ENDROOT
BRANCH   9  12
ATOM     12  N   UNL     1       5.294   4.495  16.940  0.00  0.00    +0.000 N 
ATOM     13  H   UNL     1       5.198   4.490  15.933  0.00  0.00    +0.000 HD
BRANCH  12  14
ATOM     14  C   UNL     1       6.179   5.483  17.402  0.00  0.00    +0.000 A 
ATOM     15  C   UNL     1       6.294   6.759  16.841  0.00  0.00    +0.000 A 
ATOM     16  C   UNL     1       7.203   7.692  17.356  0.00  0.00    +0.000 A 
ATOM     17  C   UNL     1       8.015   7.343  18.429  0.00  0.00    +0.000 A 
ATOM     18  C   UNL     1       7.943   6.077  18.986  0.00  0.00    +0.000 A 
ATOM     19  C   UNL     1       7.032   5.154  18.471  0.00  0.00    +0.000 A 
BRANCH  17  20
ATOM     20  O   UNL     1       8.907   8.222  18.965  0.00  0.00    +0.000 OA
ATOM     21  H   UNL     1       8.896   8.123  19.932  0.00  0.00    +0.000 HD
ENDBRANCH  17  20
ENDBRANCH  12  14
ENDBRANCH   9  12
TORSDOF 3
ENDMDL
MODEL 2
REMARK VINA RESULT:      -7.0      0.164      1.116
REMARK  Name = 
REMARK  7 active torsions:
REMARK  status: ('A' for Active; 'I' for Inactive)
REMARK    1  A    between atoms: C_1  and  C_2
REMARK    2  A    between atoms: C_2  and  C_3
REMARK    3  A    between atoms: C_5  and  C_6
REMARK    4  A    between atoms: C_5  and  C_7
REMARK    5  A    between atoms: C_9  and  N_10
REMARK    6  A    between atoms: N_10  and  C_11
REMARK    7  A    between atoms: C_14  and  O_15
REMARK                            x       y       z     vdW  Elec       q    Type
REMARK                         _______ _______ _______ _____ _____    ______ ____
ROOT
ATOM      1  C   UNL     1       1.972   2.378  21.374  0.00  0.00    +0.000 C 
ATOM      2  C   UNL     1       1.859   2.925  19.957  0.00  0.00    +0.000 C 
ATOM      3  C   UNL     1       0.504   2.562  19.360  0.00  0.00    +0.000 C 
ATOM      4  O   UNL     1       2.006   4.363  19.997  0.00  0.00    +0.000 OA
ATOM      5  C   UNL     1       2.808   4.831  18.883  0.00  0.00    +0.000 C 
ATOM      6  C   UNL     1       3.614   6.029  19.400  0.00  0.00    +0.000 C 
ATOM      7  C   UNL     1       1.878   5.305  17.759  0.00  0.00    +0.000 C 
ATOM      8  C   UNL     1       3.640   3.662  18.452  0.00  0.00    +0.000 C 
ATOM      9  C   UNL     1       4.745   3.581  17.698  0.00  0.00    +0.000 C 
ATOM     10  C   UNL     1       3.012   2.475  19.083  0.00  0.00    +0.000 C 
ATOM     11  O   UNL     1       3.372   1.324  18.897  0.00  0.00    +0.000 OA
ENDROOT
BRANCH   9  12
ATOM     12  N   UNL     1       5.387   4.617  17.068  0.00  0.00    +0.000 N 
ATOM     13  H   UNL     1       5.256   4.680  16.067  0.00  0.00    +0.000 HD
BRANCH  12  14
ATOM     14  C   UNL     1       6.312   5.552  17.561  0.00  0.00    +0.000 A 
ATOM     15  C   UNL     1       7.187   5.304  18.624  0.00  0.00    +0.000 A 
ATOM     16  C   UNL     1       8.082   6.288  19.062  0.00  0.00    +0.000 A 
ATOM     17  C   UNL     1       8.092   7.534  18.446  0.00  0.00    +0.000 A 
ATOM     18  C   UNL     1       7.217   7.817  17.409  0.00  0.00    +0.000 A 
ATOM     19  C   UNL     1       6.331   6.830  16.975  0.00  0.00    +0.000 A 
BRANCH  17  20
ATOM     20  O   UNL     1       8.952   8.517  18.836  0.00  0.00    +0.000 OA
ATOM     21  H   UNL     1       9.602   8.658  18.127  0.00  0.00    +0.000 HD
ENDBRANCH  17  20
ENDBRANCH  12  14
ENDBRANCH   9  12
TORSDOF 3
ENDMDL
MODEL 3
REMARK VINA RESULT:      -6.9      3.511      5.828
REMARK  Name = 
REMARK  7 active torsions:
REMARK  status: ('A' for Active; 'I' for Inactive)
REMARK    1  A    between atoms: C_1  and  C_2
REMARK    2  A    between atoms: C_2  and  C_3
REMARK    3  A    between atoms: C_5  and  C_6
REMARK    4  A    between atoms: C_5  and  C_7
REMARK    5  A    between atoms: C_9  and  N_10
REMARK    6  A    between atoms: N_10  and  C_11
REMARK    7  A    between atoms: C_14  and  O_15
REMARK                            x       y       z     vdW  Elec       q    Type
REMARK                         _______ _______ _______ _____ _____    ______ ____
ROOT
ATOM      1  C   UNL     1       7.489   4.810  17.786  0.00  0.00    +0.000 C 
ATOM      2  C   UNL     1       6.082   4.741  17.207  0.00  0.00    +0.000 C 
ATOM      3  C   UNL     1       6.086   3.937  15.912  0.00  0.00    +0.000 C 
ATOM      4  O   UNL     1       5.208   4.110  18.171  0.00  0.00    +0.000 OA
ATOM      5  C   UNL     1       3.919   4.773  18.211  0.00  0.00    +0.000 C 
ATOM      6  C   UNL     1       3.442   4.709  19.668  0.00  0.00    +0.000 C 
ATOM      7  C   UNL     1       2.930   4.002  17.329  0.00  0.00    +0.000 C 
ATOM      8  C   UNL     1       4.151   6.161  17.695  0.00  0.00    +0.000 C 
ATOM      9  C   UNL     1       3.420   7.281  17.782  0.00  0.00    +0.000 C 
ATOM     10  C   UNL     1       5.475   6.117  17.026  0.00  0.00    +0.000 C 
ATOM     11  O   UNL     1       5.970   7.051  16.416  0.00  0.00    +0.000 OA
ENDROOT
BRANCH   9  12
ATOM     12  N   UNL     1       2.187   7.413  18.368  0.00  0.00    +0.000 N 
ATOM     13  H   UNL     1       1.466   6.787  18.034  0.00  0.00    +0.000 HD
BRANCH  12  14
ATOM     14  C   UNL     1       1.708   8.366  19.282  0.00  0.00    +0.000 A 
ATOM     15  C   UNL     1       1.366   9.678  18.939  0.00  0.00    +0.000 A 
ATOM     16  C   UNL     1       0.896  10.574  19.909  0.00  0.00    +0.000 A 
ATOM     17  C   UNL     1       0.784  10.162  21.231  0.00  0.00    +0.000 A 
ATOM     18  C   UNL     1       1.143   8.877  21.604  0.00  0.00    +0.000 A 
ATOM     19  C   UNL     1       1.606   7.988  20.633  0.00  0.00    +0.000 A 
BRANCH  17  20
ATOM     20  O   UNL     1       0.325  10.999  22.203  0.00  0.00    +0.000 OA
ATOM     21  H   UNL     1      -0.599  10.767  22.401  0.00  0.00    +0.000 HD
ENDBRANCH  17  20
ENDBRANCH  12  14
ENDBRANCH   9  12
TORSDOF 3
ENDMDL
MODEL 4
REMARK VINA RESULT:      -6.9      2.717      3.211
REMARK  Name = 
REMARK  7 active torsions:
REMARK  status: ('A' for Active; 'I' for Inactive)
REMARK    1  A    between atoms: C_1  and  C_2
REMARK    2  A    between atoms: C_2  and  C_3
REMARK    3  A    between atoms: C_5  and  C_6
REMARK    4  A    between atoms: C_5  and  C_7
REMARK    5  A    between atoms: C_9  and  N_10
REMARK    6  A    between atoms: N_10  and  C_11
REMARK    7  A    between atoms: C_14  and  O_15
REMARK                            x       y       z     vdW  Elec       q    Type
REMARK                         _______ _______ _______ _____ _____    ______ ____
ROOT
ATOM      1  C   UNL     1       2.126   3.335  21.859  0.00  0.00    +0.000 C 
ATOM      2  C   UNL     1       2.321   3.120  20.364  0.00  0.00    +0.000 C 
ATOM      3  C   UNL     1       1.494   1.930  19.891  0.00  0.00    +0.000 C 
ATOM      4  O   UNL     1       1.905   4.314  19.660  0.00  0.00    +0.000 OA
ATOM      5  C   UNL     1       2.813   4.613  18.570  0.00  0.00    +0.000 C 
ATOM      6  C   UNL     1       2.887   6.142  18.473  0.00  0.00    +0.000 C 
ATOM      7  C   UNL     1       2.229   4.060  17.264  0.00  0.00    +0.000 C 
ATOM      8  C   UNL     1       4.111   3.949  18.917  0.00  0.00    +0.000 C 
ATOM      9  C   UNL     1       5.356   4.123  18.453  0.00  0.00    +0.000 C 
ATOM     10  C   UNL     1       3.785   2.985  19.997  0.00  0.00    +0.000 C 
ATOM     11  O   UNL     1       4.583   2.203  20.486  0.00  0.00    +0.000 OA
ENDROOT
BRANCH   9  12
ATOM     12  N   UNL     1       5.748   4.978  17.454  0.00  0.00    +0.000 N 
ATOM     13  H   UNL     1       5.781   5.960  17.695  0.00  0.00    +0.000 HD
BRANCH  12  14
ATOM     14  C   UNL     1       5.999   4.737  16.093  0.00  0.00    +0.000 A 
ATOM     15  C   UNL     1       5.113   4.073  15.238  0.00  0.00    +0.000 A 
ATOM     16  C   UNL     1       5.434   3.868  13.890  0.00  0.00    +0.000 A 
ATOM     17  C   UNL     1       6.655   4.314  13.397  0.00  0.00    +0.000 A 
ATOM     18  C   UNL     1       7.563   4.950  14.228  0.00  0.00    +0.000 A 
ATOM     19  C   UNL     1       7.235   5.154  15.569  0.00  0.00    +0.000 A 
BRANCH  17  20
ATOM     20  O   UNL     1       7.003   4.142  12.091  0.00  0.00    +0.000 OA
ATOM     21  H   UNL     1       7.003   3.190  11.893  0.00  0.00    +0.000 HD
ENDBRANCH  17  20
ENDBRANCH  12  14
ENDBRANCH   9  12
TORSDOF 3
ENDMDL
MODEL 5
REMARK VINA RESULT:      -6.8      2.647      3.190
REMARK  Name = 
REMARK  7 active torsions:
REMARK  status: ('A' for Active; 'I' for Inactive)
REMARK    1  A    between atoms: C_1  and  C_2
REMARK    2  A    between atoms: C_2  and  C_3
REMARK    3  A    between atoms: C_5  and  C_6
REMARK    4  A    between atoms: C_5  and  C_7
REMARK    5  A    between atoms: C_9  and  N_10
REMARK    6  A    between atoms: N_10  and  C_11
REMARK    7  A    between atoms: C_14  and  O_15
REMARK                            x       y       z     vdW  Elec       q    Type
REMARK                         _______ _______ _______ _____ _____    ______ ____
ROOT
ATOM      1  C   UNL     1       2.159   3.416  21.940  0.00  0.00    +0.000 C 
ATOM      2  C   UNL     1       2.289   3.276  20.429  0.00  0.00    +0.000 C 
ATOM      3  C   UNL     1       1.337   2.200  19.918  0.00  0.00    +0.000 C 
ATOM      4  O   UNL     1       1.971   4.544  19.811  0.00  0.00    +0.000 OA
ATOM      5  C   UNL     1       2.872   4.821  18.709  0.00  0.00    +0.000 C 
ATOM      6  C   UNL     1       3.092   6.339  18.698  0.00  0.00    +0.000 C 
ATOM      7  C   UNL     1       2.199   4.406  17.394  0.00  0.00    +0.000 C 
ATOM      8  C   UNL     1       4.108   4.016  18.971  0.00  0.00    +0.000 C 
ATOM      9  C   UNL     1       5.350   4.098  18.475  0.00  0.00    +0.000 C 
ATOM     10  C   UNL     1       3.721   3.024  20.005  0.00  0.00    +0.000 C 
ATOM     11  O   UNL     1       4.453   2.140  20.420  0.00  0.00    +0.000 OA
ENDROOT
BRANCH   9  12
ATOM     12  N   UNL     1       5.795   4.970  17.515  0.00  0.00    +0.000 N 
ATOM     13  H   UNL     1       5.821   5.947  17.777  0.00  0.00    +0.000 HD
BRANCH  12  14
ATOM     14  C   UNL     1       6.110   4.756  16.163  0.00  0.00    +0.000 A 
ATOM     15  C   UNL     1       7.169   5.381  15.496  0.00  0.00    +0.000 A 
ATOM     16  C   UNL     1       7.421   5.117  14.143  0.00  0.00    +0.000 A 
ATOM     17  C   UNL     1       6.600   4.237  13.448  0.00  0.00    +0.000 A 
ATOM     18  C   UNL     1       5.528   3.625  14.076  0.00  0.00    +0.000 A 
ATOM     19  C   UNL     1       5.285   3.889  15.425  0.00  0.00    +0.000 A 
BRANCH  17  20
ATOM     20  O   UNL     1       6.815   3.948  12.134  0.00  0.00    +0.000 OA
ATOM     21  H   UNL     1       7.344   4.663  11.742  0.00  0.00    +0.000 HD
ENDBRANCH  17  20
ENDBRANCH  12  14
ENDBRANCH   9  12
TORSDOF 3
ENDMDL
MODEL 6
REMARK VINA RESULT:      -6.8      3.572      5.941
REMARK  Name = 
REMARK  7 active torsions:
REMARK  status: ('A' for Active; 'I' for Inactive)
REMARK    1  A    between atoms: C_1  and  C_2
REMARK    2  A    between atoms: C_2  and  C_3
REMARK    3  A    between atoms: C_5  and  C_6
REMARK    4  A    between atoms: C_5  and  C_7
REMARK    5  A    between atoms: C_9  and  N_10
REMARK    6  A    between atoms: N_10  and  C_11
REMARK    7  A    between atoms: C_14  and  O_15
REMARK                            x       y       z     vdW  Elec       q    Type
REMARK                         _______ _______ _______ _____ _____    ______ ____
ROOT
ATOM      1  C   UNL     1       7.431   4.825  17.078  0.00  0.00    +0.000 C 
ATOM      2  C   UNL     1       5.948   4.686  16.758  0.00  0.00    +0.000 C 
ATOM      3  C   UNL     1       5.761   3.896  15.467  0.00  0.00    +0.000 C 
ATOM      4  O   UNL     1       5.296   3.999  17.850  0.00  0.00    +0.000 OA
ATOM      5  C   UNL     1       4.003   4.591  18.134  0.00  0.00    +0.000 C 
ATOM      6  C   UNL     1       3.799   4.486  19.650  0.00  0.00    +0.000 C 
ATOM      7  C   UNL     1       2.912   3.777  17.428  0.00  0.00    +0.000 C 
ATOM      8  C   UNL     1       4.066   5.994  17.611  0.00  0.00    +0.000 C 
ATOM      9  C   UNL     1       3.306   7.072  17.850  0.00  0.00    +0.000 C 
ATOM     10  C   UNL     1       5.249   6.029  16.716  0.00  0.00    +0.000 C 
ATOM     11  O   UNL     1       5.577   6.995  16.046  0.00  0.00    +0.000 OA
ENDROOT
BRANCH   9  12
ATOM     12  N   UNL     1       2.194   7.131  18.649  0.00  0.00    +0.000 N 
ATOM     13  H   UNL     1       1.534   6.371  18.552  0.00  0.00    +0.000 HD
BRANCH  12  14
ATOM     14  C   UNL     1       1.740   8.146  19.509  0.00  0.00    +0.000 A 
ATOM     15  C   UNL     1       1.596   7.996  20.891  0.00  0.00    +0.000 A 
ATOM     16  C   UNL     1       1.135   9.055  21.685  0.00  0.00    +0.000 A 
ATOM     17  C   UNL     1       0.800  10.266  21.091  0.00  0.00    +0.000 A 
ATOM     18  C   UNL     1       0.907  10.433  19.719  0.00  0.00    +0.000 A 
ATOM     19  C   UNL     1       1.371   9.376  18.936  0.00  0.00    +0.000 A 
BRANCH  17  20
ATOM     20  O   UNL     1       0.356  11.323  21.826  0.00  0.00    +0.000 OA
ATOM     21  H   UNL     1       1.023  12.030  21.787  0.00  0.00    +0.000 HD
ENDBRANCH  17  20
ENDBRANCH  12  14
ENDBRANCH   9  12
TORSDOF 3
ENDMDL
MODEL 7
REMARK VINA RESULT:      -6.8      2.224      3.344
REMARK  Name = 
REMARK  7 active torsions:
REMARK  status: ('A' for Active; 'I' for Inactive)
REMARK    1  A    between atoms: C_1  and  C_2
REMARK    2  A    between atoms: C_2  and  C_3
REMARK    3  A    between atoms: C_5  and  C_6
REMARK    4  A    between atoms: C_5  and  C_7
REMARK    5  A    between atoms: C_9  and  N_10
REMARK    6  A    between atoms: N_10  and  C_11
REMARK    7  A    between atoms: C_14  and  O_15
REMARK                            x       y       z     vdW  Elec       q    Type
REMARK                         _______ _______ _______ _____ _____    ______ ____
ROOT
ATOM      1  C   UNL     1       0.131   3.245  19.736  0.00  0.00    +0.000 C 
ATOM      2  C   UNL     1       1.522   3.144  20.349  0.00  0.00    +0.000 C 
ATOM      3  C   UNL     1       1.442   2.499  21.729  0.00  0.00    +0.000 C 
ATOM      4  O   UNL     1       2.360   2.343  19.484  0.00  0.00    +0.000 OA
ATOM      5  C   UNL     1       3.694   2.904  19.394  0.00  0.00    +0.000 C 
ATOM      6  C   UNL     1       4.183   2.635  17.965  0.00  0.00    +0.000 C 
ATOM      7  C   UNL     1       4.613   2.173  20.380  0.00  0.00    +0.000 C 
ATOM      8  C   UNL     1       3.558   4.355  19.741  0.00  0.00    +0.000 C 
ATOM      9  C   UNL     1       4.370   5.402  19.539  0.00  0.00    +0.000 C 
ATOM     10  C   UNL     1       2.226   4.485  20.382  0.00  0.00    +0.000 C 
ATOM     11  O   UNL     1       1.793   5.517  20.868  0.00  0.00    +0.000 OA
ENDROOT
BRANCH   9  12
ATOM     12  N   UNL     1       5.616   5.376  18.968  0.00  0.00    +0.000 N 
ATOM     13  H   UNL     1       6.395   5.551  19.590  0.00  0.00    +0.000 HD
BRANCH  12  14
ATOM     14  C   UNL     1       6.002   5.269  17.622  0.00  0.00    +0.000 A 
ATOM     15  C   UNL     1       7.178   4.649  17.190  0.00  0.00    +0.000 A 
ATOM     16  C   UNL     1       7.496   4.582  15.827  0.00  0.00    +0.000 A 
ATOM     17  C   UNL     1       6.642   5.153  14.891  0.00  0.00    +0.000 A 
ATOM     18  C   UNL     1       5.484   5.798  15.293  0.00  0.00    +0.000 A 
ATOM     19  C   UNL     1       5.171   5.857  16.651  0.00  0.00    +0.000 A 
BRANCH  17  20
ATOM     20  O   UNL     1       6.911   5.104  13.556  0.00  0.00    +0.000 OA
ATOM     21  H   UNL     1       7.815   5.429  13.410  0.00  0.00    +0.000 HD
ENDBRANCH  17  20
ENDBRANCH  12  14
ENDBRANCH   9  12
TORSDOF 3
ENDMDL
MODEL 8
REMARK VINA RESULT:      -6.8      4.409      7.283
REMARK  Name = 
REMARK  7 active torsions:
REMARK  status: ('A' for Active; 'I' for Inactive)
REMARK    1  A    between atoms: C_1  and  C_2
REMARK    2  A    between atoms: C_2  and  C_3
REMARK    3  A    between atoms: C_5  and  C_6
REMARK    4  A    between atoms: C_5  and  C_7
REMARK    5  A    between atoms: C_9  and  N_10
REMARK    6  A    between atoms: N_10  and  C_11
REMARK    7  A    between atoms: C_14  and  O_15
REMARK                            x       y       z     vdW  Elec       q    Type
REMARK                         _______ _______ _______ _____ _____    ______ ____
ROOT
ATOM      1  C   UNL     1      -0.953  11.489  18.807  0.00  0.00    +0.000 C 
ATOM      2  C   UNL     1       0.170  11.059  19.743  0.00  0.00    +0.000 C 
ATOM      3  C   UNL     1       0.825  12.283  20.374  0.00  0.00    +0.000 C 
ATOM      4  O   UNL     1      -0.380  10.211  20.777  0.00  0.00    +0.000 OA
ATOM      5  C   UNL     1       0.511   9.103  21.063  0.00  0.00    +0.000 C 
ATOM      6  C   UNL     1      -0.382   7.903  21.405  0.00  0.00    +0.000 C 
ATOM      7  C   UNL     1       1.367   9.450  22.287  0.00  0.00    +0.000 C 
ATOM      8  C   UNL     1       1.353   8.921  19.837  0.00  0.00    +0.000 C 
ATOM      9  C   UNL     1       2.113   7.899  19.419  0.00  0.00    +0.000 C 
ATOM     10  C   UNL     1       1.176  10.164  19.047  0.00  0.00    +0.000 C 
ATOM     11  O   UNL     1       1.771  10.414  18.012  0.00  0.00    +0.000 OA
ENDROOT
BRANCH   9  12
ATOM     12  N   UNL     1       2.344   6.722  20.082  0.00  0.00    +0.000 N 
ATOM     13  H   UNL     1       2.965   6.774  20.879  0.00  0.00    +0.000 HD
BRANCH  12  14
ATOM     14  C   UNL     1       1.959   5.407  19.770  0.00  0.00    +0.000 A 
ATOM     15  C   UNL     1       1.490   4.484  20.709  0.00  0.00    +0.000 A 
ATOM     16  C   UNL     1       1.126   3.187  20.322  0.00  0.00    +0.000 A 
ATOM     17  C   UNL     1       1.248   2.806  18.991  0.00  0.00    +0.000 A 
ATOM     18  C   UNL     1       1.736   3.692  18.044  0.00  0.00    +0.000 A 
ATOM     19  C   UNL     1       2.092   4.983  18.436  0.00  0.00    +0.000 A 
BRANCH  17  20
ATOM     20  O   UNL     1       0.898   1.558  18.571  0.00  0.00    +0.000 OA
ATOM     21  H   UNL     1       1.131   0.920  19.268  0.00  0.00    +0.000 HD
ENDBRANCH  17  20
ENDBRANCH  12  14
ENDBRANCH   9  12
TORSDOF 3
ENDMDL
MODEL 9
REMARK VINA RESULT:      -6.7      3.264      4.886
REMARK  Name = 
REMARK  7 active torsions:
REMARK  status: ('A' for Active; 'I' for Inactive)
REMARK    1  A    between atoms: C_1  and  C_2
REMARK    2  A    between atoms: C_2  and  C_3
REMARK    3  A    between atoms: C_5  and  C_6
REMARK    4  A    between atoms: C_5  and  C_7
REMARK    5  A    between atoms: C_9  and  N_10
REMARK    6  A    between atoms: N_10  and  C_11
REMARK    7  A    between atoms: C_14  and  O_15
REMARK                            x       y       z     vdW  Elec       q    Type
REMARK                         _______ _______ _______ _____ _____    ______ ____
ROOT
ATOM      1  C   UNL     1       4.344   1.159  19.327  0.00  0.00    +0.000 C 
ATOM      2  C   UNL     1       3.762   2.358  18.588  0.00  0.00    +0.000 C 
ATOM      3  C   UNL     1       3.983   2.208  17.087  0.00  0.00    +0.000 C 
ATOM      4  O   UNL     1       2.345   2.439  18.868  0.00  0.00    +0.000 OA
ATOM      5  C   UNL     1       1.936   3.816  19.064  0.00  0.00    +0.000 C 
ATOM      6  C   UNL     1       0.830   3.793  20.127  0.00  0.00    +0.000 C 
ATOM      7  C   UNL     1       1.355   4.359  17.753  0.00  0.00    +0.000 C 
ATOM      8  C   UNL     1       3.171   4.561  19.469  0.00  0.00    +0.000 C 
ATOM      9  C   UNL     1       3.342   5.755  20.054  0.00  0.00    +0.000 C 
ATOM     10  C   UNL     1       4.304   3.668  19.121  0.00  0.00    +0.000 C 
ATOM     11  O   UNL     1       5.480   3.971  19.237  0.00  0.00    +0.000 OA
ENDROOT
BRANCH   9  12
ATOM     12  N   UNL     1       2.362   6.649  20.400  0.00  0.00    +0.000 N 
ATOM     13  H   UNL     1       1.791   6.398  21.196  0.00  0.00    +0.000 HD
BRANCH  12  14
ATOM     14  C   UNL     1       1.922   7.817  19.754  0.00  0.00    +0.000 A 
ATOM     15  C   UNL     1       2.202   8.128  18.420  0.00  0.00    +0.000 A 
ATOM     16  C   UNL     1       1.729   9.315  17.845  0.00  0.00    +0.000 A 
ATOM     17  C   UNL     1       0.987  10.205  18.613  0.00  0.00    +0.000 A 
ATOM     18  C   UNL     1       0.719   9.935  19.945  0.00  0.00    +0.000 A 
ATOM     19  C   UNL     1       1.189   8.749  20.510  0.00  0.00    +0.000 A 
BRANCH  17  20
ATOM     20  O   UNL     1       0.503  11.366  18.091  0.00  0.00    +0.000 OA
ATOM     21  H   UNL     1       0.983  11.560  17.267  0.00  0.00    +0.000 HD
ENDBRANCH  17  20
ENDBRANCH  12  14
ENDBRANCH   9  12
TORSDOF 3
ENDMDL
