MODEL 1
REMARK VINA RESULT:      -6.6      0.000      0.000
REMARK  Name = 
REMARK  5 active torsions:
REMARK  status: ('A' for Active; 'I' for Inactive)
REMARK    1  A    between atoms: C_1  and  C_2
REMARK    2  A    between atoms: C_2  and  C_3
REMARK    3  A    between atoms: C_8  and  C_9
REMARK    4  A    between atoms: C_9  and  C_10
REMARK    5  A    between atoms: N_14  and  C_15
REMARK                            x       y       z     vdW  Elec       q    Type
REMARK                         _______ _______ _______ _____ _____    ______ ____
ROOT
ATOM      1  C   UNL     1       5.901   5.646  16.909  0.00  0.00    +0.000 C 
ATOM      2  C   UNL     1       6.951   4.743  17.522  0.00  0.00    +0.000 C 
ATOM      3  O   UNL     1       7.997   4.403  17.004  0.00  0.00    +0.000 OA
ATOM      4  O   UNL     1       6.602   4.396  18.786  0.00  0.00    +0.000 OA
ATOM      5  C   UNL     1       5.311   4.871  19.154  0.00  0.00    +0.000 C 
ATOM      6  C   UNL     1       4.786   5.829  18.087  0.00  0.00    +0.000 C 
ENDROOT
BRANCH   1   8
ATOM      7  C   UNL     1       5.544   4.149  14.620  0.00  0.00    +0.000 C 
ATOM      8  C   UNL     1       5.959   5.451  15.342  0.00  0.00    +0.000 C 
ENDBRANCH   1   8
BRANCH   6   9
ATOM      9  C   UNL     1       3.177   5.824  18.151  0.00  0.00    +0.000 C 
BRANCH   9  10
ATOM     10  C   UNL     1       2.446   4.461  18.215  0.00  0.00    +0.000 A 
ATOM     11  C   UNL     1       2.514   3.401  17.322  0.00  0.00    +0.000 A 
ATOM     12  N   UNL     1       1.803   2.311  17.744  0.00  0.00    +0.000 NA
ATOM     13  C   UNL     1       1.319   2.646  18.910  0.00  0.00    +0.000 A 
ATOM     14  N   UNL     1       1.669   3.928  19.262  0.00  0.00    +0.000 N 
ATOM     15  C   UNL     1       1.249   4.460  20.535  0.00  0.00    +0.000 C 
ENDBRANCH   9  10
ENDBRANCH   6   9
TORSDOF 3
ENDMDL
MODEL 2
REMARK VINA RESULT:      -6.5      1.186      1.863
REMARK  Name = 
REMARK  5 active torsions:
REMARK  status: ('A' for Active; 'I' for Inactive)
REMARK    1  A    between atoms: C_1  and  C_2
REMARK    2  A    between atoms: C_2  and  C_3
REMARK    3  A    between atoms: C_8  and  C_9
REMARK    4  A    between atoms: C_9  and  C_10
REMARK    5  A    between atoms: N_14  and  C_15
REMARK                            x       y       z     vdW  Elec       q    Type
REMARK                         _______ _______ _______ _____ _____    ______ ____
ROOT
ATOM      1  C   UNL     1       5.832   4.864  16.763  0.00  0.00    +0.000 C 
ATOM      2  C   UNL     1       7.055   4.589  17.614  0.00  0.00    +0.000 C 
ATOM      3  O   UNL     1       8.128   4.180  17.218  0.00  0.00    +0.000 OA
ATOM      4  O   UNL     1       6.820   4.925  18.907  0.00  0.00    +0.000 OA
ATOM      5  C   UNL     1       5.475   5.331  19.139  0.00  0.00    +0.000 C 
ATOM      6  C   UNL     1       4.742   5.484  17.808  0.00  0.00    +0.000 C 
ENDROOT
BRANCH   1   8
ATOM      7  C   UNL     1       6.342   4.277  14.117  0.00  0.00    +0.000 C 
ATOM      8  C   UNL     1       5.874   3.873  15.533  0.00  0.00    +0.000 C 
ENDBRANCH   1   8
BRANCH   6   9
ATOM      9  C   UNL     1       3.166   5.283  18.072  0.00  0.00    +0.000 C 
BRANCH   9  10
ATOM     10  C   UNL     1       2.727   4.382  19.252  0.00  0.00    +0.000 A 
ATOM     11  C   UNL     1       2.007   4.732  20.385  0.00  0.00    +0.000 A 
ATOM     12  N   UNL     1       1.717   3.654  21.177  0.00  0.00    +0.000 NA
ATOM     13  C   UNL     1       2.203   2.620  20.544  0.00  0.00    +0.000 A 
ATOM     14  N   UNL     1       2.823   2.982  19.372  0.00  0.00    +0.000 N 
ATOM     15  C   UNL     1       3.394   1.965  18.522  0.00  0.00    +0.000 C 
ENDBRANCH   9  10
ENDBRANCH   6   9
TORSDOF 3
ENDMDL
MODEL 3
REMARK VINA RESULT:      -6.5      1.912      2.956
REMARK  Name = 
REMARK  5 active torsions:
REMARK  status: ('A' for Active; 'I' for Inactive)
REMARK    1  A    between atoms: C_1  and  C_2
REMARK    2  A    between atoms: C_2  and  C_3
REMARK    3  A    between atoms: C_8  and  C_9
REMARK    4  A    between atoms: C_9  and  C_10
REMARK    5  A    between atoms: N_14  and  C_15
REMARK                            x       y       z     vdW  Elec       q    Type
REMARK                         _______ _______ _______ _____ _____    ______ ____
ROOT
ATOM      1  C   UNL     1       5.995   4.487  14.068  0.00  0.00    +0.000 C 
ATOM      2  C   UNL     1       7.319   5.219  14.005  0.00  0.00    +0.000 C 
ATOM      3  O   UNL     1       7.961   5.458  13.001  0.00  0.00    +0.000 OA
ATOM      4  O   UNL     1       7.687   5.644  15.239  0.00  0.00    +0.000 OA
ATOM      5  C   UNL     1       6.805   5.201  16.264  0.00  0.00    +0.000 C 
ATOM      6  C   UNL     1       5.568   4.555  15.642  0.00  0.00    +0.000 C 
ENDROOT
BRANCH   1   8
ATOM      7  C   UNL     1       4.775   3.332  11.880  0.00  0.00    +0.000 C 
ATOM      8  C   UNL     1       5.958   3.462  12.867  0.00  0.00    +0.000 C 
ENDBRANCH   1   8
BRANCH   6   9
ATOM      9  C   UNL     1       4.949   3.518  16.707  0.00  0.00    +0.000 C 
BRANCH   9  10
ATOM     10  C   UNL     1       3.507   3.757  17.215  0.00  0.00    +0.000 A 
ATOM     11  C   UNL     1       2.476   2.839  17.354  0.00  0.00    +0.000 A 
ATOM     12  N   UNL     1       1.358   3.386  17.923  0.00  0.00    +0.000 NA
ATOM     13  C   UNL     1       1.677   4.624  18.187  0.00  0.00    +0.000 A 
ATOM     14  N   UNL     1       2.960   4.920  17.791  0.00  0.00    +0.000 N 
ATOM     15  C   UNL     1       3.497   6.237  18.032  0.00  0.00    +0.000 C 
ENDBRANCH   9  10
ENDBRANCH   6   9
TORSDOF 3
ENDMDL
MODEL 4
REMARK VINA RESULT:      -6.4      1.203      1.410
REMARK  Name = 
REMARK  5 active torsions:
REMARK  status: ('A' for Active; 'I' for Inactive)
REMARK    1  A    between atoms: C_1  and  C_2
REMARK    2  A    between atoms: C_2  and  C_3
REMARK    3  A    between atoms: C_8  and  C_9
REMARK    4  A    between atoms: C_9  and  C_10
REMARK    5  A    between atoms: N_14  and  C_15
REMARK                            x       y       z     vdW  Elec       q    Type
REMARK                         _______ _______ _______ _____ _____    ______ ____
ROOT
ATOM      1  C   UNL     1       5.897   5.013  17.055  0.00  0.00    +0.000 C 
ATOM      2  C   UNL     1       7.320   4.646  17.420  0.00  0.00    +0.000 C 
ATOM      3  O   UNL     1       8.161   4.194  16.668  0.00  0.00    +0.000 OA
ATOM      4  O   UNL     1       7.571   4.949  18.718  0.00  0.00    +0.000 OA
ATOM      5  C   UNL     1       6.420   5.418  19.411  0.00  0.00    +0.000 C 
ATOM      6  C   UNL     1       5.279   5.654  18.423  0.00  0.00    +0.000 C 
ENDROOT
BRANCH   1   8
ATOM      7  C   UNL     1       5.680   4.376  14.380  0.00  0.00    +0.000 C 
ATOM      8  C   UNL     1       5.447   4.063  15.875  0.00  0.00    +0.000 C 
ENDBRANCH   1   8
BRANCH   6   9
ATOM      9  C   UNL     1       3.885   5.528  19.220  0.00  0.00    +0.000 C 
BRANCH   9  10
ATOM     10  C   UNL     1       2.910   4.394  18.822  0.00  0.00    +0.000 A 
ATOM     11  C   UNL     1       1.753   4.476  18.060  0.00  0.00    +0.000 A 
ATOM     12  N   UNL     1       1.187   3.251  17.830  0.00  0.00    +0.000 NA
ATOM     13  C   UNL     1       1.988   2.390  18.396  0.00  0.00    +0.000 A 
ATOM     14  N   UNL     1       3.053   3.005  19.011  0.00  0.00    +0.000 N 
ATOM     15  C   UNL     1       4.061   2.207  19.665  0.00  0.00    +0.000 C 
ENDBRANCH   9  10
ENDBRANCH   6   9
TORSDOF 3
ENDMDL
MODEL 5
REMARK VINA RESULT:      -6.4      1.943      2.931
REMARK  Name = 
REMARK  5 active torsions:
REMARK  status: ('A' for Active; 'I' for Inactive)
REMARK    1  A    between atoms: C_1  and  C_2
REMARK    2  A    between atoms: C_2  and  C_3
REMARK    3  A    between atoms: C_8  and  C_9
REMARK    4  A    between atoms: C_9  and  C_10
REMARK    5  A    between atoms: N_14  and  C_15
REMARK                            x       y       z     vdW  Elec       q    Type
REMARK                         _______ _______ _______ _____ _____    ______ ____
ROOT
ATOM      1  C   UNL     1       5.946   4.589  14.257  0.00  0.00    +0.000 C 
ATOM      2  C   UNL     1       7.300   5.253  14.402  0.00  0.00    +0.000 C 
ATOM      3  O   UNL     1       8.098   5.459  13.509  0.00  0.00    +0.000 OA
ATOM      4  O   UNL     1       7.496   5.659  15.681  0.00  0.00    +0.000 OA
ATOM      5  C   UNL     1       6.446   5.261  16.556  0.00  0.00    +0.000 C 
ATOM      6  C   UNL     1       5.288   4.679  15.748  0.00  0.00    +0.000 C 
ENDROOT
BRANCH   1   8
ATOM      7  C   UNL     1       4.930   3.370  12.002  0.00  0.00    +0.000 C 
ATOM      8  C   UNL     1       6.042   3.567  13.056  0.00  0.00    +0.000 C 
ENDBRANCH   1   8
BRANCH   6   9
ATOM      9  C   UNL     1       4.463   3.674  16.698  0.00  0.00    +0.000 C 
BRANCH   9  10
ATOM     10  C   UNL     1       3.782   4.249  17.963  0.00  0.00    +0.000 A 
ATOM     11  C   UNL     1       2.934   5.343  18.068  0.00  0.00    +0.000 A 
ATOM     12  N   UNL     1       2.443   5.508  19.334  0.00  0.00    +0.000 NA
ATOM     13  C   UNL     1       2.931   4.514  20.026  0.00  0.00    +0.000 A 
ATOM     14  N   UNL     1       3.745   3.709  19.264  0.00  0.00    +0.000 N 
ATOM     15  C   UNL     1       4.349   2.540  19.854  0.00  0.00    +0.000 C 
ENDBRANCH   9  10
ENDBRANCH   6   9
TORSDOF 3
ENDMDL
MODEL 6
REMARK VINA RESULT:      -6.4      3.249      5.726
REMARK  Name = 
REMARK  5 active torsions:
REMARK  status: ('A' for Active; 'I' for Inactive)
REMARK    1  A    between atoms: C_1  and  C_2
REMARK    2  A    between atoms: C_2  and  C_3
REMARK    3  A    between atoms: C_8  and  C_9
REMARK    4  A    between atoms: C_9  and  C_10
REMARK    5  A    between atoms: N_14  and  C_15
REMARK                            x       y       z     vdW  Elec       q    Type
REMARK                         _______ _______ _______ _____ _____    ______ ____
ROOT
ATOM      1  C   UNL     1       1.643   4.031  19.294  0.00  0.00    +0.000 C 
ATOM      2  C   UNL     1       1.268   2.913  18.344  0.00  0.00    +0.000 C 
ATOM      3  O   UNL     1       0.296   2.189  18.434  0.00  0.00    +0.000 OA
ATOM      4  O   UNL     1       2.144   2.853  17.311  0.00  0.00    +0.000 OA
ATOM      5  C   UNL     1       3.228   3.766  17.449  0.00  0.00    +0.000 C 
ATOM      6  C   UNL     1       2.966   4.709  18.622  0.00  0.00    +0.000 C 
ENDROOT
BRANCH   1   8
ATOM      7  C   UNL     1       1.906   2.826  21.761  0.00  0.00    +0.000 C 
ATOM      8  C   UNL     1       1.100   3.643  20.726  0.00  0.00    +0.000 C 
ENDBRANCH   1   8
BRANCH   6   9
ATOM      9  C   UNL     1       4.384   5.241  19.169  0.00  0.00    +0.000 C 
BRANCH   9  10
ATOM     10  C   UNL     1       5.388   5.838  18.154  0.00  0.00    +0.000 A 
ATOM     11  C   UNL     1       5.126   6.461  16.942  0.00  0.00    +0.000 A 
ATOM     12  N   UNL     1       6.256   6.951  16.347  0.00  0.00    +0.000 NA
ATOM     13  C   UNL     1       7.226   6.688  17.180  0.00  0.00    +0.000 A 
ATOM     14  N   UNL     1       6.778   6.021  18.296  0.00  0.00    +0.000 N 
ATOM     15  C   UNL     1       7.707   5.674  19.343  0.00  0.00    +0.000 C 
ENDBRANCH   9  10
ENDBRANCH   6   9
TORSDOF 3
ENDMDL
MODEL 7
REMARK VINA RESULT:      -6.3      2.197      3.527
REMARK  Name = 
REMARK  5 active torsions:
REMARK  status: ('A' for Active; 'I' for Inactive)
REMARK    1  A    between atoms: C_1  and  C_2
REMARK    2  A    between atoms: C_2  and  C_3
REMARK    3  A    between atoms: C_8  and  C_9
REMARK    4  A    between atoms: C_9  and  C_10
REMARK    5  A    between atoms: N_14  and  C_15
REMARK                            x       y       z     vdW  Elec       q    Type
REMARK                         _______ _______ _______ _____ _____    ______ ____
ROOT
ATOM      1  C   UNL     1       5.860   4.373  13.733  0.00  0.00    +0.000 C 
ATOM      2  C   UNL     1       7.250   4.943  13.543  0.00  0.00    +0.000 C 
ATOM      3  O   UNL     1       7.853   5.034  12.492  0.00  0.00    +0.000 OA
ATOM      4  O   UNL     1       7.736   5.413  14.720  0.00  0.00    +0.000 OA
ATOM      5  C   UNL     1       6.873   5.148  15.821  0.00  0.00    +0.000 C 
ATOM      6  C   UNL     1       5.539   4.603  15.316  0.00  0.00    +0.000 C 
ENDROOT
BRANCH   1   8
ATOM      7  C   UNL     1       4.469   3.290  11.611  0.00  0.00    +0.000 C 
ATOM      8  C   UNL     1       5.640   3.273  12.619  0.00  0.00    +0.000 C 
ENDBRANCH   1   8
BRANCH   6   9
ATOM      9  C   UNL     1       4.875   3.722  16.490  0.00  0.00    +0.000 C 
BRANCH   9  10
ATOM     10  C   UNL     1       4.104   4.455  17.614  0.00  0.00    +0.000 A 
ATOM     11  C   UNL     1       2.733   4.566  17.792  0.00  0.00    +0.000 A 
ATOM     12  N   UNL     1       2.403   5.212  18.952  0.00  0.00    +0.000 NA
ATOM     13  C   UNL     1       3.541   5.475  19.535  0.00  0.00    +0.000 A 
ATOM     14  N   UNL     1       4.612   5.044  18.789  0.00  0.00    +0.000 N 
ATOM     15  C   UNL     1       5.953   5.223  19.291  0.00  0.00    +0.000 C 
ENDBRANCH   9  10
ENDBRANCH   6   9
TORSDOF 3
ENDMDL
MODEL 8
REMARK VINA RESULT:      -6.3      3.117      5.436
REMARK  Name = 
REMARK  5 active torsions:
REMARK  status: ('A' for Active; 'I' for Inactive)
REMARK    1  A    between atoms: C_1  and  C_2
REMARK    2  A    between atoms: C_2  and  C_3
REMARK    3  A    between atoms: C_8  and  C_9
REMARK    4  A    between atoms: C_9  and  C_10
REMARK    5  A    between atoms: N_14  and  C_15
REMARK                            x       y       z     vdW  Elec       q    Type
REMARK                         _______ _______ _______ _____ _____    ______ ____
ROOT
ATOM      1  C   UNL     1       1.897   4.114  18.998  0.00  0.00    +0.000 C 
ATOM      2  C   UNL     1       1.640   2.886  19.846  0.00  0.00    +0.000 C 
ATOM      3  O   UNL     1       1.043   2.855  20.904  0.00  0.00    +0.000 OA
ATOM      4  O   UNL     1       2.120   1.775  19.232  0.00  0.00    +0.000 OA
ATOM      5  C   UNL     1       2.824   2.066  18.030  0.00  0.00    +0.000 C 
ATOM      6  C   UNL     1       2.642   3.538  17.665  0.00  0.00    +0.000 C 
ENDROOT
BRANCH   1   8
ATOM      7  C   UNL     1       2.487   6.753  19.541  0.00  0.00    +0.000 C 
ATOM      8  C   UNL     1       1.988   5.355  19.971  0.00  0.00    +0.000 C 
ENDBRANCH   1   8
BRANCH   6   9
ATOM      9  C   UNL     1       3.898   3.996  16.767  0.00  0.00    +0.000 C 
BRANCH   9  10
ATOM     10  C   UNL     1       5.205   4.408  17.485  0.00  0.00    +0.000 A 
ATOM     11  C   UNL     1       5.450   4.504  18.848  0.00  0.00    +0.000 A 
ATOM     12  N   UNL     1       6.754   4.810  19.127  0.00  0.00    +0.000 NA
ATOM     13  C   UNL     1       7.351   4.869  17.967  0.00  0.00    +0.000 A 
ATOM     14  N   UNL     1       6.480   4.633  16.930  0.00  0.00    +0.000 N 
ATOM     15  C   UNL     1       6.970   4.627  15.573  0.00  0.00    +0.000 C 
ENDBRANCH   9  10
ENDBRANCH   6   9
TORSDOF 3
ENDMDL
MODEL 9
REMARK VINA RESULT:      -6.3      1.552      1.739
REMARK  Name = 
REMARK  5 active torsions:
REMARK  status: ('A' for Active; 'I' for Inactive)
REMARK    1  A    between atoms: C_1  and  C_2
REMARK    2  A    between atoms: C_2  and  C_3
REMARK    3  A    between atoms: C_8  and  C_9
REMARK    4  A    between atoms: C_9  and  C_10
REMARK    5  A    between atoms: N_14  and  C_15
REMARK                            x       y       z     vdW  Elec       q    Type
REMARK                         _______ _______ _______ _____ _____    ______ ____
ROOT
ATOM      1  C   UNL     1       5.727   6.357  17.513  0.00  0.00    +0.000 C 
ATOM      2  C   UNL     1       7.150   6.869  17.587  0.00  0.00    +0.000 C 
ATOM      3  O   UNL     1       7.671   7.656  16.822  0.00  0.00    +0.000 OA
ATOM      4  O   UNL     1       7.776   6.375  18.684  0.00  0.00    +0.000 OA
ATOM      5  C   UNL     1       6.982   5.434  19.399  0.00  0.00    +0.000 C 
ATOM      6  C   UNL     1       5.561   5.423  18.841  0.00  0.00    +0.000 C 
ENDROOT
BRANCH   1   8
ATOM      7  C   UNL     1       5.589   5.184  15.020  0.00  0.00    +0.000 C 
ATOM      8  C   UNL     1       5.301   6.351  15.991  0.00  0.00    +0.000 C 
ENDBRANCH   1   8
BRANCH   6   9
ATOM      9  C   UNL     1       4.904   3.987  19.157  0.00  0.00    +0.000 C 
BRANCH   9  10
ATOM     10  C   UNL     1       3.413   3.766  18.807  0.00  0.00    +0.000 A 
ATOM     11  C   UNL     1       2.787   3.882  17.574  0.00  0.00    +0.000 A 
ATOM     12  N   UNL     1       1.468   3.522  17.618  0.00  0.00    +0.000 NA
ATOM     13  C   UNL     1       1.256   3.139  18.848  0.00  0.00    +0.000 A 
ATOM     14  N   UNL     1       2.385   3.254  19.623  0.00  0.00    +0.000 N 
ATOM     15  C   UNL     1       2.347   2.847  21.007  0.00  0.00    +0.000 C 
ENDBRANCH   9  10
ENDBRANCH   6   9
TORSDOF 3
ENDMDL
