MODEL 1
REMARK VINA RESULT:      -6.7      0.000      0.000
REMARK  Name = 
REMARK  14 active torsions:
REMARK  status: ('A' for Active; 'I' for Inactive)
REMARK    1  A    between atoms: C_1  and  C_2
REMARK    2  A    between atoms: C_2  and  N_3
REMARK    3  A    between atoms: N_3  and  C_4
REMARK    4  A    between atoms: N_3  and  C_5
REMARK    5  A    between atoms: C_5  and  C_6
REMARK    6  A    between atoms: C_6  and  C_7
REMARK    7  A    between atoms: C_7  and  N_8
REMARK    8  A    between atoms: N_8  and  C_9
REMARK    9  A    between atoms: N_8  and  C_10
REMARK   10  A    between atoms: C_10  and  C_11
REMARK   11  A    between atoms: C_15  and  O_16
REMARK   12  A    between atoms: O_16  and  C_17
REMARK   13  A    between atoms: C_19  and  O_20
REMARK   14  A    between atoms: O_20  and  C_21
REMARK                            x       y       z     vdW  Elec       q    Type
REMARK                         _______ _______ _______ _____ _____    ______ ____
ROOT
ATOM      1  C   UNL     1       3.416   4.806  18.120  0.00  0.00    +0.000 C 
ATOM      2  O   UNL     1       3.471   4.355  16.744  0.00  0.00    +0.000 OA
ATOM      3  C   UNL     1       4.756   4.576  16.316  0.00  0.00    +0.000 A 
ATOM      4  C   UNL     1       5.170   4.205  15.047  0.00  0.00    +0.000 A 
ATOM      5  C   UNL     1       6.487   4.472  14.678  0.00  0.00    +0.000 A 
ATOM      6  C   UNL     1       7.333   5.138  15.574  0.00  0.00    +0.000 A 
ATOM      7  C   UNL     1       6.909   5.516  16.862  0.00  0.00    +0.000 A 
ATOM      8  C   UNL     1       5.615   5.186  17.222  0.00  0.00    +0.000 A 
ATOM      9  C   UNL     1       4.807   5.328  18.419  0.00  0.00    +0.000 C 
ATOM     10  O   UNL     1       5.174   5.750  19.502  0.00  0.00    +0.000 OA
ENDROOT
BRANCH   5  11
ATOM     11  O   UNL     1       6.839   4.042  13.425  0.00  0.00    +0.000 OA
ATOM     12  C   UNL     1       5.806   3.477  12.629  0.00  0.00    +0.000 C 
ENDBRANCH   5  11
BRANCH   7  13
ATOM     13  O   UNL     1       7.897   6.163  17.543  0.00  0.00    +0.000 OA
ATOM     14  C   UNL     1       7.781   7.550  17.806  0.00  0.00    +0.000 C 
ENDBRANCH   7  13
BRANCH   1  15
ATOM     15  C   UNL     1       2.329   5.910  18.324  0.00  0.00    +0.000 C 
BRANCH  15  16
ATOM     16  N   UNL     1       2.706   7.270  18.849  0.00  0.00    +0.000 NA
ATOM     17  C   UNL     1       1.923   7.666  20.021  0.00  0.00    +0.000 C 
BRANCH  16  19
ATOM     18  C   UNL     1       1.420   9.255  17.974  0.00  0.00    +0.000 C 
ATOM     19  C   UNL     1       2.575   8.272  17.768  0.00  0.00    +0.000 C 
ENDBRANCH  16  19
ENDBRANCH  15  16
ENDBRANCH   1  15
BRANCH   1  20
ATOM     20  C   UNL     1       3.245   3.578  19.085  0.00  0.00    +0.000 C 
BRANCH  20  21
ATOM     21  N   UNL     1       2.651   2.294  18.613  0.00  0.00    +0.000 NA
ATOM     22  C   UNL     1       3.646   1.217  18.597  0.00  0.00    +0.000 C 
BRANCH  21  23
ATOM     23  C   UNL     1       1.513   1.946  19.503  0.00  0.00    +0.000 C 
ATOM     24  C   UNL     1       1.197   2.998  20.565  0.00  0.00    +0.000 C 
ENDBRANCH  21  23
ENDBRANCH  20  21
ENDBRANCH   1  20
TORSDOF 8
ENDMDL
MODEL 2
REMARK VINA RESULT:      -6.6      0.901      1.095
REMARK  Name = 
REMARK  14 active torsions:
REMARK  status: ('A' for Active; 'I' for Inactive)
REMARK    1  A    between atoms: C_1  and  C_2
REMARK    2  A    between atoms: C_2  and  N_3
REMARK    3  A    between atoms: N_3  and  C_4
REMARK    4  A    between atoms: N_3  and  C_5
REMARK    5  A    between atoms: C_5  and  C_6
REMARK    6  A    between atoms: C_6  and  C_7
REMARK    7  A    between atoms: C_7  and  N_8
REMARK    8  A    between atoms: N_8  and  C_9
REMARK    9  A    between atoms: N_8  and  C_10
REMARK   10  A    between atoms: C_10  and  C_11
REMARK   11  A    between atoms: C_15  and  O_16
REMARK   12  A    between atoms: O_16  and  C_17
REMARK   13  A    between atoms: C_19  and  O_20
REMARK   14  A    between atoms: O_20  and  C_21
REMARK                            x       y       z     vdW  Elec       q    Type
REMARK                         _______ _______ _______ _____ _____    ______ ____
ROOT
ATOM      1  C   UNL     1       3.170   4.851  18.263  0.00  0.00    +0.000 C 
ATOM      2  O   UNL     1       3.290   4.462  16.873  0.00  0.00    +0.000 OA
ATOM      3  C   UNL     1       4.629   4.512  16.572  0.00  0.00    +0.000 A 
ATOM      4  C   UNL     1       5.104   4.146  15.323  0.00  0.00    +0.000 A 
ATOM      5  C   UNL     1       6.474   4.233  15.088  0.00  0.00    +0.000 A 
ATOM      6  C   UNL     1       7.317   4.724  16.092  0.00  0.00    +0.000 A 
ATOM      7  C   UNL     1       6.832   5.098  17.359  0.00  0.00    +0.000 A 
ATOM      8  C   UNL     1       5.475   4.945  17.585  0.00  0.00    +0.000 A 
ATOM      9  C   UNL     1       4.586   5.147  18.713  0.00  0.00    +0.000 C 
ATOM     10  O   UNL     1       4.905   5.458  19.847  0.00  0.00    +0.000 OA
ENDROOT
BRANCH   5  11
ATOM     11  O   UNL     1       6.878   3.816  13.846  0.00  0.00    +0.000 OA
ATOM     12  C   UNL     1       5.863   3.637  12.869  0.00  0.00    +0.000 C 
ENDBRANCH   5  11
BRANCH   7  13
ATOM     13  O   UNL     1       7.833   5.560  18.161  0.00  0.00    +0.000 OA
ATOM     14  C   UNL     1       7.932   6.945  18.439  0.00  0.00    +0.000 C 
ENDBRANCH   7  13
BRANCH   1  15
ATOM     15  C   UNL     1       2.236   6.091  18.439  0.00  0.00    +0.000 C 
BRANCH  15  16
ATOM     16  N   UNL     1       2.403   7.017  19.615  0.00  0.00    +0.000 NA
ATOM     17  C   UNL     1       1.621   6.603  20.781  0.00  0.00    +0.000 C 
BRANCH  16  19
ATOM     18  C   UNL     1       1.891   8.577  17.702  0.00  0.00    +0.000 C 
ATOM     19  C   UNL     1       2.056   8.397  19.213  0.00  0.00    +0.000 C 
ENDBRANCH  16  19
ENDBRANCH  15  16
ENDBRANCH   1  15
BRANCH   1  20
ATOM     20  C   UNL     1       2.735   3.616  19.133  0.00  0.00    +0.000 C 
BRANCH  20  21
ATOM     21  N   UNL     1       1.301   3.343  19.436  0.00  0.00    +0.000 NA
ATOM     22  C   UNL     1       0.780   2.242  18.621  0.00  0.00    +0.000 C 
BRANCH  21  23
ATOM     23  C   UNL     1       1.177   3.031  20.884  0.00  0.00    +0.000 C 
ATOM     24  C   UNL     1       2.502   2.726  21.580  0.00  0.00    +0.000 C 
ENDBRANCH  21  23
ENDBRANCH  20  21
ENDBRANCH   1  20
TORSDOF 8
ENDMDL
MODEL 3
REMARK VINA RESULT:      -6.4      0.724      1.032
REMARK  Name = 
REMARK  14 active torsions:
REMARK  status: ('A' for Active; 'I' for Inactive)
REMARK    1  A    between atoms: C_1  and  C_2
REMARK    2  A    between atoms: C_2  and  N_3
REMARK    3  A    between atoms: N_3  and  C_4
REMARK    4  A    between atoms: N_3  and  C_5
REMARK    5  A    between atoms: C_5  and  C_6
REMARK    6  A    between atoms: C_6  and  C_7
REMARK    7  A    between atoms: C_7  and  N_8
REMARK    8  A    between atoms: N_8  and  C_9
REMARK    9  A    between atoms: N_8  and  C_10
REMARK   10  A    between atoms: C_10  and  C_11
REMARK   11  A    between atoms: C_15  and  O_16
REMARK   12  A    between atoms: O_16  and  C_17
REMARK   13  A    between atoms: C_19  and  O_20
REMARK   14  A    between atoms: O_20  and  C_21
REMARK                            x       y       z     vdW  Elec       q    Type
REMARK                         _______ _______ _______ _____ _____    ______ ____
ROOT
ATOM      1  C   UNL     1       3.785   4.421  18.634  0.00  0.00    +0.000 C 
ATOM      2  O   UNL     1       3.699   3.903  17.284  0.00  0.00    +0.000 OA
ATOM      3  C   UNL     1       4.864   4.266  16.656  0.00  0.00    +0.000 A 
ATOM      4  C   UNL     1       5.134   3.881  15.352  0.00  0.00    +0.000 A 
ATOM      5  C   UNL     1       6.333   4.297  14.777  0.00  0.00    +0.000 A 
ATOM      6  C   UNL     1       7.201   5.117  15.507  0.00  0.00    +0.000 A 
ATOM      7  C   UNL     1       6.924   5.509  16.830  0.00  0.00    +0.000 A 
ATOM      8  C   UNL     1       5.755   5.033  17.397  0.00  0.00    +0.000 A 
ATOM      9  C   UNL     1       5.119   5.136  18.697  0.00  0.00    +0.000 C 
ATOM     10  O   UNL     1       5.581   5.663  19.694  0.00  0.00    +0.000 OA
ENDROOT
BRANCH   5  11
ATOM     11  O   UNL     1       6.552   3.846  13.501  0.00  0.00    +0.000 OA
ATOM     12  C   UNL     1       5.403   3.521  12.730  0.00  0.00    +0.000 C 
ENDBRANCH   5  11
BRANCH   7  13
ATOM     13  O   UNL     1       7.902   6.318  17.327  0.00  0.00    +0.000 OA
ATOM     14  C   UNL     1       7.638   7.691  17.548  0.00  0.00    +0.000 C 
ENDBRANCH   7  13
BRANCH   1  15
ATOM     15  C   UNL     1       2.598   5.382  18.962  0.00  0.00    +0.000 C 
BRANCH  15  16
ATOM     16  N   UNL     1       2.824   6.867  19.083  0.00  0.00    +0.000 NA
ATOM     17  C   UNL     1       2.003   7.485  20.125  0.00  0.00    +0.000 C 
BRANCH  16  19
ATOM     18  C   UNL     1       2.066   8.949  17.881  0.00  0.00    +0.000 C 
ATOM     19  C   UNL     1       2.585   7.513  17.774  0.00  0.00    +0.000 C 
ENDBRANCH  16  19
ENDBRANCH  15  16
ENDBRANCH   1  15
BRANCH   1  20
ATOM     20  C   UNL     1       3.929   3.237  19.658  0.00  0.00    +0.000 C 
BRANCH  20  21
ATOM     21  N   UNL     1       2.739   2.490  20.156  0.00  0.00    +0.000 NA
ATOM     22  C   UNL     1       1.855   3.353  20.944  0.00  0.00    +0.000 C 
BRANCH  21  23
ATOM     23  C   UNL     1       2.017   1.922  18.988  0.00  0.00    +0.000 C 
ATOM     24  C   UNL     1       0.580   2.417  18.831  0.00  0.00    +0.000 C 
ENDBRANCH  21  23
ENDBRANCH  20  21
ENDBRANCH   1  20
TORSDOF 8
ENDMDL
MODEL 4
REMARK VINA RESULT:      -6.2      0.981      1.338
REMARK  Name = 
REMARK  14 active torsions:
REMARK  status: ('A' for Active; 'I' for Inactive)
REMARK    1  A    between atoms: C_1  and  C_2
REMARK    2  A    between atoms: C_2  and  N_3
REMARK    3  A    between atoms: N_3  and  C_4
REMARK    4  A    between atoms: N_3  and  C_5
REMARK    5  A    between atoms: C_5  and  C_6
REMARK    6  A    between atoms: C_6  and  C_7
REMARK    7  A    between atoms: C_7  and  N_8
REMARK    8  A    between atoms: N_8  and  C_9
REMARK    9  A    between atoms: N_8  and  C_10
REMARK   10  A    between atoms: C_10  and  C_11
REMARK   11  A    between atoms: C_15  and  O_16
REMARK   12  A    between atoms: O_16  and  C_17
REMARK   13  A    between atoms: C_19  and  O_20
REMARK   14  A    between atoms: O_20  and  C_21
REMARK                            x       y       z     vdW  Elec       q    Type
REMARK                         _______ _______ _______ _____ _____    ______ ____
ROOT
ATOM      1  C   UNL     1       3.257   4.770  18.135  0.00  0.00    +0.000 C 
ATOM      2  O   UNL     1       3.435   4.452  16.732  0.00  0.00    +0.000 OA
ATOM      3  C   UNL     1       4.753   4.701  16.444  0.00  0.00    +0.000 A 
ATOM      4  C   UNL     1       5.278   4.449  15.186  0.00  0.00    +0.000 A 
ATOM      5  C   UNL     1       6.623   4.737  14.964  0.00  0.00    +0.000 A 
ATOM      6  C   UNL     1       7.387   5.305  15.991  0.00  0.00    +0.000 A 
ATOM      7  C   UNL     1       6.851   5.561  17.267  0.00  0.00    +0.000 A 
ATOM      8  C   UNL     1       5.529   5.211  17.477  0.00  0.00    +0.000 A 
ATOM      9  C   UNL     1       4.617   5.246  18.605  0.00  0.00    +0.000 C 
ATOM     10  O   UNL     1       4.887   5.558  19.752  0.00  0.00    +0.000 OA
ENDROOT
BRANCH   5  11
ATOM     11  O   UNL     1       7.085   4.425  13.711  0.00  0.00    +0.000 OA
ATOM     12  C   UNL     1       6.220   3.662  12.881  0.00  0.00    +0.000 C 
ENDBRANCH   5  11
BRANCH   7  13
ATOM     13  O   UNL     1       7.775   6.130  18.092  0.00  0.00    +0.000 OA
ATOM     14  C   UNL     1       8.113   5.498  19.313  0.00  0.00    +0.000 C 
ENDBRANCH   7  13
BRANCH   1  15
ATOM     15  C   UNL     1       2.158   5.860  18.347  0.00  0.00    +0.000 C 
BRANCH  15  16
ATOM     16  N   UNL     1       2.533   7.253  18.779  0.00  0.00    +0.000 NA
ATOM     17  C   UNL     1       1.928   7.637  20.056  0.00  0.00    +0.000 C 
BRANCH  16  19
ATOM     18  C   UNL     1       1.464   9.471  18.235  0.00  0.00    +0.000 C 
ATOM     19  C   UNL     1       2.170   8.216  17.716  0.00  0.00    +0.000 C 
ENDBRANCH  16  19
ENDBRANCH  15  16
ENDBRANCH   1  15
BRANCH   1  20
ATOM     20  C   UNL     1       2.999   3.456  18.957  0.00  0.00    +0.000 C 
BRANCH  20  21
ATOM     21  N   UNL     1       2.287   3.485  20.268  0.00  0.00    +0.000 NA
ATOM     22  C   UNL     1       0.911   2.997  20.141  0.00  0.00    +0.000 C 
BRANCH  21  23
ATOM     23  C   UNL     1       3.052   2.659  21.237  0.00  0.00    +0.000 C 
ATOM     24  C   UNL     1       4.347   2.069  20.682  0.00  0.00    +0.000 C 
ENDBRANCH  21  23
ENDBRANCH  20  21
ENDBRANCH   1  20
TORSDOF 8
ENDMDL
MODEL 5
REMARK VINA RESULT:      -6.1      2.822      6.747
REMARK  Name = 
REMARK  14 active torsions:
REMARK  status: ('A' for Active; 'I' for Inactive)
REMARK    1  A    between atoms: C_1  and  C_2
REMARK    2  A    between atoms: C_2  and  N_3
REMARK    3  A    between atoms: N_3  and  C_4
REMARK    4  A    between atoms: N_3  and  C_5
REMARK    5  A    between atoms: C_5  and  C_6
REMARK    6  A    between atoms: C_6  and  C_7
REMARK    7  A    between atoms: C_7  and  N_8
REMARK    8  A    between atoms: N_8  and  C_9
REMARK    9  A    between atoms: N_8  and  C_10
REMARK   10  A    between atoms: C_10  and  C_11
REMARK   11  A    between atoms: C_15  and  O_16
REMARK   12  A    between atoms: O_16  and  C_17
REMARK   13  A    between atoms: C_19  and  O_20
REMARK   14  A    between atoms: O_20  and  C_21
REMARK                            x       y       z     vdW  Elec       q    Type
REMARK                         _______ _______ _______ _____ _____    ______ ____
ROOT
ATOM      1  C   UNL     1       2.707   6.153  18.640  0.00  0.00    +0.000 C 
ATOM      2  O   UNL     1       2.497   7.323  17.812  0.00  0.00    +0.000 OA
ATOM      3  C   UNL     1       1.962   8.285  18.632  0.00  0.00    +0.000 A 
ATOM      4  C   UNL     1       1.685   9.560  18.165  0.00  0.00    +0.000 A 
ATOM      5  C   UNL     1       1.133  10.481  19.053  0.00  0.00    +0.000 A 
ATOM      6  C   UNL     1       0.836  10.085  20.363  0.00  0.00    +0.000 A 
ATOM      7  C   UNL     1       1.117   8.788  20.834  0.00  0.00    +0.000 A 
ATOM      8  C   UNL     1       1.719   7.913  19.948  0.00  0.00    +0.000 A 
ATOM      9  C   UNL     1       2.213   6.550  20.016  0.00  0.00    +0.000 C 
ATOM     10  O   UNL     1       2.272   5.845  21.008  0.00  0.00    +0.000 OA
ENDROOT
BRANCH   5  11
ATOM     11  O   UNL     1       0.923  11.733  18.536  0.00  0.00    +0.000 OA
ATOM     12  C   UNL     1      -0.391  12.262  18.652  0.00  0.00    +0.000 C 
ENDBRANCH   5  11
BRANCH   7  13
ATOM     13  O   UNL     1       0.726   8.632  22.130  0.00  0.00    +0.000 OA
ATOM     14  C   UNL     1      -0.384   9.360  22.625  0.00  0.00    +0.000 C 
ENDBRANCH   7  13
BRANCH   1  15
ATOM     15  C   UNL     1       1.941   4.908  18.088  0.00  0.00    +0.000 C 
BRANCH  15  16
ATOM     16  N   UNL     1       2.241   3.528  18.613  0.00  0.00    +0.000 NA
ATOM     17  C   UNL     1       2.672   2.602  17.564  0.00  0.00    +0.000 C 
BRANCH  16  19
ATOM     18  C   UNL     1       1.303   2.720  20.810  0.00  0.00    +0.000 C 
ATOM     19  C   UNL     1       1.057   3.000  19.325  0.00  0.00    +0.000 C 
ENDBRANCH  16  19
ENDBRANCH  15  16
ENDBRANCH   1  15
BRANCH   1  20
ATOM     20  C   UNL     1       4.246   5.900  18.836  0.00  0.00    +0.000 C 
BRANCH  20  21
ATOM     21  N   UNL     1       5.117   5.481  17.700  0.00  0.00    +0.000 NA
ATOM     22  C   UNL     1       5.715   6.639  17.029  0.00  0.00    +0.000 C 
BRANCH  21  23
ATOM     23  C   UNL     1       6.171   4.574  18.225  0.00  0.00    +0.000 C 
ATOM     24  C   UNL     1       7.482   4.608  17.442  0.00  0.00    +0.000 C 
ENDBRANCH  21  23
ENDBRANCH  20  21
ENDBRANCH   1  20
TORSDOF 8
ENDMDL
MODEL 6
REMARK VINA RESULT:      -6.0      1.265      4.570
REMARK  Name = 
REMARK  14 active torsions:
REMARK  status: ('A' for Active; 'I' for Inactive)
REMARK    1  A    between atoms: C_1  and  C_2
REMARK    2  A    between atoms: C_2  and  N_3
REMARK    3  A    between atoms: N_3  and  C_4
REMARK    4  A    between atoms: N_3  and  C_5
REMARK    5  A    between atoms: C_5  and  C_6
REMARK    6  A    between atoms: C_6  and  C_7
REMARK    7  A    between atoms: C_7  and  N_8
REMARK    8  A    between atoms: N_8  and  C_9
REMARK    9  A    between atoms: N_8  and  C_10
REMARK   10  A    between atoms: C_10  and  C_11
REMARK   11  A    between atoms: C_15  and  O_16
REMARK   12  A    between atoms: O_16  and  C_17
REMARK   13  A    between atoms: C_19  and  O_20
REMARK   14  A    between atoms: O_20  and  C_21
REMARK                            x       y       z     vdW  Elec       q    Type
REMARK                         _______ _______ _______ _____ _____    ______ ____
ROOT
ATOM      1  C   UNL     1       3.499   4.859  19.176  0.00  0.00    +0.000 C 
ATOM      2  O   UNL     1       4.674   5.657  19.462  0.00  0.00    +0.000 OA
ATOM      3  C   UNL     1       5.350   5.788  18.275  0.00  0.00    +0.000 A 
ATOM      4  C   UNL     1       6.507   6.545  18.181  0.00  0.00    +0.000 A 
ATOM      5  C   UNL     1       7.145   6.623  16.945  0.00  0.00    +0.000 A 
ATOM      6  C   UNL     1       6.631   5.909  15.856  0.00  0.00    +0.000 A 
ATOM      7  C   UNL     1       5.456   5.138  15.955  0.00  0.00    +0.000 A 
ATOM      8  C   UNL     1       4.811   5.126  17.178  0.00  0.00    +0.000 A 
ATOM      9  C   UNL     1       3.593   4.534  17.699  0.00  0.00    +0.000 C 
ATOM     10  O   UNL     1       2.754   3.917  17.067  0.00  0.00    +0.000 OA
ENDROOT
BRANCH   5  11
ATOM     11  O   UNL     1       8.259   7.421  16.915  0.00  0.00    +0.000 OA
ATOM     12  C   UNL     1       8.247   8.569  17.753  0.00  0.00    +0.000 C 
ENDBRANCH   5  11
BRANCH   7  13
ATOM     13  O   UNL     1       5.162   4.523  14.774  0.00  0.00    +0.000 OA
ATOM     14  C   UNL     1       6.207   4.034  13.954  0.00  0.00    +0.000 C 
ENDBRANCH   7  13
BRANCH   1  15
ATOM     15  C   UNL     1       3.451   3.565  20.050  0.00  0.00    +0.000 C 
BRANCH  15  16
ATOM     16  N   UNL     1       2.134   3.008  20.524  0.00  0.00    +0.000 NA
ATOM     17  C   UNL     1       2.168   2.574  21.922  0.00  0.00    +0.000 C 
BRANCH  16  19
ATOM     18  C   UNL     1       0.512   2.225  18.758  0.00  0.00    +0.000 C 
ATOM     19  C   UNL     1       1.720   1.896  19.640  0.00  0.00    +0.000 C 
ENDBRANCH  16  19
ENDBRANCH  15  16
ENDBRANCH   1  15
BRANCH   1  20
ATOM     20  C   UNL     1       2.205   5.742  19.299  0.00  0.00    +0.000 C 
BRANCH  20  21
ATOM     21  N   UNL     1       2.270   7.161  19.752  0.00  0.00    +0.000 NA
ATOM     22  C   UNL     1       2.044   8.090  18.641  0.00  0.00    +0.000 C 
BRANCH  21  23
ATOM     23  C   UNL     1       1.257   7.362  20.821  0.00  0.00    +0.000 C 
ATOM     24  C   UNL     1       1.021   8.822  21.203  0.00  0.00    +0.000 C 
ENDBRANCH  21  23
ENDBRANCH  20  21
ENDBRANCH   1  20
TORSDOF 8
ENDMDL
MODEL 7
REMARK VINA RESULT:      -6.0      2.401      6.418
REMARK  Name = 
REMARK  14 active torsions:
REMARK  status: ('A' for Active; 'I' for Inactive)
REMARK    1  A    between atoms: C_1  and  C_2
REMARK    2  A    between atoms: C_2  and  N_3
REMARK    3  A    between atoms: N_3  and  C_4
REMARK    4  A    between atoms: N_3  and  C_5
REMARK    5  A    between atoms: C_5  and  C_6
REMARK    6  A    between atoms: C_6  and  C_7
REMARK    7  A    between atoms: C_7  and  N_8
REMARK    8  A    between atoms: N_8  and  C_9
REMARK    9  A    between atoms: N_8  and  C_10
REMARK   10  A    between atoms: C_10  and  C_11
REMARK   11  A    between atoms: C_15  and  O_16
REMARK   12  A    between atoms: O_16  and  C_17
REMARK   13  A    between atoms: C_19  and  O_20
REMARK   14  A    between atoms: O_20  and  C_21
REMARK                            x       y       z     vdW  Elec       q    Type
REMARK                         _______ _______ _______ _____ _____    ______ ____
ROOT
ATOM      1  C   UNL     1       5.537   5.368  16.887  0.00  0.00    +0.000 C 
ATOM      2  O   UNL     1       4.745   6.553  16.629  0.00  0.00    +0.000 OA
ATOM      3  C   UNL     1       3.879   6.677  17.687  0.00  0.00    +0.000 A 
ATOM      4  C   UNL     1       3.004   7.747  17.784  0.00  0.00    +0.000 A 
ATOM      5  C   UNL     1       2.147   7.801  18.882  0.00  0.00    +0.000 A 
ATOM      6  C   UNL     1       2.164   6.763  19.822  0.00  0.00    +0.000 A 
ATOM      7  C   UNL     1       3.052   5.675  19.719  0.00  0.00    +0.000 A 
ATOM      8  C   UNL     1       3.932   5.679  18.652  0.00  0.00    +0.000 A 
ATOM      9  C   UNL     1       5.012   4.821  18.199  0.00  0.00    +0.000 C 
ATOM     10  O   UNL     1       5.464   3.850  18.780  0.00  0.00    +0.000 OA
ENDROOT
BRANCH   5  11
ATOM     11  O   UNL     1       1.339   8.906  18.935  0.00  0.00    +0.000 OA
ATOM     12  C   UNL     1       1.678   9.990  18.081  0.00  0.00    +0.000 C 
ENDBRANCH   5  11
BRANCH   7  13
ATOM     13  O   UNL     1       2.872   4.786  20.737  0.00  0.00    +0.000 OA
ATOM     14  C   UNL     1       1.671   4.040  20.817  0.00  0.00    +0.000 C 
ENDBRANCH   7  13
BRANCH   1  15
ATOM     15  C   UNL     1       5.409   4.323  15.733  0.00  0.00    +0.000 C 
BRANCH  15  16
ATOM     16  N   UNL     1       5.802   4.684  14.324  0.00  0.00    +0.000 NA
ATOM     17  C   UNL     1       5.201   3.802  13.321  0.00  0.00    +0.000 C 
BRANCH  16  19
ATOM     18  C   UNL     1       7.789   5.244  12.877  0.00  0.00    +0.000 C 
ATOM     19  C   UNL     1       7.277   4.684  14.206  0.00  0.00    +0.000 C 
ENDBRANCH  16  19
ENDBRANCH  15  16
ENDBRANCH   1  15
BRANCH   1  20
ATOM     20  C   UNL     1       7.024   5.771  17.200  0.00  0.00    +0.000 C 
BRANCH  20  21
ATOM     21  N   UNL     1       7.350   6.838  18.189  0.00  0.00    +0.000 NA
ATOM     22  C   UNL     1       8.275   6.352  19.217  0.00  0.00    +0.000 C 
BRANCH  21  23
ATOM     23  C   UNL     1       7.932   7.994  17.459  0.00  0.00    +0.000 C 
ATOM     24  C   UNL     1       8.434   9.122  18.359  0.00  0.00    +0.000 C 
ENDBRANCH  21  23
ENDBRANCH  20  21
ENDBRANCH   1  20
TORSDOF 8
ENDMDL
MODEL 8
REMARK VINA RESULT:      -6.0      1.338      1.719
REMARK  Name = 
REMARK  14 active torsions:
REMARK  status: ('A' for Active; 'I' for Inactive)
REMARK    1  A    between atoms: C_1  and  C_2
REMARK    2  A    between atoms: C_2  and  N_3
REMARK    3  A    between atoms: N_3  and  C_4
REMARK    4  A    between atoms: N_3  and  C_5
REMARK    5  A    between atoms: C_5  and  C_6
REMARK    6  A    between atoms: C_6  and  C_7
REMARK    7  A    between atoms: C_7  and  N_8
REMARK    8  A    between atoms: N_8  and  C_9
REMARK    9  A    between atoms: N_8  and  C_10
REMARK   10  A    between atoms: C_10  and  C_11
REMARK   11  A    between atoms: C_15  and  O_16
REMARK   12  A    between atoms: O_16  and  C_17
REMARK   13  A    between atoms: C_19  and  O_20
REMARK   14  A    between atoms: O_20  and  C_21
REMARK                            x       y       z     vdW  Elec       q    Type
REMARK                         _______ _______ _______ _____ _____    ______ ____
ROOT
ATOM      1  C   UNL     1       3.515   5.118  18.612  0.00  0.00    +0.000 C 
ATOM      2  O   UNL     1       3.542   5.273  17.172  0.00  0.00    +0.000 OA
ATOM      3  C   UNL     1       4.841   5.059  16.785  0.00  0.00    +0.000 A 
ATOM      4  C   UNL     1       5.210   5.080  15.449  0.00  0.00    +0.000 A 
ATOM      5  C   UNL     1       6.550   4.864  15.132  0.00  0.00    +0.000 A 
ATOM      6  C   UNL     1       7.481   4.677  16.160  0.00  0.00    +0.000 A 
ATOM      7  C   UNL     1       7.104   4.658  17.517  0.00  0.00    +0.000 A 
ATOM      8  C   UNL     1       5.759   4.815  17.799  0.00  0.00    +0.000 A 
ATOM      9  C   UNL     1       4.947   4.811  19.002  0.00  0.00    +0.000 C 
ATOM     10  O   UNL     1       5.323   4.562  20.134  0.00  0.00    +0.000 OA
ENDROOT
BRANCH   5  11
ATOM     11  O   UNL     1       6.836   4.859  13.791  0.00  0.00    +0.000 OA
ATOM     12  C   UNL     1       6.335   3.766  13.034  0.00  0.00    +0.000 C 
ENDBRANCH   5  11
BRANCH   7  13
ATOM     13  O   UNL     1       8.181   4.477  18.332  0.00  0.00    +0.000 OA
ATOM     14  C   UNL     1       8.443   5.405  19.370  0.00  0.00    +0.000 C 
ENDBRANCH   7  13
BRANCH   1  15
ATOM     15  C   UNL     1       2.986   6.404  19.324  0.00  0.00    +0.000 C 
BRANCH  15  16
ATOM     16  N   UNL     1       2.217   7.446  18.554  0.00  0.00    +0.000 NA
ATOM     17  C   UNL     1       3.056   8.197  17.618  0.00  0.00    +0.000 C 
BRANCH  16  19
ATOM     18  C   UNL     1       1.391   7.788  20.911  0.00  0.00    +0.000 C 
ATOM     19  C   UNL     1       1.537   8.359  19.499  0.00  0.00    +0.000 C 
ENDBRANCH  16  19
ENDBRANCH  15  16
ENDBRANCH   1  15
BRANCH   1  20
ATOM     20  C   UNL     1       2.720   3.819  19.000  0.00  0.00    +0.000 C 
BRANCH  20  21
ATOM     21  N   UNL     1       1.383   3.893  19.658  0.00  0.00    +0.000 NA
ATOM     22  C   UNL     1       0.518   2.786  19.239  0.00  0.00    +0.000 C 
BRANCH  21  23
ATOM     23  C   UNL     1       1.582   3.877  21.131  0.00  0.00    +0.000 C 
ATOM     24  C   UNL     1       1.556   2.484  21.757  0.00  0.00    +0.000 C 
ENDBRANCH  21  23
ENDBRANCH  20  21
ENDBRANCH   1  20
TORSDOF 8
ENDMDL
MODEL 9
REMARK VINA RESULT:      -6.0      2.439      6.449
REMARK  Name = 
REMARK  14 active torsions:
REMARK  status: ('A' for Active; 'I' for Inactive)
REMARK    1  A    between atoms: C_1  and  C_2
REMARK    2  A    between atoms: C_2  and  N_3
REMARK    3  A    between atoms: N_3  and  C_4
REMARK    4  A    between atoms: N_3  and  C_5
REMARK    5  A    between atoms: C_5  and  C_6
REMARK    6  A    between atoms: C_6  and  C_7
REMARK    7  A    between atoms: C_7  and  N_8
REMARK    8  A    between atoms: N_8  and  C_9
REMARK    9  A    between atoms: N_8  and  C_10
REMARK   10  A    between atoms: C_10  and  C_11
REMARK   11  A    between atoms: C_15  and  O_16
REMARK   12  A    between atoms: O_16  and  C_17
REMARK   13  A    between atoms: C_19  and  O_20
REMARK   14  A    between atoms: O_20  and  C_21
REMARK                            x       y       z     vdW  Elec       q    Type
REMARK                         _______ _______ _______ _____ _____    ______ ____
ROOT
ATOM      1  C   UNL     1       3.386   5.802  18.300  0.00  0.00    +0.000 C 
ATOM      2  O   UNL     1       3.147   6.977  17.487  0.00  0.00    +0.000 OA
ATOM      3  C   UNL     1       2.482   7.872  18.286  0.00  0.00    +0.000 A 
ATOM      4  C   UNL     1       2.142   9.136  17.831  0.00  0.00    +0.000 A 
ATOM      5  C   UNL     1       1.457   9.986  18.696  0.00  0.00    +0.000 A 
ATOM      6  C   UNL     1       1.097   9.532  19.970  0.00  0.00    +0.000 A 
ATOM      7  C   UNL     1       1.442   8.246  20.430  0.00  0.00    +0.000 A 
ATOM      8  C   UNL     1       2.173   7.445  19.572  0.00  0.00    +0.000 A 
ATOM      9  C   UNL     1       2.764   6.122  19.645  0.00  0.00    +0.000 C 
ATOM     10  O   UNL     1       2.805   5.394  20.622  0.00  0.00    +0.000 OA
ENDROOT
BRANCH   5  11
ATOM     11  O   UNL     1       1.189  11.234  18.194  0.00  0.00    +0.000 OA
ATOM     12  C   UNL     1       0.221  12.008  18.887  0.00  0.00    +0.000 C 
ENDBRANCH   5  11
BRANCH   7  13
ATOM     13  O   UNL     1       0.971   8.024  21.690  0.00  0.00    +0.000 OA
ATOM     14  C   UNL     1       0.022   8.910  22.255  0.00  0.00    +0.000 C 
ENDBRANCH   7  13
BRANCH   1  15
ATOM     15  C   UNL     1       2.760   4.520  17.664  0.00  0.00    +0.000 C 
BRANCH  15  16
ATOM     16  N   UNL     1       2.656   3.243  18.457  0.00  0.00    +0.000 NA
ATOM     17  C   UNL     1       3.400   2.136  17.854  0.00  0.00    +0.000 C 
BRANCH  16  19
ATOM     18  C   UNL     1       0.761   2.917  20.088  0.00  0.00    +0.000 C 
ATOM     19  C   UNL     1       1.231   2.884  18.632  0.00  0.00    +0.000 C 
ENDBRANCH  16  19
ENDBRANCH  15  16
ENDBRANCH   1  15
BRANCH   1  20
ATOM     20  C   UNL     1       4.921   5.660  18.605  0.00  0.00    +0.000 C 
BRANCH  20  21
ATOM     21  N   UNL     1       5.952   5.971  17.573  0.00  0.00    +0.000 NA
ATOM     22  C   UNL     1       7.234   6.328  18.187  0.00  0.00    +0.000 C 
BRANCH  21  23
ATOM     23  C   UNL     1       6.103   4.786  16.688  0.00  0.00    +0.000 C 
ATOM     24  C   UNL     1       5.569   4.984  15.271  0.00  0.00    +0.000 C 
ENDBRANCH  21  23
ENDBRANCH  20  21
ENDBRANCH   1  20
TORSDOF 8
ENDMDL
