MODEL 1
REMARK VINA RESULT:      -8.5      0.000      0.000
REMARK  Name = 
REMARK  5 active torsions:
REMARK  status: ('A' for Active; 'I' for Inactive)
REMARK    1  A    between atoms: C_1  and  N_2
REMARK    2  A    between atoms: C_5  and  N_6
REMARK    3  A    between atoms: C_11  and  C_12
REMARK    4  A    between atoms: C_15  and  N_16
REMARK    5  A    between atoms: C_21  and  C_22
REMARK                            x       y       z     vdW  Elec       q    Type
REMARK                         _______ _______ _______ _____ _____    ______ ____
ROOT
ATOM      1  N   UNL     1       5.388   4.258  18.945  0.00  0.00    +0.000 N 
ATOM      2  C   UNL     1       4.105   4.463  19.450  0.00  0.00    +0.000 A 
ATOM      3  N   UNL     1       3.491   3.398  19.983  0.00  0.00    +0.000 NA
ATOM      4  C   UNL     1       2.306   3.615  20.582  0.00  0.00    +0.000 A 
ATOM      5  C   UNL     1       1.697   4.846  20.647  0.00  0.00    +0.000 A 
ATOM      6  C   UNL     1       2.367   5.885  20.038  0.00  0.00    +0.000 A 
ATOM      7  N   UNL     1       3.562   5.692  19.451  0.00  0.00    +0.000 NA
ATOM      8  H   UNL     1       5.662   3.301  19.116  0.00  0.00    +0.000 HD
ENDROOT
BRANCH   1  13
ATOM      9  C   UNL     1       7.947   8.111  17.520  0.00  0.00    +0.000 C 
ATOM     10  N   UNL     1       7.535   6.883  18.149  0.00  0.00    +0.000 N 
ATOM     11  C   UNL     1       8.142   6.242  19.188  0.00  0.00    +0.000 A 
ATOM     12  N   UNL     1       7.455   5.183  19.566  0.00  0.00    +0.000 NA
ATOM     13  C   UNL     1       6.358   5.162  18.751  0.00  0.00    +0.000 A 
ATOM     14  C   UNL     1       6.416   6.177  17.828  0.00  0.00    +0.000 A 
ENDBRANCH   1  13
BRANCH   6  15
ATOM     15  C   UNL     1       1.864   7.274  19.987  0.00  0.00    +0.000 A 
ATOM     16  C   UNL     1       1.905   8.046  18.826  0.00  0.00    +0.000 A 
ATOM     17  C   UNL     1       1.420   9.364  18.806  0.00  0.00    +0.000 A 
ATOM     18  C   UNL     1       0.868   9.994  19.939  0.00  0.00    +0.000 A 
ATOM     19  C   UNL     1       0.854   9.225  21.124  0.00  0.00    +0.000 A 
ATOM     20  C   UNL     1       1.337   7.896  21.130  0.00  0.00    +0.000 A 
BRANCH  18  21
ATOM     21  N   UNL     1       0.353  11.282  19.862  0.00  0.00    +0.000 N 
ATOM     22  C   UNL     1      -1.008  11.588  19.406  0.00  0.00    +0.000 C 
ATOM     23  C   UNL     1      -0.815  12.670  18.356  0.00  0.00    +0.000 C 
ATOM     24  C   UNL     1       0.348  13.470  18.915  0.00  0.00    +0.000 C 
ATOM     25  C   UNL     1       1.249  12.412  19.553  0.00  0.00    +0.000 C 
ENDBRANCH  18  21
BRANCH  19  26
ATOM     26  C   UNL     1       0.313   9.715  22.365  0.00  0.00    +0.000 C 
ATOM     27  N   UNL     1      -0.168  10.148  23.331  0.00  0.00    +0.000 NA
ENDBRANCH  19  26
ENDBRANCH   6  15
TORSDOF 4
ENDMDL
MODEL 2
REMARK VINA RESULT:      -8.0      1.447      1.815
REMARK  Name = 
REMARK  5 active torsions:
REMARK  status: ('A' for Active; 'I' for Inactive)
REMARK    1  A    between atoms: C_1  and  N_2
REMARK    2  A    between atoms: C_5  and  N_6
REMARK    3  A    between atoms: C_11  and  C_12
REMARK    4  A    between atoms: C_15  and  N_16
REMARK    5  A    between atoms: C_21  and  C_22
REMARK                            x       y       z     vdW  Elec       q    Type
REMARK                         _______ _______ _______ _____ _____    ______ ____
ROOT
ATOM      1  N   UNL     1       4.583   3.156  18.467  0.00  0.00    +0.000 N 
ATOM      2  C   UNL     1       3.623   3.770  19.269  0.00  0.00    +0.000 A 
ATOM      3  N   UNL     1       3.159   3.057  20.305  0.00  0.00    +0.000 NA
ATOM      4  C   UNL     1       2.326   3.685  21.154  0.00  0.00    +0.000 A 
ATOM      5  C   UNL     1       1.916   4.988  20.997  0.00  0.00    +0.000 A 
ATOM      6  C   UNL     1       2.399   5.644  19.885  0.00  0.00    +0.000 A 
ATOM      7  N   UNL     1       3.249   5.039  19.035  0.00  0.00    +0.000 NA
ATOM      8  H   UNL     1       4.804   2.249  18.850  0.00  0.00    +0.000 HD
ENDROOT
BRANCH   1  13
ATOM      9  C   UNL     1       6.889   5.084  14.673  0.00  0.00    +0.000 C 
ATOM     10  N   UNL     1       6.551   4.623  15.995  0.00  0.00    +0.000 N 
ATOM     11  C   UNL     1       7.171   4.943  17.166  0.00  0.00    +0.000 A 
ATOM     12  N   UNL     1       6.554   4.405  18.199  0.00  0.00    +0.000 NA
ATOM     13  C   UNL     1       5.488   3.734  17.666  0.00  0.00    +0.000 A 
ATOM     14  C   UNL     1       5.499   3.812  16.295  0.00  0.00    +0.000 A 
ENDBRANCH   1  13
BRANCH   6  15
ATOM     15  C   UNL     1       2.058   7.039  19.536  0.00  0.00    +0.000 A 
ATOM     16  C   UNL     1       2.213   7.552  18.248  0.00  0.00    +0.000 A 
ATOM     17  C   UNL     1       1.880   8.883  17.946  0.00  0.00    +0.000 A 
ATOM     18  C   UNL     1       1.377   9.784  18.905  0.00  0.00    +0.000 A 
ATOM     19  C   UNL     1       1.249   9.276  20.217  0.00  0.00    +0.000 A 
ATOM     20  C   UNL     1       1.579   7.932  20.508  0.00  0.00    +0.000 A 
BRANCH  18  21
ATOM     21  N   UNL     1       1.012  11.077  18.550  0.00  0.00    +0.000 N 
ATOM     22  C   UNL     1       1.859  12.252  18.779  0.00  0.00    +0.000 C 
ATOM     23  C   UNL     1       0.939  13.246  19.469  0.00  0.00    +0.000 C 
ATOM     24  C   UNL     1      -0.396  12.985  18.795  0.00  0.00    +0.000 C 
ATOM     25  C   UNL     1      -0.409  11.470  18.579  0.00  0.00    +0.000 C 
ENDBRANCH  18  21
BRANCH  19  26
ATOM     26  C   UNL     1       0.739  10.061  21.310  0.00  0.00    +0.000 C 
ATOM     27  N   UNL     1       0.289  10.640  22.213  0.00  0.00    +0.000 NA
ENDBRANCH  19  26
ENDBRANCH   6  15
TORSDOF 4
ENDMDL
MODEL 3
REMARK VINA RESULT:      -7.9      0.821      1.203
REMARK  Name = 
REMARK  5 active torsions:
REMARK  status: ('A' for Active; 'I' for Inactive)
REMARK    1  A    between atoms: C_1  and  N_2
REMARK    2  A    between atoms: C_5  and  N_6
REMARK    3  A    between atoms: C_11  and  C_12
REMARK    4  A    between atoms: C_15  and  N_16
REMARK    5  A    between atoms: C_21  and  C_22
REMARK                            x       y       z     vdW  Elec       q    Type
REMARK                         _______ _______ _______ _____ _____    ______ ____
ROOT
ATOM      1  N   UNL     1       5.513   4.464  18.375  0.00  0.00    +0.000 N 
ATOM      2  C   UNL     1       4.204   4.586  18.839  0.00  0.00    +0.000 A 
ATOM      3  N   UNL     1       3.575   3.449  19.168  0.00  0.00    +0.000 NA
ATOM      4  C   UNL     1       2.360   3.566  19.732  0.00  0.00    +0.000 A 
ATOM      5  C   UNL     1       1.735   4.770  19.956  0.00  0.00    +0.000 A 
ATOM      6  C   UNL     1       2.424   5.893  19.551  0.00  0.00    +0.000 A 
ATOM      7  N   UNL     1       3.650   5.798  19.003  0.00  0.00    +0.000 NA
ATOM      8  H   UNL     1       5.788   3.494  18.409  0.00  0.00    +0.000 HD
ENDROOT
BRANCH   1  13
ATOM      9  C   UNL     1       8.119   8.479  17.655  0.00  0.00    +0.000 C 
ATOM     10  N   UNL     1       7.677   7.180  18.089  0.00  0.00    +0.000 N 
ATOM     11  C   UNL     1       8.211   6.414  19.083  0.00  0.00    +0.000 A 
ATOM     12  N   UNL     1       7.513   5.312  19.268  0.00  0.00    +0.000 NA
ATOM     13  C   UNL     1       6.482   5.390  18.373  0.00  0.00    +0.000 A 
ATOM     14  C   UNL     1       6.596   6.515  17.594  0.00  0.00    +0.000 A 
ENDBRANCH   1  13
BRANCH   6  15
ATOM     15  C   UNL     1       1.909   7.272  19.690  0.00  0.00    +0.000 A 
ATOM     16  C   UNL     1       1.865   8.169  18.623  0.00  0.00    +0.000 A 
ATOM     17  C   UNL     1       1.371   9.475  18.785  0.00  0.00    +0.000 A 
ATOM     18  C   UNL     1       0.895   9.967  20.015  0.00  0.00    +0.000 A 
ATOM     19  C   UNL     1       0.969   9.070  21.105  0.00  0.00    +0.000 A 
ATOM     20  C   UNL     1       1.460   7.756  20.929  0.00  0.00    +0.000 A 
BRANCH  18  21
ATOM     21  N   UNL     1       0.367  11.248  20.118  0.00  0.00    +0.000 N 
ATOM     22  C   UNL     1       1.020  12.340  20.847  0.00  0.00    +0.000 C 
ATOM     23  C   UNL     1      -0.073  12.892  21.749  0.00  0.00    +0.000 C 
ATOM     24  C   UNL     1      -1.315  12.751  20.889  0.00  0.00    +0.000 C 
ATOM     25  C   UNL     1      -1.096  11.437  20.137  0.00  0.00    +0.000 C 
ENDBRANCH  18  21
BRANCH  19  26
ATOM     26  C   UNL     1       0.512   9.410  22.427  0.00  0.00    +0.000 C 
ATOM     27  N   UNL     1       0.170   9.748  23.486  0.00  0.00    +0.000 NA
ENDBRANCH  19  26
ENDBRANCH   6  15
TORSDOF 4
ENDMDL
MODEL 4
REMARK VINA RESULT:      -7.8      1.824      2.015
REMARK  Name = 
REMARK  5 active torsions:
REMARK  status: ('A' for Active; 'I' for Inactive)
REMARK    1  A    between atoms: C_1  and  N_2
REMARK    2  A    between atoms: C_5  and  N_6
REMARK    3  A    between atoms: C_11  and  C_12
REMARK    4  A    between atoms: C_15  and  N_16
REMARK    5  A    between atoms: C_21  and  C_22
REMARK                            x       y       z     vdW  Elec       q    Type
REMARK                         _______ _______ _______ _____ _____    ______ ____
ROOT
ATOM      1  N   UNL     1       4.339   3.347  17.609  0.00  0.00    +0.000 N 
ATOM      2  C   UNL     1       3.582   3.781  18.697  0.00  0.00    +0.000 A 
ATOM      3  N   UNL     1       3.401   2.901  19.692  0.00  0.00    +0.000 NA
ATOM      4  C   UNL     1       2.779   3.350  20.797  0.00  0.00    +0.000 A 
ATOM      5  C   UNL     1       2.308   4.634  20.939  0.00  0.00    +0.000 A 
ATOM      6  C   UNL     1       2.491   5.468  19.857  0.00  0.00    +0.000 A 
ATOM      7  N   UNL     1       3.128   5.043  18.751  0.00  0.00    +0.000 NA
ATOM      8  H   UNL     1       4.671   2.411  17.788  0.00  0.00    +0.000 HD
ENDROOT
BRANCH   1  13
ATOM      9  C   UNL     1       6.997   4.833  13.847  0.00  0.00    +0.000 C 
ATOM     10  N   UNL     1       6.180   4.799  15.032  0.00  0.00    +0.000 N 
ATOM     11  C   UNL     1       5.501   5.836  15.600  0.00  0.00    +0.000 A 
ATOM     12  N   UNL     1       4.790   5.436  16.634  0.00  0.00    +0.000 NA
ATOM     13  C   UNL     1       5.008   4.089  16.716  0.00  0.00    +0.000 A 
ATOM     14  C   UNL     1       5.910   3.682  15.764  0.00  0.00    +0.000 A 
ENDBRANCH   1  13
BRANCH   6  15
ATOM     15  C   UNL     1       2.036   6.874  19.813  0.00  0.00    +0.000 A 
ATOM     16  C   UNL     1       2.055   7.634  18.644  0.00  0.00    +0.000 A 
ATOM     17  C   UNL     1       1.617   8.970  18.632  0.00  0.00    +0.000 A 
ATOM     18  C   UNL     1       1.138   9.629  19.781  0.00  0.00    +0.000 A 
ATOM     19  C   UNL     1       1.148   8.871  20.973  0.00  0.00    +0.000 A 
ATOM     20  C   UNL     1       1.583   7.526  20.972  0.00  0.00    +0.000 A 
BRANCH  18  21
ATOM     21  N   UNL     1       0.667  10.934  19.712  0.00  0.00    +0.000 N 
ATOM     22  C   UNL     1      -0.751  11.280  19.568  0.00  0.00    +0.000 C 
ATOM     23  C   UNL     1      -0.779  12.264  18.409  0.00  0.00    +0.000 C 
ATOM     24  C   UNL     1       0.513  13.038  18.601  0.00  0.00    +0.000 C 
ATOM     25  C   UNL     1       1.503  11.983  19.099  0.00  0.00    +0.000 C 
ENDBRANCH  18  21
BRANCH  19  26
ATOM     26  C   UNL     1       0.679   9.391  22.231  0.00  0.00    +0.000 C 
ATOM     27  N   UNL     1       0.295   9.745  23.270  0.00  0.00    +0.000 NA
ENDBRANCH  19  26
ENDBRANCH   6  15
TORSDOF 4
ENDMDL
MODEL 5
REMARK VINA RESULT:      -7.7      1.084      1.116
REMARK  Name = 
REMARK  5 active torsions:
REMARK  status: ('A' for Active; 'I' for Inactive)
REMARK    1  A    between atoms: C_1  and  N_2
REMARK    2  A    between atoms: C_5  and  N_6
REMARK    3  A    between atoms: C_11  and  C_12
REMARK    4  A    between atoms: C_15  and  N_16
REMARK    5  A    between atoms: C_21  and  C_22
REMARK                            x       y       z     vdW  Elec       q    Type
REMARK                         _______ _______ _______ _____ _____    ______ ____
ROOT
ATOM      1  N   UNL     1       5.625   4.559  17.678  0.00  0.00    +0.000 N 
ATOM      2  C   UNL     1       4.259   4.689  17.925  0.00  0.00    +0.000 A 
ATOM      3  N   UNL     1       3.541   3.558  17.947  0.00  0.00    +0.000 NA
ATOM      4  C   UNL     1       2.249   3.662  18.306  0.00  0.00    +0.000 A 
ATOM      5  C   UNL     1       1.638   4.854  18.619  0.00  0.00    +0.000 A 
ATOM      6  C   UNL     1       2.428   5.980  18.531  0.00  0.00    +0.000 A 
ATOM      7  N   UNL     1       3.728   5.893  18.193  0.00  0.00    +0.000 NA
ATOM      8  H   UNL     1       5.855   3.579  17.596  0.00  0.00    +0.000 HD
ENDROOT
BRANCH   1  13
ATOM      9  C   UNL     1       8.439   8.470  18.130  0.00  0.00    +0.000 C 
ATOM     10  N   UNL     1       7.893   7.143  18.240  0.00  0.00    +0.000 N 
ATOM     11  C   UNL     1       8.236   6.179  19.141  0.00  0.00    +0.000 A 
ATOM     12  N   UNL     1       7.481   5.107  19.008  0.00  0.00    +0.000 NA
ATOM     13  C   UNL     1       6.611   5.408  17.998  0.00  0.00    +0.000 A 
ATOM     14  C   UNL     1       6.884   6.646  17.471  0.00  0.00    +0.000 A 
ENDBRANCH   1  13
BRANCH   6  15
ATOM     15  C   UNL     1       1.946   7.349  18.809  0.00  0.00    +0.000 A 
ATOM     16  C   UNL     1       1.782   8.306  17.808  0.00  0.00    +0.000 A 
ATOM     17  C   UNL     1       1.323   9.602  18.102  0.00  0.00    +0.000 A 
ATOM     18  C   UNL     1       1.002  10.023  19.407  0.00  0.00    +0.000 A 
ATOM     19  C   UNL     1       1.198   9.065  20.427  0.00  0.00    +0.000 A 
ATOM     20  C   UNL     1       1.652   7.762  20.119  0.00  0.00    +0.000 A 
BRANCH  18  21
ATOM     21  N   UNL     1       0.502  11.297  19.646  0.00  0.00    +0.000 N 
ATOM     22  C   UNL     1      -0.785  11.774  19.131  0.00  0.00    +0.000 C 
ATOM     23  C   UNL     1      -0.455  13.107  18.477  0.00  0.00    +0.000 C 
ATOM     24  C   UNL     1       0.624  13.664  19.388  0.00  0.00    +0.000 C 
ATOM     25  C   UNL     1       1.432  12.432  19.798  0.00  0.00    +0.000 C 
ENDBRANCH  18  21
BRANCH  19  26
ATOM     26  C   UNL     1       0.906   9.330  21.812  0.00  0.00    +0.000 C 
ATOM     27  N   UNL     1       0.731   9.515  22.946  0.00  0.00    +0.000 NA
ENDBRANCH  19  26
ENDBRANCH   6  15
TORSDOF 4
ENDMDL
MODEL 6
REMARK VINA RESULT:      -7.6      1.184      2.184
REMARK  Name = 
REMARK  5 active torsions:
REMARK  status: ('A' for Active; 'I' for Inactive)
REMARK    1  A    between atoms: C_1  and  N_2
REMARK    2  A    between atoms: C_5  and  N_6
REMARK    3  A    between atoms: C_11  and  C_12
REMARK    4  A    between atoms: C_15  and  N_16
REMARK    5  A    between atoms: C_21  and  C_22
REMARK                            x       y       z     vdW  Elec       q    Type
REMARK                         _______ _______ _______ _____ _____    ______ ____
ROOT
ATOM      1  N   UNL     1       5.435   3.999  18.906  0.00  0.00    +0.000 N 
ATOM      2  C   UNL     1       4.176   4.103  19.495  0.00  0.00    +0.000 A 
ATOM      3  N   UNL     1       3.663   2.982  20.019  0.00  0.00    +0.000 NA
ATOM      4  C   UNL     1       2.507   3.099  20.697  0.00  0.00    +0.000 A 
ATOM      5  C   UNL     1       1.829   4.286  20.851  0.00  0.00    +0.000 A 
ATOM      6  C   UNL     1       2.395   5.388  20.247  0.00  0.00    +0.000 A 
ATOM      7  N   UNL     1       3.561   5.294  19.581  0.00  0.00    +0.000 NA
ATOM      8  H   UNL     1       5.777   3.056  19.020  0.00  0.00    +0.000 HD
ENDROOT
BRANCH   1  13
ATOM      9  C   UNL     1       7.686   8.020  17.425  0.00  0.00    +0.000 C 
ATOM     10  N   UNL     1       7.374   6.769  18.065  0.00  0.00    +0.000 N 
ATOM     11  C   UNL     1       8.044   6.177  19.095  0.00  0.00    +0.000 A 
ATOM     12  N   UNL     1       7.441   5.073  19.488  0.00  0.00    +0.000 NA
ATOM     13  C   UNL     1       6.335   4.969  18.692  0.00  0.00    +0.000 A 
ATOM     14  C   UNL     1       6.303   5.982  17.766  0.00  0.00    +0.000 A 
ENDBRANCH   1  13
BRANCH   6  15
ATOM     15  C   UNL     1       1.806   6.743  20.284  0.00  0.00    +0.000 A 
ATOM     16  C   UNL     1       0.906   7.144  21.272  0.00  0.00    +0.000 A 
ATOM     17  C   UNL     1       0.361   8.440  21.282  0.00  0.00    +0.000 A 
ATOM     18  C   UNL     1       0.676   9.411  20.311  0.00  0.00    +0.000 A 
ATOM     19  C   UNL     1       1.562   8.997  19.293  0.00  0.00    +0.000 A 
ATOM     20  C   UNL     1       2.111   7.694  19.296  0.00  0.00    +0.000 A 
BRANCH  18  21
ATOM     21  N   UNL     1       0.153  10.696  20.390  0.00  0.00    +0.000 N 
ATOM     22  C   UNL     1       0.320  11.572  21.554  0.00  0.00    +0.000 C 
ATOM     23  C   UNL     1      -1.089  12.052  21.865  0.00  0.00    +0.000 C 
ATOM     24  C   UNL     1      -1.705  12.187  20.484  0.00  0.00    +0.000 C 
ATOM     25  C   UNL     1      -1.110  11.016  19.699  0.00  0.00    +0.000 C 
ENDBRANCH  18  21
BRANCH  19  26
ATOM     26  C   UNL     1       1.996   9.870  18.234  0.00  0.00    +0.000 C 
ATOM     27  N   UNL     1       2.283  10.570  17.351  0.00  0.00    +0.000 NA
ENDBRANCH  19  26
ENDBRANCH   6  15
TORSDOF 4
ENDMDL
MODEL 7
REMARK VINA RESULT:      -7.6      2.417      8.167
REMARK  Name = 
REMARK  5 active torsions:
REMARK  status: ('A' for Active; 'I' for Inactive)
REMARK    1  A    between atoms: C_1  and  N_2
REMARK    2  A    between atoms: C_5  and  N_6
REMARK    3  A    between atoms: C_11  and  C_12
REMARK    4  A    between atoms: C_15  and  N_16
REMARK    5  A    between atoms: C_21  and  C_22
REMARK                            x       y       z     vdW  Elec       q    Type
REMARK                         _______ _______ _______ _____ _____    ______ ____
ROOT
ATOM      1  N   UNL     1      -1.902  11.570  18.783  0.00  0.00    +0.000 N 
ATOM      2  C   UNL     1      -0.956  11.073  19.678  0.00  0.00    +0.000 A 
ATOM      3  N   UNL     1      -0.911  11.648  20.887  0.00  0.00    +0.000 NA
ATOM      4  C   UNL     1      -0.089  11.094  21.796  0.00  0.00    +0.000 A 
ATOM      5  C   UNL     1       0.710  10.005  21.539  0.00  0.00    +0.000 A 
ATOM      6  C   UNL     1       0.643   9.495  20.260  0.00  0.00    +0.000 A 
ATOM      7  N   UNL     1      -0.188  10.023  19.343  0.00  0.00    +0.000 NA
ATOM      8  H   UNL     1      -2.445  12.287  19.240  0.00  0.00    +0.000 HD
ENDROOT
BRANCH   1  13
ATOM      9  C   UNL     1      -3.016  10.158  14.289  0.00  0.00    +0.000 C 
ATOM     10  N   UNL     1      -2.958  10.283  15.722  0.00  0.00    +0.000 N 
ATOM     11  C   UNL     1      -3.425   9.399  16.650  0.00  0.00    +0.000 A 
ATOM     12  N   UNL     1      -3.137   9.791  17.874  0.00  0.00    +0.000 NA
ATOM     13  C   UNL     1      -2.441  10.958  17.720  0.00  0.00    +0.000 A 
ATOM     14  C   UNL     1      -2.366  11.309  16.395  0.00  0.00    +0.000 A 
ENDBRANCH   1  13
BRANCH   6  15
ATOM     15  C   UNL     1       1.439   8.341  19.789  0.00  0.00    +0.000 A 
ATOM     16  C   UNL     1       2.167   8.366  18.599  0.00  0.00    +0.000 A 
ATOM     17  C   UNL     1       2.914   7.253  18.176  0.00  0.00    +0.000 A 
ATOM     18  C   UNL     1       2.981   6.052  18.908  0.00  0.00    +0.000 A 
ATOM     19  C   UNL     1       2.219   6.014  20.097  0.00  0.00    +0.000 A 
ATOM     20  C   UNL     1       1.477   7.141  20.518  0.00  0.00    +0.000 A 
BRANCH  18  21
ATOM     21  N   UNL     1       3.774   4.995  18.478  0.00  0.00    +0.000 N 
ATOM     22  C   UNL     1       5.221   4.921  18.703  0.00  0.00    +0.000 C 
ATOM     23  C   UNL     1       5.796   4.608  17.330  0.00  0.00    +0.000 C 
ATOM     24  C   UNL     1       4.742   3.694  16.730  0.00  0.00    +0.000 C 
ATOM     25  C   UNL     1       3.421   4.270  17.243  0.00  0.00    +0.000 C 
ENDBRANCH  18  21
BRANCH  19  26
ATOM     26  C   UNL     1       2.187   4.867  20.967  0.00  0.00    +0.000 C 
ATOM     27  N   UNL     1       2.209   3.911  21.628  0.00  0.00    +0.000 NA
ENDBRANCH  19  26
ENDBRANCH   6  15
TORSDOF 4
ENDMDL
MODEL 8
REMARK VINA RESULT:      -7.5      1.908      2.226
REMARK  Name = 
REMARK  5 active torsions:
REMARK  status: ('A' for Active; 'I' for Inactive)
REMARK    1  A    between atoms: C_1  and  N_2
REMARK    2  A    between atoms: C_5  and  N_6
REMARK    3  A    between atoms: C_11  and  C_12
REMARK    4  A    between atoms: C_15  and  N_16
REMARK    5  A    between atoms: C_21  and  C_22
REMARK                            x       y       z     vdW  Elec       q    Type
REMARK                         _______ _______ _______ _____ _____    ______ ____
ROOT
ATOM      1  N   UNL     1       4.311   3.350  17.656  0.00  0.00    +0.000 N 
ATOM      2  C   UNL     1       3.556   3.788  18.742  0.00  0.00    +0.000 A 
ATOM      3  N   UNL     1       3.373   2.912  19.740  0.00  0.00    +0.000 NA
ATOM      4  C   UNL     1       2.752   3.365  20.843  0.00  0.00    +0.000 A 
ATOM      5  C   UNL     1       2.282   4.651  20.981  0.00  0.00    +0.000 A 
ATOM      6  C   UNL     1       2.467   5.481  19.897  0.00  0.00    +0.000 A 
ATOM      7  N   UNL     1       3.104   5.052  18.792  0.00  0.00    +0.000 NA
ATOM      8  H   UNL     1       4.642   2.414  17.838  0.00  0.00    +0.000 HD
ENDROOT
BRANCH   1  13
ATOM      9  C   UNL     1       7.012   4.817  13.917  0.00  0.00    +0.000 C 
ATOM     10  N   UNL     1       6.172   4.788  15.085  0.00  0.00    +0.000 N 
ATOM     11  C   UNL     1       5.458   5.822  15.617  0.00  0.00    +0.000 A 
ATOM     12  N   UNL     1       4.736   5.427  16.646  0.00  0.00    +0.000 NA
ATOM     13  C   UNL     1       4.982   4.087  16.760  0.00  0.00    +0.000 A 
ATOM     14  C   UNL     1       5.912   3.681  15.835  0.00  0.00    +0.000 A 
ENDBRANCH   1  13
BRANCH   6  15
ATOM     15  C   UNL     1       2.015   6.888  19.848  0.00  0.00    +0.000 A 
ATOM     16  C   UNL     1       2.035   7.644  18.676  0.00  0.00    +0.000 A 
ATOM     17  C   UNL     1       1.599   8.980  18.661  0.00  0.00    +0.000 A 
ATOM     18  C   UNL     1       1.121   9.644  19.807  0.00  0.00    +0.000 A 
ATOM     19  C   UNL     1       1.130   8.890  21.002  0.00  0.00    +0.000 A 
ATOM     20  C   UNL     1       1.562   7.544  21.005  0.00  0.00    +0.000 A 
BRANCH  18  21
ATOM     21  N   UNL     1       0.652  10.950  19.735  0.00  0.00    +0.000 N 
ATOM     22  C   UNL     1       1.374  12.104  20.280  0.00  0.00    +0.000 C 
ATOM     23  C   UNL     1       0.334  12.831  21.119  0.00  0.00    +0.000 C 
ATOM     24  C   UNL     1      -0.939  12.626  20.318  0.00  0.00    +0.000 C 
ATOM     25  C   UNL     1      -0.800  11.208  19.761  0.00  0.00    +0.000 C 
ENDBRANCH  18  21
BRANCH  19  26
ATOM     26  C   UNL     1       0.662   9.414  22.258  0.00  0.00    +0.000 C 
ATOM     27  N   UNL     1       0.236   9.788  23.273  0.00  0.00    +0.000 NA
ENDBRANCH  19  26
ENDBRANCH   6  15
TORSDOF 4
ENDMDL
MODEL 9
REMARK VINA RESULT:      -7.5      2.351      8.321
REMARK  Name = 
REMARK  5 active torsions:
REMARK  status: ('A' for Active; 'I' for Inactive)
REMARK    1  A    between atoms: C_1  and  N_2
REMARK    2  A    between atoms: C_5  and  N_6
REMARK    3  A    between atoms: C_11  and  C_12
REMARK    4  A    between atoms: C_15  and  N_16
REMARK    5  A    between atoms: C_21  and  C_22
REMARK                            x       y       z     vdW  Elec       q    Type
REMARK                         _______ _______ _______ _____ _____    ______ ____
ROOT
ATOM      1  N   UNL     1      -2.271  12.121  19.327  0.00  0.00    +0.000 N 
ATOM      2  C   UNL     1      -1.323  11.509  20.145  0.00  0.00    +0.000 A 
ATOM      3  N   UNL     1      -1.294  11.897  21.427  0.00  0.00    +0.000 NA
ATOM      4  C   UNL     1      -0.470  11.225  22.249  0.00  0.00    +0.000 A 
ATOM      5  C   UNL     1       0.347  10.197  21.839  0.00  0.00    +0.000 A 
ATOM      6  C   UNL     1       0.295   9.883  20.498  0.00  0.00    +0.000 A 
ATOM      7  N   UNL     1      -0.538  10.531  19.663  0.00  0.00    +0.000 NA
ATOM      8  H   UNL     1      -2.828  12.755  19.882  0.00  0.00    +0.000 HD
ENDROOT
BRANCH   1  13
ATOM      9  C   UNL     1      -2.888  10.240  14.910  0.00  0.00    +0.000 C 
ATOM     10  N   UNL     1      -3.118  10.813  16.211  0.00  0.00    +0.000 N 
ATOM     11  C   UNL     1      -4.295  10.863  16.897  0.00  0.00    +0.000 A 
ATOM     12  N   UNL     1      -4.131  11.391  18.093  0.00  0.00    +0.000 NA
ATOM     13  C   UNL     1      -2.795  11.668  18.180  0.00  0.00    +0.000 A 
ATOM     14  C   UNL     1      -2.157  11.367  17.002  0.00  0.00    +0.000 A 
ENDBRANCH   1  13
BRANCH   6  15
ATOM     15  C   UNL     1       1.111   8.824  19.866  0.00  0.00    +0.000 A 
ATOM     16  C   UNL     1       1.686   8.971  18.604  0.00  0.00    +0.000 A 
ATOM     17  C   UNL     1       2.457   7.947  18.028  0.00  0.00    +0.000 A 
ATOM     18  C   UNL     1       2.699   6.716  18.670  0.00  0.00    +0.000 A 
ATOM     19  C   UNL     1       2.090   6.554  19.934  0.00  0.00    +0.000 A 
ATOM     20  C   UNL     1       1.324   7.594  20.509  0.00  0.00    +0.000 A 
BRANCH  18  21
ATOM     21  N   UNL     1       3.509   5.751  18.085  0.00  0.00    +0.000 N 
ATOM     22  C   UNL     1       3.001   4.499  17.516  0.00  0.00    +0.000 C 
ATOM     23  C   UNL     1       3.872   3.423  18.145  0.00  0.00    +0.000 C 
ATOM     24  C   UNL     1       5.226   4.104  18.236  0.00  0.00    +0.000 C 
ATOM     25  C   UNL     1       4.886   5.555  18.578  0.00  0.00    +0.000 C 
ENDBRANCH  18  21
BRANCH  19  26
ATOM     26  C   UNL     1       2.248   5.363  20.728  0.00  0.00    +0.000 C 
ATOM     27  N   UNL     1       2.308   4.406  21.386  0.00  0.00    +0.000 NA
ENDBRANCH  19  26
ENDBRANCH   6  15
TORSDOF 4
ENDMDL
