MODEL 1
REMARK VINA RESULT:      -6.1      0.000      0.000
REMARK  Name = 
REMARK  6 active torsions:
REMARK  status: ('A' for Active; 'I' for Inactive)
REMARK    1  A    between atoms: C_1  and  C_2
REMARK    2  A    between atoms: C_2  and  N_3
REMARK    3  A    between atoms: C_6  and  C_7
REMARK    4  A    between atoms: C_7  and  O_9
REMARK    5  A    between atoms: O_9  and  C_10
REMARK    6  A    between atoms: C_11  and  O_12
REMARK                            x       y       z     vdW  Elec       q    Type
REMARK                         _______ _______ _______ _____ _____    ______ ____
ROOT
ATOM      1  N   UNL     1       3.482   5.804  18.264  0.00  0.00    +0.000 N 
ATOM      2  C   UNL     1       4.505   6.430  17.521  0.00  0.00    +0.000 A 
ATOM      3  O   UNL     1       4.291   7.489  16.931  0.00  0.00    +0.000 OA
ATOM      4  C   UNL     1       5.876   5.779  17.470  0.00  0.00    +0.000 A 
ATOM      5  C   UNL     1       6.100   4.641  18.170  0.00  0.00    +0.000 A 
ATOM      6  C   UNL     1       5.053   4.041  18.918  0.00  0.00    +0.000 A 
ATOM      7  N   UNL     1       5.185   2.895  19.665  0.00  0.00    +0.000 NA
ATOM      8  C   UNL     1       4.021   2.632  20.223  0.00  0.00    +0.000 A 
ATOM      9  S   UNL     1       2.739   3.730  19.872  0.00  0.00    +0.000 S 
ATOM     10  C   UNL     1       3.819   4.633  18.926  0.00  0.00    +0.000 A 
ENDROOT
BRANCH   1  12
ATOM     11  C   UNL     1       2.151   7.435  19.565  0.00  0.00    +0.000 C 
ATOM     12  C   UNL     1       2.188   6.482  18.379  0.00  0.00    +0.000 C 
ENDBRANCH   1  12
BRANCH   4  13
ATOM     13  C   UNL     1       7.015   6.335  16.699  0.00  0.00    +0.000 C 
ATOM     14  O   UNL     1       7.475   7.456  16.917  0.00  0.00    +0.000 OA
BRANCH  13  15
ATOM     15  O   UNL     1       7.491   5.489  15.759  0.00  0.00    +0.000 OA
ATOM     16  C   UNL     1       6.558   5.128  14.741  0.00  0.00    +0.000 C 
ENDBRANCH  13  15
ENDBRANCH   4  13
BRANCH   5  17
ATOM     17  O   UNL     1       7.300   3.956  18.232  0.00  0.00    +0.000 OA
ATOM     18  H   UNL     1       7.985   4.443  17.727  0.00  0.00    +0.000 HD
ENDBRANCH   5  17
TORSDOF 4
ENDMDL
MODEL 2
REMARK VINA RESULT:      -6.1      0.570      1.360
REMARK  Name = 
REMARK  6 active torsions:
REMARK  status: ('A' for Active; 'I' for Inactive)
REMARK    1  A    between atoms: C_1  and  C_2
REMARK    2  A    between atoms: C_2  and  N_3
REMARK    3  A    between atoms: C_6  and  C_7
REMARK    4  A    between atoms: C_7  and  O_9
REMARK    5  A    between atoms: O_9  and  C_10
REMARK    6  A    between atoms: C_11  and  O_12
REMARK                            x       y       z     vdW  Elec       q    Type
REMARK                         _______ _______ _______ _____ _____    ______ ____
ROOT
ATOM      1  N   UNL     1       3.440   5.824  18.306  0.00  0.00    +0.000 N 
ATOM      2  C   UNL     1       4.445   6.455  17.542  0.00  0.00    +0.000 A 
ATOM      3  O   UNL     1       4.216   7.519  16.966  0.00  0.00    +0.000 OA
ATOM      4  C   UNL     1       5.813   5.803  17.449  0.00  0.00    +0.000 A 
ATOM      5  C   UNL     1       6.054   4.659  18.133  0.00  0.00    +0.000 A 
ATOM      6  C   UNL     1       5.027   4.054  18.904  0.00  0.00    +0.000 A 
ATOM      7  N   UNL     1       5.176   2.902  19.639  0.00  0.00    +0.000 NA
ATOM      8  C   UNL     1       4.028   2.636  20.226  0.00  0.00    +0.000 A 
ATOM      9  S   UNL     1       2.738   3.738  19.917  0.00  0.00    +0.000 S 
ATOM     10  C   UNL     1       3.794   4.647  18.950  0.00  0.00    +0.000 A 
ENDROOT
BRANCH   1  12
ATOM     11  C   UNL     1       2.142   7.434  19.666  0.00  0.00    +0.000 C 
ATOM     12  C   UNL     1       2.152   6.503  18.462  0.00  0.00    +0.000 C 
ENDBRANCH   1  12
BRANCH   4  13
ATOM     13  C   UNL     1       6.931   6.364  16.653  0.00  0.00    +0.000 C 
ATOM     14  O   UNL     1       7.471   5.738  15.740  0.00  0.00    +0.000 OA
BRANCH  13  15
ATOM     15  O   UNL     1       7.277   7.618  17.020  0.00  0.00    +0.000 OA
ATOM     16  C   UNL     1       8.083   7.703  18.195  0.00  0.00    +0.000 C 
ENDBRANCH  13  15
ENDBRANCH   4  13
BRANCH   5  17
ATOM     17  O   UNL     1       7.255   3.973  18.159  0.00  0.00    +0.000 OA
ATOM     18  H   UNL     1       7.228   3.286  18.857  0.00  0.00    +0.000 HD
ENDBRANCH   5  17
TORSDOF 4
ENDMDL
MODEL 3
REMARK VINA RESULT:      -6.0      1.691      2.290
REMARK  Name = 
REMARK  6 active torsions:
REMARK  status: ('A' for Active; 'I' for Inactive)
REMARK    1  A    between atoms: C_1  and  C_2
REMARK    2  A    between atoms: C_2  and  N_3
REMARK    3  A    between atoms: C_6  and  C_7
REMARK    4  A    between atoms: C_7  and  O_9
REMARK    5  A    between atoms: O_9  and  C_10
REMARK    6  A    between atoms: C_11  and  O_12
REMARK                            x       y       z     vdW  Elec       q    Type
REMARK                         _______ _______ _______ _____ _____    ______ ____
ROOT
ATOM      1  N   UNL     1       2.902   5.844  18.824  0.00  0.00    +0.000 N 
ATOM      2  C   UNL     1       4.181   5.817  18.230  0.00  0.00    +0.000 A 
ATOM      3  O   UNL     1       4.576   6.765  17.550  0.00  0.00    +0.000 OA
ATOM      4  C   UNL     1       5.065   4.603  18.450  0.00  0.00    +0.000 A 
ATOM      5  C   UNL     1       4.628   3.595  19.243  0.00  0.00    +0.000 A 
ATOM      6  C   UNL     1       3.340   3.656  19.837  0.00  0.00    +0.000 A 
ATOM      7  N   UNL     1       2.814   2.692  20.662  0.00  0.00    +0.000 NA
ATOM      8  C   UNL     1       1.609   3.077  21.030  0.00  0.00    +0.000 A 
ATOM      9  S   UNL     1       1.066   4.589  20.402  0.00  0.00    +0.000 S 
ATOM     10  C   UNL     1       2.552   4.750  19.601  0.00  0.00    +0.000 A 
ENDROOT
BRANCH   1  12
ATOM     11  C   UNL     1       2.022   7.851  19.974  0.00  0.00    +0.000 C 
ATOM     12  C   UNL     1       2.091   7.055  18.678  0.00  0.00    +0.000 C 
ENDBRANCH   1  12
BRANCH   4  13
ATOM     13  C   UNL     1       6.415   4.457  17.852  0.00  0.00    +0.000 C 
ATOM     14  O   UNL     1       6.587   4.281  16.646  0.00  0.00    +0.000 OA
BRANCH  13  15
ATOM     15  O   UNL     1       7.416   4.550  18.755  0.00  0.00    +0.000 OA
ATOM     16  C   UNL     1       7.775   5.881  19.125  0.00  0.00    +0.000 C 
ENDBRANCH  13  15
ENDBRANCH   4  13
BRANCH   5  17
ATOM     17  O   UNL     1       5.335   2.445  19.549  0.00  0.00    +0.000 OA
ATOM     18  H   UNL     1       4.980   2.049  20.371  0.00  0.00    +0.000 HD
ENDBRANCH   5  17
TORSDOF 4
ENDMDL
MODEL 4
REMARK VINA RESULT:      -6.0      2.965      4.509
REMARK  Name = 
REMARK  6 active torsions:
REMARK  status: ('A' for Active; 'I' for Inactive)
REMARK    1  A    between atoms: C_1  and  C_2
REMARK    2  A    between atoms: C_2  and  N_3
REMARK    3  A    between atoms: C_6  and  C_7
REMARK    4  A    between atoms: C_7  and  O_9
REMARK    5  A    between atoms: O_9  and  C_10
REMARK    6  A    between atoms: C_11  and  O_12
REMARK                            x       y       z     vdW  Elec       q    Type
REMARK                         _______ _______ _______ _____ _____    ______ ____
ROOT
ATOM      1  N   UNL     1       3.852   6.076  17.822  0.00  0.00    +0.000 N 
ATOM      2  C   UNL     1       2.904   5.115  18.234  0.00  0.00    +0.000 A 
ATOM      3  O   UNL     1       1.702   5.304  18.050  0.00  0.00    +0.000 OA
ATOM      4  C   UNL     1       3.394   3.841  18.899  0.00  0.00    +0.000 A 
ATOM      5  C   UNL     1       4.725   3.634  19.044  0.00  0.00    +0.000 A 
ATOM      6  C   UNL     1       5.655   4.614  18.609  0.00  0.00    +0.000 A 
ATOM      7  N   UNL     1       7.021   4.492  18.704  0.00  0.00    +0.000 NA
ATOM      8  C   UNL     1       7.567   5.580  18.203  0.00  0.00    +0.000 A 
ATOM      9  S   UNL     1       6.478   6.781  17.614  0.00  0.00    +0.000 S 
ATOM     10  C   UNL     1       5.187   5.766  18.036  0.00  0.00    +0.000 A 
ENDROOT
BRANCH   1  12
ATOM     11  C   UNL     1       2.714   8.263  18.037  0.00  0.00    +0.000 C 
ATOM     12  C   UNL     1       3.378   7.261  17.103  0.00  0.00    +0.000 C 
ENDBRANCH   1  12
BRANCH   4  13
ATOM     13  C   UNL     1       2.485   2.778  19.394  0.00  0.00    +0.000 C 
ATOM     14  O   UNL     1       1.725   2.160  18.650  0.00  0.00    +0.000 OA
BRANCH  13  15
ATOM     15  O   UNL     1       2.592   2.556  20.723  0.00  0.00    +0.000 OA
ATOM     16  C   UNL     1       1.962   3.533  21.552  0.00  0.00    +0.000 C 
ENDBRANCH  13  15
ENDBRANCH   4  13
BRANCH   5  17
ATOM     17  O   UNL     1       5.310   2.514  19.608  0.00  0.00    +0.000 OA
ATOM     18  H   UNL     1       5.274   2.579  20.585  0.00  0.00    +0.000 HD
ENDBRANCH   5  17
TORSDOF 4
ENDMDL
MODEL 5
REMARK VINA RESULT:      -5.9      1.862      3.464
REMARK  Name = 
REMARK  6 active torsions:
REMARK  status: ('A' for Active; 'I' for Inactive)
REMARK    1  A    between atoms: C_1  and  C_2
REMARK    2  A    between atoms: C_2  and  N_3
REMARK    3  A    between atoms: C_6  and  C_7
REMARK    4  A    between atoms: C_7  and  O_9
REMARK    5  A    between atoms: O_9  and  C_10
REMARK    6  A    between atoms: C_11  and  O_12
REMARK                            x       y       z     vdW  Elec       q    Type
REMARK                         _______ _______ _______ _____ _____    ______ ____
ROOT
ATOM      1  N   UNL     1       3.716   5.185  19.322  0.00  0.00    +0.000 N 
ATOM      2  C   UNL     1       4.730   4.469  18.651  0.00  0.00    +0.000 A 
ATOM      3  O   UNL     1       5.122   3.386  19.084  0.00  0.00    +0.000 OA
ATOM      4  C   UNL     1       5.322   5.054  17.381  0.00  0.00    +0.000 A 
ATOM      5  C   UNL     1       4.837   6.224  16.897  0.00  0.00    +0.000 A 
ATOM      6  C   UNL     1       3.808   6.915  17.588  0.00  0.00    +0.000 A 
ATOM      7  N   UNL     1       3.246   8.098  17.173  0.00  0.00    +0.000 NA
ATOM      8  C   UNL     1       2.326   8.446  18.048  0.00  0.00    +0.000 A 
ATOM      9  S   UNL     1       2.107   7.386  19.391  0.00  0.00    +0.000 S 
ATOM     10  C   UNL     1       3.309   6.379  18.745  0.00  0.00    +0.000 A 
ENDROOT
BRANCH   1  12
ATOM     11  C   UNL     1       1.828   3.803  20.131  0.00  0.00    +0.000 C 
ATOM     12  C   UNL     1       3.090   4.573  20.496  0.00  0.00    +0.000 C 
ENDBRANCH   1  12
BRANCH   4  13
ATOM     13  C   UNL     1       6.409   4.402  16.612  0.00  0.00    +0.000 C 
ATOM     14  O   UNL     1       7.597   4.542  16.899  0.00  0.00    +0.000 OA
BRANCH  13  15
ATOM     15  O   UNL     1       5.961   3.639  15.590  0.00  0.00    +0.000 OA
ATOM     16  C   UNL     1       6.433   4.021  14.298  0.00  0.00    +0.000 C 
ENDBRANCH  13  15
ENDBRANCH   4  13
BRANCH   5  17
ATOM     17  O   UNL     1       5.264   6.857  15.744  0.00  0.00    +0.000 OA
ATOM     18  H   UNL     1       5.183   6.247  14.982  0.00  0.00    +0.000 HD
ENDBRANCH   5  17
TORSDOF 4
ENDMDL
MODEL 6
REMARK VINA RESULT:      -5.9      1.558      1.966
REMARK  Name = 
REMARK  6 active torsions:
REMARK  status: ('A' for Active; 'I' for Inactive)
REMARK    1  A    between atoms: C_1  and  C_2
REMARK    2  A    between atoms: C_2  and  N_3
REMARK    3  A    between atoms: C_6  and  C_7
REMARK    4  A    between atoms: C_7  and  O_9
REMARK    5  A    between atoms: O_9  and  C_10
REMARK    6  A    between atoms: C_11  and  O_12
REMARK                            x       y       z     vdW  Elec       q    Type
REMARK                         _______ _______ _______ _____ _____    ______ ____
ROOT
ATOM      1  N   UNL     1       3.309   6.274  18.940  0.00  0.00    +0.000 N 
ATOM      2  C   UNL     1       4.507   6.064  18.225  0.00  0.00    +0.000 A 
ATOM      3  O   UNL     1       4.982   6.959  17.525  0.00  0.00    +0.000 OA
ATOM      4  C   UNL     1       5.205   4.721  18.341  0.00  0.00    +0.000 A 
ATOM      5  C   UNL     1       4.689   3.771  19.158  0.00  0.00    +0.000 A 
ATOM      6  C   UNL     1       3.488   4.015  19.874  0.00  0.00    +0.000 A 
ATOM      7  N   UNL     1       2.894   3.120  20.731  0.00  0.00    +0.000 NA
ATOM      8  C   UNL     1       1.805   3.678  21.219  0.00  0.00    +0.000 A 
ATOM      9  S   UNL     1       1.451   5.274  20.668  0.00  0.00    +0.000 S 
ATOM     10  C   UNL     1       2.864   5.225  19.731  0.00  0.00    +0.000 A 
ENDROOT
BRANCH   1  12
ATOM     11  C   UNL     1       1.858   7.793  17.631  0.00  0.00    +0.000 C 
ATOM     12  C   UNL     1       2.689   7.600  18.891  0.00  0.00    +0.000 C 
ENDBRANCH   1  12
BRANCH   4  13
ATOM     13  C   UNL     1       6.453   4.384  17.614  0.00  0.00    +0.000 C 
ATOM     14  O   UNL     1       7.559   4.416  18.152  0.00  0.00    +0.000 OA
BRANCH  13  15
ATOM     15  O   UNL     1       6.246   4.033  16.326  0.00  0.00    +0.000 OA
ATOM     16  C   UNL     1       7.013   4.763  15.369  0.00  0.00    +0.000 C 
ENDBRANCH  13  15
ENDBRANCH   4  13
BRANCH   5  17
ATOM     17  O   UNL     1       5.230   2.517  19.377  0.00  0.00    +0.000 OA
ATOM     18  H   UNL     1       6.151   2.606  19.699  0.00  0.00    +0.000 HD
ENDBRANCH   5  17
TORSDOF 4
ENDMDL
MODEL 7
REMARK VINA RESULT:      -5.9      1.766      1.920
REMARK  Name = 
REMARK  6 active torsions:
REMARK  status: ('A' for Active; 'I' for Inactive)
REMARK    1  A    between atoms: C_1  and  C_2
REMARK    2  A    between atoms: C_2  and  N_3
REMARK    3  A    between atoms: C_6  and  C_7
REMARK    4  A    between atoms: C_7  and  O_9
REMARK    5  A    between atoms: O_9  and  C_10
REMARK    6  A    between atoms: C_11  and  O_12
REMARK                            x       y       z     vdW  Elec       q    Type
REMARK                         _______ _______ _______ _____ _____    ______ ____
ROOT
ATOM      1  N   UNL     1       3.590   5.948  18.031  0.00  0.00    +0.000 N 
ATOM      2  C   UNL     1       4.850   6.119  17.419  0.00  0.00    +0.000 A 
ATOM      3  O   UNL     1       5.405   7.218  17.429  0.00  0.00    +0.000 OA
ATOM      4  C   UNL     1       5.511   4.924  16.757  0.00  0.00    +0.000 A 
ATOM      5  C   UNL     1       4.902   3.715  16.803  0.00  0.00    +0.000 A 
ATOM      6  C   UNL     1       3.640   3.571  17.436  0.00  0.00    +0.000 A 
ATOM      7  N   UNL     1       2.950   2.387  17.543  0.00  0.00    +0.000 NA
ATOM      8  C   UNL     1       1.827   2.622  18.190  0.00  0.00    +0.000 A 
ATOM      9  S   UNL     1       1.555   4.253  18.681  0.00  0.00    +0.000 S 
ATOM     10  C   UNL     1       3.053   4.669  18.003  0.00  0.00    +0.000 A 
ENDROOT
BRANCH   1  12
ATOM     11  C   UNL     1       2.207   7.989  17.810  0.00  0.00    +0.000 C 
ATOM     12  C   UNL     1       2.999   7.084  18.743  0.00  0.00    +0.000 C 
ENDBRANCH   1  12
BRANCH   4  13
ATOM     13  C   UNL     1       6.820   4.997  16.062  0.00  0.00    +0.000 C 
ATOM     14  O   UNL     1       7.858   4.565  16.562  0.00  0.00    +0.000 OA
BRANCH  13  15
ATOM     15  O   UNL     1       6.747   5.565  14.838  0.00  0.00    +0.000 OA
ATOM     16  C   UNL     1       6.810   4.652  13.742  0.00  0.00    +0.000 C 
ENDBRANCH  13  15
ENDBRANCH   4  13
BRANCH   5  17
ATOM     17  O   UNL     1       5.399   2.541  16.265  0.00  0.00    +0.000 OA
ATOM     18  H   UNL     1       6.059   2.749  15.572  0.00  0.00    +0.000 HD
ENDBRANCH   5  17
TORSDOF 4
ENDMDL
MODEL 8
REMARK VINA RESULT:      -5.8      1.528      3.498
REMARK  Name = 
REMARK  6 active torsions:
REMARK  status: ('A' for Active; 'I' for Inactive)
REMARK    1  A    between atoms: C_1  and  C_2
REMARK    2  A    between atoms: C_2  and  N_3
REMARK    3  A    between atoms: C_6  and  C_7
REMARK    4  A    between atoms: C_7  and  O_9
REMARK    5  A    between atoms: O_9  and  C_10
REMARK    6  A    between atoms: C_11  and  O_12
REMARK                            x       y       z     vdW  Elec       q    Type
REMARK                         _______ _______ _______ _____ _____    ______ ____
ROOT
ATOM      1  N   UNL     1       4.104   3.998  18.958  0.00  0.00    +0.000 N 
ATOM      2  C   UNL     1       4.865   4.501  17.881  0.00  0.00    +0.000 A 
ATOM      3  O   UNL     1       5.667   3.776  17.291  0.00  0.00    +0.000 OA
ATOM      4  C   UNL     1       4.671   5.945  17.459  0.00  0.00    +0.000 A 
ATOM      5  C   UNL     1       3.746   6.707  18.091  0.00  0.00    +0.000 A 
ATOM      6  C   UNL     1       2.987   6.170  19.164  0.00  0.00    +0.000 A 
ATOM      7  N   UNL     1       2.022   6.858  19.859  0.00  0.00    +0.000 NA
ATOM      8  C   UNL     1       1.524   6.054  20.776  0.00  0.00    +0.000 A 
ATOM      9  S   UNL     1       2.191   4.466  20.845  0.00  0.00    +0.000 S 
ATOM     10  C   UNL     1       3.199   4.872  19.543  0.00  0.00    +0.000 A 
ENDROOT
BRANCH   1  12
ATOM     11  C   UNL     1       3.290   1.709  18.487  0.00  0.00    +0.000 C 
ATOM     12  C   UNL     1       4.234   2.580  19.303  0.00  0.00    +0.000 C 
ENDBRANCH   1  12
BRANCH   4  13
ATOM     13  C   UNL     1       5.436   6.583  16.360  0.00  0.00    +0.000 C 
ATOM     14  O   UNL     1       5.261   6.291  15.177  0.00  0.00    +0.000 OA
BRANCH  13  15
ATOM     15  O   UNL     1       6.319   7.512  16.789  0.00  0.00    +0.000 OA
ATOM     16  C   UNL     1       7.455   6.994  17.480  0.00  0.00    +0.000 C 
ENDBRANCH  13  15
ENDBRANCH   4  13
BRANCH   5  17
ATOM     17  O   UNL     1       3.449   8.025  17.796  0.00  0.00    +0.000 OA
ATOM     18  H   UNL     1       3.483   8.562  18.615  0.00  0.00    +0.000 HD
ENDBRANCH   5  17
TORSDOF 4
ENDMDL
MODEL 9
REMARK VINA RESULT:      -5.8      1.883      2.150
REMARK  Name = 
REMARK  6 active torsions:
REMARK  status: ('A' for Active; 'I' for Inactive)
REMARK    1  A    between atoms: C_1  and  C_2
REMARK    2  A    between atoms: C_2  and  N_3
REMARK    3  A    between atoms: C_6  and  C_7
REMARK    4  A    between atoms: C_7  and  O_9
REMARK    5  A    between atoms: O_9  and  C_10
REMARK    6  A    between atoms: C_11  and  O_12
REMARK                            x       y       z     vdW  Elec       q    Type
REMARK                         _______ _______ _______ _____ _____    ______ ____
ROOT
ATOM      1  N   UNL     1       3.051   5.887  18.752  0.00  0.00    +0.000 N 
ATOM      2  C   UNL     1       4.132   5.812  17.847  0.00  0.00    +0.000 A 
ATOM      3  O   UNL     1       4.678   6.838  17.440  0.00  0.00    +0.000 OA
ATOM      4  C   UNL     1       4.614   4.447  17.393  0.00  0.00    +0.000 A 
ATOM      5  C   UNL     1       4.030   3.332  17.895  0.00  0.00    +0.000 A 
ATOM      6  C   UNL     1       2.952   3.439  18.813  0.00  0.00    +0.000 A 
ATOM      7  N   UNL     1       2.303   2.370  19.383  0.00  0.00    +0.000 NA
ATOM      8  C   UNL     1       1.366   2.836  20.182  0.00  0.00    +0.000 A 
ATOM      9  S   UNL     1       1.222   4.553  20.272  0.00  0.00    +0.000 S 
ATOM     10  C   UNL     1       2.519   4.682  19.187  0.00  0.00    +0.000 A 
ENDROOT
BRANCH   1  12
ATOM     11  C   UNL     1       1.946   8.027  18.183  0.00  0.00    +0.000 C 
ATOM     12  C   UNL     1       2.650   7.203  19.253  0.00  0.00    +0.000 C 
ENDBRANCH   1  12
BRANCH   4  13
ATOM     13  C   UNL     1       5.722   4.253  16.425  0.00  0.00    +0.000 C 
ATOM     14  O   UNL     1       6.906   4.327  16.754  0.00  0.00    +0.000 OA
BRANCH  13  15
ATOM     15  O   UNL     1       5.298   3.978  15.172  0.00  0.00    +0.000 OA
ATOM     16  C   UNL     1       6.316   4.000  14.171  0.00  0.00    +0.000 C 
ENDBRANCH  13  15
ENDBRANCH   4  13
BRANCH   5  17
ATOM     17  O   UNL     1       4.381   2.030  17.588  0.00  0.00    +0.000 OA
ATOM     18  H   UNL     1       3.585   1.459  17.610  0.00  0.00    +0.000 HD
ENDBRANCH   5  17
TORSDOF 4
ENDMDL
