MODEL 1
REMARK VINA RESULT:      -7.5      0.000      0.000
REMARK  Name = 
REMARK  6 active torsions:
REMARK  status: ('A' for Active; 'I' for Inactive)
REMARK    1  A    between atoms: N_1  and  C_2
REMARK    2  A    between atoms: C_9  and  S_10
REMARK    3  A    between atoms: S_10  and  C_11
REMARK    4  A    between atoms: N_21  and  C_22
REMARK    5  A    between atoms: C_22  and  C_23
REMARK    6  A    between atoms: C_23  and  C_24
REMARK                            x       y       z     vdW  Elec       q    Type
REMARK                         _______ _______ _______ _____ _____    ______ ____
ROOT
ATOM      1  C   UNL     1       1.817   3.483  19.913  0.00  0.00    +0.000 A 
ATOM      2  N   UNL     1       2.687   2.478  20.157  0.00  0.00    +0.000 NA
ATOM      3  C   UNL     1       3.987   2.676  19.870  0.00  0.00    +0.000 A 
ATOM      4  N   UNL     1       4.561   3.766  19.336  0.00  0.00    +0.000 NA
ATOM      5  C   UNL     1       3.663   4.734  19.084  0.00  0.00    +0.000 A 
ATOM      6  C   UNL     1       2.303   4.673  19.343  0.00  0.00    +0.000 A 
ATOM      7  N   UNL     1       1.684   5.844  18.970  0.00  0.00    +0.000 NA
ATOM      8  C   UNL     1       2.652   6.611  18.516  0.00  0.00    +0.000 A 
ATOM      9  N   UNL     1       3.879   5.975  18.527  0.00  0.00    +0.000 N 
ENDROOT
BRANCH   1  10
ATOM     10  N   UNL     1       0.482   3.269  20.230  0.00  0.00    +0.000 N 
ATOM     11  H   UNL     1       0.375   2.865  21.151  0.00  0.00    +0.000 HD
ATOM     12  H   UNL     1      -0.053   2.863  19.474  0.00  0.00    +0.000 HD
ENDBRANCH   1  10
BRANCH   8  13
ATOM     13  S   UNL     1       2.380   8.226  17.939  0.00  0.00    +0.000 S 
BRANCH  13  14
ATOM     14  C   UNL     1       1.346   8.847  19.272  0.00  0.00    +0.000 A 
ATOM     15  C   UNL     1       1.708   8.586  20.607  0.00  0.00    +0.000 A 
ATOM     16  C   UNL     1       0.928   9.120  21.614  0.00  0.00    +0.000 A 
ATOM     17  C   UNL     1      -0.183   9.881  21.344  0.00  0.00    +0.000 A 
ATOM     18  C   UNL     1      -0.603  10.120  20.055  0.00  0.00    +0.000 A 
ATOM     19  C   UNL     1       0.160   9.582  19.012  0.00  0.00    +0.000 A 
ATOM     20 CL   UNL     1      -0.417   9.860  17.402  0.00  0.00    +0.000 Cl
ATOM     21  O   UNL     1      -0.787  10.341  22.471  0.00  0.00    +0.000 OA
ATOM     22  C   UNL     1       0.030   9.727  23.489  0.00  0.00    +0.000 C 
ATOM     23  O   UNL     1       1.143   8.982  22.950  0.00  0.00    +0.000 OA
ENDBRANCH  13  14
ENDBRANCH   8  13
BRANCH   9  24
ATOM     24  C   UNL     1       5.171   6.532  18.134  0.00  0.00    +0.000 C 
BRANCH  24  25
ATOM     25  C   UNL     1       5.637   6.205  16.705  0.00  0.00    +0.000 C 
BRANCH  25  26
ATOM     26  C   UNL     1       6.133   4.761  16.467  0.00  0.00    +0.000 C 
ATOM     27  C   UNL     1       7.453   4.784  15.658  0.00  0.00    +0.000 C 
ATOM     28  C   UNL     1       7.231   5.138  14.186  0.00  0.00    +0.000 C 
ATOM     29  N   UNL     1       6.258   4.231  13.606  0.00  0.00    +0.000 N 
ATOM     30  C   UNL     1       6.539   3.483  12.484  0.00  0.00    +0.000 C 
ATOM     31  O   UNL     1       5.785   2.694  11.935  0.00  0.00    +0.000 OA
ATOM     32  C   UNL     1       4.958   4.154  14.259  0.00  0.00    +0.000 C 
ATOM     33  C   UNL     1       5.115   3.848  15.750  0.00  0.00    +0.000 C 
ENDBRANCH  25  26
ENDBRANCH  24  25
ENDBRANCH   9  24
TORSDOF 6
ENDMDL
MODEL 2
REMARK VINA RESULT:      -7.4      2.413      8.642
REMARK  Name = 
REMARK  6 active torsions:
REMARK  status: ('A' for Active; 'I' for Inactive)
REMARK    1  A    between atoms: N_1  and  C_2
REMARK    2  A    between atoms: C_9  and  S_10
REMARK    3  A    between atoms: S_10  and  C_11
REMARK    4  A    between atoms: N_21  and  C_22
REMARK    5  A    between atoms: C_22  and  C_23
REMARK    6  A    between atoms: C_23  and  C_24
REMARK                            x       y       z     vdW  Elec       q    Type
REMARK                         _______ _______ _______ _____ _____    ______ ____
ROOT
ATOM      1  C   UNL     1       3.887   2.770  20.370  0.00  0.00    +0.000 A 
ATOM      2  N   UNL     1       2.918   2.325  21.199  0.00  0.00    +0.000 NA
ATOM      3  C   UNL     1       1.866   3.129  21.439  0.00  0.00    +0.000 A 
ATOM      4  N   UNL     1       1.645   4.368  20.968  0.00  0.00    +0.000 NA
ATOM      5  C   UNL     1       2.641   4.785  20.168  0.00  0.00    +0.000 A 
ATOM      6  C   UNL     1       3.770   4.060  19.823  0.00  0.00    +0.000 A 
ATOM      7  N   UNL     1       4.577   4.787  18.978  0.00  0.00    +0.000 NA
ATOM      8  C   UNL     1       3.939   5.924  18.795  0.00  0.00    +0.000 A 
ATOM      9  N   UNL     1       2.767   5.997  19.524  0.00  0.00    +0.000 N 
ENDROOT
BRANCH   1  10
ATOM     10  N   UNL     1       4.959   1.921  20.120  0.00  0.00    +0.000 N 
ATOM     11  H   UNL     1       5.772   2.429  19.798  0.00  0.00    +0.000 HD
ATOM     12  H   UNL     1       4.701   1.081  19.619  0.00  0.00    +0.000 HD
ENDBRANCH   1  10
BRANCH   8  13
ATOM     13  S   UNL     1       4.548   7.188  17.771  0.00  0.00    +0.000 S 
BRANCH  13  14
ATOM     14  C   UNL     1       5.473   6.195  16.592  0.00  0.00    +0.000 A 
ATOM     15  C   UNL     1       4.783   5.512  15.573  0.00  0.00    +0.000 A 
ATOM     16  C   UNL     1       5.520   4.801  14.646  0.00  0.00    +0.000 A 
ATOM     17  C   UNL     1       6.891   4.739  14.702  0.00  0.00    +0.000 A 
ATOM     18  C   UNL     1       7.603   5.351  15.710  0.00  0.00    +0.000 A 
ATOM     19  C   UNL     1       6.884   6.070  16.672  0.00  0.00    +0.000 A 
ATOM     20 CL   UNL     1       7.802   6.790  17.953  0.00  0.00    +0.000 Cl
ATOM     21  O   UNL     1       7.425   4.022  13.679  0.00  0.00    +0.000 OA
ATOM     22  C   UNL     1       6.229   3.578  13.005  0.00  0.00    +0.000 C 
ATOM     23  O   UNL     1       5.019   4.101  13.593  0.00  0.00    +0.000 OA
ENDBRANCH  13  14
ENDBRANCH   8  13
BRANCH   9  24
ATOM     24  C   UNL     1       1.794   7.085  19.533  0.00  0.00    +0.000 C 
BRANCH  24  25
ATOM     25  C   UNL     1       1.354   7.582  20.921  0.00  0.00    +0.000 C 
BRANCH  25  26
ATOM     26  C   UNL     1       1.656   9.064  21.237  0.00  0.00    +0.000 C 
ATOM     27  C   UNL     1       1.418   9.340  22.743  0.00  0.00    +0.000 C 
ATOM     28  C   UNL     1      -0.068   9.383  23.102  0.00  0.00    +0.000 C 
ATOM     29  N   UNL     1      -0.747  10.351  22.262  0.00  0.00    +0.000 N 
ATOM     30  C   UNL     1      -1.480  11.389  22.795  0.00  0.00    +0.000 C 
ATOM     31  O   UNL     1      -2.076  12.249  22.165  0.00  0.00    +0.000 OA
ATOM     32  C   UNL     1      -0.631  10.170  20.821  0.00  0.00    +0.000 C 
ATOM     33  C   UNL     1       0.838  10.073  20.402  0.00  0.00    +0.000 C 
ENDBRANCH  25  26
ENDBRANCH  24  25
ENDBRANCH   9  24
TORSDOF 6
ENDMDL
MODEL 3
REMARK VINA RESULT:      -7.2      2.460      8.664
REMARK  Name = 
REMARK  6 active torsions:
REMARK  status: ('A' for Active; 'I' for Inactive)
REMARK    1  A    between atoms: N_1  and  C_2
REMARK    2  A    between atoms: C_9  and  S_10
REMARK    3  A    between atoms: S_10  and  C_11
REMARK    4  A    between atoms: N_21  and  C_22
REMARK    5  A    between atoms: C_22  and  C_23
REMARK    6  A    between atoms: C_23  and  C_24
REMARK                            x       y       z     vdW  Elec       q    Type
REMARK                         _______ _______ _______ _____ _____    ______ ____
ROOT
ATOM      1  C   UNL     1       3.449   2.938  20.499  0.00  0.00    +0.000 A 
ATOM      2  N   UNL     1       2.346   2.545  21.172  0.00  0.00    +0.000 NA
ATOM      3  C   UNL     1       1.305   3.396  21.244  0.00  0.00    +0.000 A 
ATOM      4  N   UNL     1       1.214   4.637  20.738  0.00  0.00    +0.000 NA
ATOM      5  C   UNL     1       2.337   5.002  20.098  0.00  0.00    +0.000 A 
ATOM      6  C   UNL     1       3.473   4.226  19.933  0.00  0.00    +0.000 A 
ATOM      7  N   UNL     1       4.430   4.908  19.219  0.00  0.00    +0.000 NA
ATOM      8  C   UNL     1       3.879   6.068  18.933  0.00  0.00    +0.000 A 
ATOM      9  N   UNL     1       2.613   6.199  19.474  0.00  0.00    +0.000 N 
ENDROOT
BRANCH   1  10
ATOM     10  N   UNL     1       4.508   2.042  20.421  0.00  0.00    +0.000 N 
ATOM     11  H   UNL     1       4.896   1.840  21.333  0.00  0.00    +0.000 HD
ATOM     12  H   UNL     1       5.154   2.244  19.670  0.00  0.00    +0.000 HD
ENDBRANCH   1  10
BRANCH   8  13
ATOM     13  S   UNL     1       4.691   7.293  18.008  0.00  0.00    +0.000 S 
BRANCH  13  14
ATOM     14  C   UNL     1       5.522   6.251  16.801  0.00  0.00    +0.000 A 
ATOM     15  C   UNL     1       4.770   5.642  15.780  0.00  0.00    +0.000 A 
ATOM     16  C   UNL     1       5.439   4.891  14.833  0.00  0.00    +0.000 A 
ATOM     17  C   UNL     1       6.801   4.721  14.872  0.00  0.00    +0.000 A 
ATOM     18  C   UNL     1       7.570   5.257  15.881  0.00  0.00    +0.000 A 
ATOM     19  C   UNL     1       6.920   6.013  16.863  0.00  0.00    +0.000 A 
ATOM     20 CL   UNL     1       7.906   6.637  18.144  0.00  0.00    +0.000 Cl
ATOM     21  O   UNL     1       7.265   3.981  13.831  0.00  0.00    +0.000 OA
ATOM     22  C   UNL     1       6.031   3.644  13.163  0.00  0.00    +0.000 C 
ATOM     23  O   UNL     1       4.872   4.252  13.774  0.00  0.00    +0.000 OA
ENDBRANCH  13  14
ENDBRANCH   8  13
BRANCH   9  24
ATOM     24  C   UNL     1       1.698   7.328  19.328  0.00  0.00    +0.000 C 
BRANCH  24  25
ATOM     25  C   UNL     1       1.413   8.132  20.608  0.00  0.00    +0.000 C 
BRANCH  25  26
ATOM     26  C   UNL     1      -0.061   8.532  20.842  0.00  0.00    +0.000 C 
ATOM     27  C   UNL     1      -0.417   9.763  19.972  0.00  0.00    +0.000 C 
ATOM     28  C   UNL     1       0.202  11.055  20.507  0.00  0.00    +0.000 C 
ATOM     29  N   UNL     1      -0.180  11.245  21.893  0.00  0.00    +0.000 N 
ATOM     30  C   UNL     1      -0.808  12.393  22.324  0.00  0.00    +0.000 C 
ATOM     31  O   UNL     1      -1.169  12.633  23.466  0.00  0.00    +0.000 OA
ATOM     32  C   UNL     1       0.142  10.167  22.819  0.00  0.00    +0.000 C 
ATOM     33  C   UNL     1      -0.413   8.833  22.315  0.00  0.00    +0.000 C 
ENDBRANCH  25  26
ENDBRANCH  24  25
ENDBRANCH   9  24
TORSDOF 6
ENDMDL
MODEL 4
REMARK VINA RESULT:      -7.2      2.436      8.340
REMARK  Name = 
REMARK  6 active torsions:
REMARK  status: ('A' for Active; 'I' for Inactive)
REMARK    1  A    between atoms: N_1  and  C_2
REMARK    2  A    between atoms: C_9  and  S_10
REMARK    3  A    between atoms: S_10  and  C_11
REMARK    4  A    between atoms: N_21  and  C_22
REMARK    5  A    between atoms: C_22  and  C_23
REMARK    6  A    between atoms: C_23  and  C_24
REMARK                            x       y       z     vdW  Elec       q    Type
REMARK                         _______ _______ _______ _____ _____    ______ ____
ROOT
ATOM      1  C   UNL     1       2.461   2.513  19.062  0.00  0.00    +0.000 A 
ATOM      2  N   UNL     1       1.560   2.177  20.010  0.00  0.00    +0.000 NA
ATOM      3  C   UNL     1       1.003   3.162  20.739  0.00  0.00    +0.000 A 
ATOM      4  N   UNL     1       1.242   4.482  20.667  0.00  0.00    +0.000 NA
ATOM      5  C   UNL     1       2.161   4.776  19.732  0.00  0.00    +0.000 A 
ATOM      6  C   UNL     1       2.800   3.869  18.901  0.00  0.00    +0.000 A 
ATOM      7  N   UNL     1       3.672   4.514  18.055  0.00  0.00    +0.000 NA
ATOM      8  C   UNL     1       3.549   5.791  18.349  0.00  0.00    +0.000 A 
ATOM      9  N   UNL     1       2.666   6.011  19.390  0.00  0.00    +0.000 N 
ENDROOT
BRANCH   1  10
ATOM     10  N   UNL     1       3.014   1.486  18.307  0.00  0.00    +0.000 N 
ATOM     11  H   UNL     1       2.797   1.584  17.324  0.00  0.00    +0.000 HD
ATOM     12  H   UNL     1       2.901   0.572  18.724  0.00  0.00    +0.000 HD
ENDBRANCH   1  10
BRANCH   8  13
ATOM     13  S   UNL     1       4.438   7.035  17.526  0.00  0.00    +0.000 S 
BRANCH  13  14
ATOM     14  C   UNL     1       5.372   6.018  16.374  0.00  0.00    +0.000 A 
ATOM     15  C   UNL     1       4.710   5.419  15.286  0.00  0.00    +0.000 A 
ATOM     16  C   UNL     1       5.459   4.689  14.385  0.00  0.00    +0.000 A 
ATOM     17  C   UNL     1       6.816   4.529  14.530  0.00  0.00    +0.000 A 
ATOM     18  C   UNL     1       7.496   5.056  15.605  0.00  0.00    +0.000 A 
ATOM     19  C   UNL     1       6.763   5.792  16.543  0.00  0.00    +0.000 A 
ATOM     20 CL   UNL     1       7.637   6.403  17.909  0.00  0.00    +0.000 Cl
ATOM     21  O   UNL     1       7.368   3.810  13.519  0.00  0.00    +0.000 OA
ATOM     22  C   UNL     1       6.195   3.473  12.750  0.00  0.00    +0.000 C 
ATOM     23  O   UNL     1       4.985   4.061  13.275  0.00  0.00    +0.000 OA
ENDBRANCH  13  14
ENDBRANCH   8  13
BRANCH   9  24
ATOM     24  C   UNL     1       2.258   7.296  19.950  0.00  0.00    +0.000 C 
BRANCH  24  25
ATOM     25  C   UNL     1       1.898   8.391  18.931  0.00  0.00    +0.000 C 
BRANCH  25  26
ATOM     26  C   UNL     1       0.536   9.088  19.138  0.00  0.00    +0.000 C 
ATOM     27  C   UNL     1       0.522  10.449  18.399  0.00  0.00    +0.000 C 
ATOM     28  C   UNL     1       1.370  11.507  19.107  0.00  0.00    +0.000 C 
ATOM     29  N   UNL     1       0.939  11.638  20.486  0.00  0.00    +0.000 N 
ATOM     30  C   UNL     1       0.549  12.849  21.014  0.00  0.00    +0.000 C 
ATOM     31  O   UNL     1       0.167  13.048  22.157  0.00  0.00    +0.000 OA
ATOM     32  C   UNL     1       0.948  10.428  21.297  0.00  0.00    +0.000 C 
ATOM     33  C   UNL     1       0.152   9.311  20.617  0.00  0.00    +0.000 C 
ENDBRANCH  25  26
ENDBRANCH  24  25
ENDBRANCH   9  24
TORSDOF 6
ENDMDL
MODEL 5
REMARK VINA RESULT:      -7.0      5.310     11.047
REMARK  Name = 
REMARK  6 active torsions:
REMARK  status: ('A' for Active; 'I' for Inactive)
REMARK    1  A    between atoms: N_1  and  C_2
REMARK    2  A    between atoms: C_9  and  S_10
REMARK    3  A    between atoms: S_10  and  C_11
REMARK    4  A    between atoms: N_21  and  C_22
REMARK    5  A    between atoms: C_22  and  C_23
REMARK    6  A    between atoms: C_23  and  C_24
REMARK                            x       y       z     vdW  Elec       q    Type
REMARK                         _______ _______ _______ _____ _____    ______ ____
ROOT
ATOM      1  C   UNL     1      -3.403  10.624  16.514  0.00  0.00    +0.000 A 
ATOM      2  N   UNL     1      -4.731  10.858  16.605  0.00  0.00    +0.000 NA
ATOM      3  C   UNL     1      -5.182  11.571  17.654  0.00  0.00    +0.000 A 
ATOM      4  N   UNL     1      -4.474  12.084  18.673  0.00  0.00    +0.000 NA
ATOM      5  C   UNL     1      -3.163  11.809  18.562  0.00  0.00    +0.000 A 
ATOM      6  C   UNL     1      -2.561  11.105  17.532  0.00  0.00    +0.000 A 
ATOM      7  N   UNL     1      -1.202  11.019  17.731  0.00  0.00    +0.000 NA
ATOM      8  C   UNL     1      -0.979  11.679  18.848  0.00  0.00    +0.000 A 
ATOM      9  N   UNL     1      -2.144  12.156  19.421  0.00  0.00    +0.000 N 
ENDROOT
BRANCH   1  10
ATOM     10  N   UNL     1      -2.952   9.901  15.417  0.00  0.00    +0.000 N 
ATOM     11  H   UNL     1      -3.653   9.844  14.691  0.00  0.00    +0.000 HD
ATOM     12  H   UNL     1      -2.464   9.051  15.666  0.00  0.00    +0.000 HD
ENDBRANCH   1  10
BRANCH   8  13
ATOM     13  S   UNL     1       0.609  11.881  19.519  0.00  0.00    +0.000 S 
BRANCH  13  14
ATOM     14  C   UNL     1       1.081  10.155  19.690  0.00  0.00    +0.000 A 
ATOM     15  C   UNL     1       1.718   9.503  18.618  0.00  0.00    +0.000 A 
ATOM     16  C   UNL     1       2.120   8.192  18.794  0.00  0.00    +0.000 A 
ATOM     17  C   UNL     1       1.905   7.520  19.972  0.00  0.00    +0.000 A 
ATOM     18  C   UNL     1       1.242   8.102  21.028  0.00  0.00    +0.000 A 
ATOM     19  C   UNL     1       0.812   9.426  20.878  0.00  0.00    +0.000 A 
ATOM     20 CL   UNL     1      -0.060  10.117  22.206  0.00  0.00    +0.000 Cl
ATOM     21  O   UNL     1       2.409   6.258  19.952  0.00  0.00    +0.000 OA
ATOM     22  C   UNL     1       2.908   6.184  18.600  0.00  0.00    +0.000 C 
ATOM     23  O   UNL     1       2.760   7.423  17.873  0.00  0.00    +0.000 OA
ENDBRANCH  13  14
ENDBRANCH   8  13
BRANCH   9  24
ATOM     24  C   UNL     1      -2.271  12.959  20.634  0.00  0.00    +0.000 C 
BRANCH  24  25
ATOM     25  C   UNL     1      -3.167  12.373  21.738  0.00  0.00    +0.000 C 
BRANCH  25  26
ATOM     26  C   UNL     1      -2.629  12.493  23.181  0.00  0.00    +0.000 C 
ATOM     27  C   UNL     1      -3.805  12.725  24.163  0.00  0.00    +0.000 C 
ATOM     28  C   UNL     1      -4.373  14.142  24.070  0.00  0.00    +0.000 C 
ATOM     29  N   UNL     1      -3.310  15.111  24.262  0.00  0.00    +0.000 N 
ATOM     30  C   UNL     1      -3.378  16.082  25.236  0.00  0.00    +0.000 C 
ATOM     31  O   UNL     1      -2.530  16.929  25.470  0.00  0.00    +0.000 OA
ATOM     32  C   UNL     1      -2.165  15.018  23.366  0.00  0.00    +0.000 C 
ATOM     33  C   UNL     1      -1.577  13.605  23.379  0.00  0.00    +0.000 C 
ENDBRANCH  25  26
ENDBRANCH  24  25
ENDBRANCH   9  24
TORSDOF 6
ENDMDL
MODEL 6
REMARK VINA RESULT:      -7.0      2.706      8.126
REMARK  Name = 
REMARK  6 active torsions:
REMARK  status: ('A' for Active; 'I' for Inactive)
REMARK    1  A    between atoms: N_1  and  C_2
REMARK    2  A    between atoms: C_9  and  S_10
REMARK    3  A    between atoms: S_10  and  C_11
REMARK    4  A    between atoms: N_21  and  C_22
REMARK    5  A    between atoms: C_22  and  C_23
REMARK    6  A    between atoms: C_23  and  C_24
REMARK                            x       y       z     vdW  Elec       q    Type
REMARK                         _______ _______ _______ _____ _____    ______ ____
ROOT
ATOM      1  C   UNL     1       3.917   2.590  20.214  0.00  0.00    +0.000 A 
ATOM      2  N   UNL     1       3.095   2.183  21.206  0.00  0.00    +0.000 NA
ATOM      3  C   UNL     1       2.195   3.060  21.690  0.00  0.00    +0.000 A 
ATOM      4  N   UNL     1       2.005   4.338  21.324  0.00  0.00    +0.000 NA
ATOM      5  C   UNL     1       2.856   4.715  20.354  0.00  0.00    +0.000 A 
ATOM      6  C   UNL     1       3.817   3.916  19.755  0.00  0.00    +0.000 A 
ATOM      7  N   UNL     1       4.504   4.619  18.793  0.00  0.00    +0.000 NA
ATOM      8  C   UNL     1       3.955   5.816  18.790  0.00  0.00    +0.000 A 
ATOM      9  N   UNL     1       2.966   5.946  19.747  0.00  0.00    +0.000 N 
ENDROOT
BRANCH   1  10
ATOM     10  N   UNL     1       4.829   1.669  19.716  0.00  0.00    +0.000 N 
ATOM     11  H   UNL     1       4.904   1.723  18.708  0.00  0.00    +0.000 HD
ATOM     12  H   UNL     1       4.745   0.751  20.132  0.00  0.00    +0.000 HD
ENDBRANCH   1  10
BRANCH   8  13
ATOM     13  S   UNL     1       4.465   7.081  17.715  0.00  0.00    +0.000 S 
BRANCH  13  14
ATOM     14  C   UNL     1       5.406   6.105  16.534  0.00  0.00    +0.000 A 
ATOM     15  C   UNL     1       4.733   5.452  15.485  0.00  0.00    +0.000 A 
ATOM     16  C   UNL     1       5.484   4.754  14.559  0.00  0.00    +0.000 A 
ATOM     17  C   UNL     1       6.853   4.678  14.645  0.00  0.00    +0.000 A 
ATOM     18  C   UNL     1       7.548   5.259  15.681  0.00  0.00    +0.000 A 
ATOM     19  C   UNL     1       6.814   5.964  16.643  0.00  0.00    +0.000 A 
ATOM     20 CL   UNL     1       7.711   6.645  17.960  0.00  0.00    +0.000 Cl
ATOM     21  O   UNL     1       7.402   3.978  13.618  0.00  0.00    +0.000 OA
ATOM     22  C   UNL     1       6.217   3.561  12.907  0.00  0.00    +0.000 C 
ATOM     23  O   UNL     1       5.000   4.084  13.480  0.00  0.00    +0.000 OA
ENDBRANCH  13  14
ENDBRANCH   8  13
BRANCH   9  24
ATOM     24  C   UNL     1       2.125   7.112  20.000  0.00  0.00    +0.000 C 
BRANCH  24  25
ATOM     25  C   UNL     1       1.659   7.888  18.756  0.00  0.00    +0.000 C 
BRANCH  25  26
ATOM     26  C   UNL     1       1.701   9.428  18.863  0.00  0.00    +0.000 C 
ATOM     27  C   UNL     1       1.153   9.876  20.242  0.00  0.00    +0.000 C 
ATOM     28  C   UNL     1      -0.366   9.735  20.341  0.00  0.00    +0.000 C 
ATOM     29  N   UNL     1      -0.998  10.454  19.251  0.00  0.00    +0.000 N 
ATOM     30  C   UNL     1      -1.945  11.428  19.474  0.00  0.00    +0.000 C 
ATOM     31  O   UNL     1      -2.520  12.085  18.620  0.00  0.00    +0.000 OA
ATOM     32  C   UNL     1      -0.592  10.090  17.899  0.00  0.00    +0.000 C 
ATOM     33  C   UNL     1       0.929  10.167  17.748  0.00  0.00    +0.000 C 
ENDBRANCH  25  26
ENDBRANCH  24  25
ENDBRANCH   9  24
TORSDOF 6
ENDMDL
MODEL 7
REMARK VINA RESULT:      -7.0      2.812      8.084
REMARK  Name = 
REMARK  6 active torsions:
REMARK  status: ('A' for Active; 'I' for Inactive)
REMARK    1  A    between atoms: N_1  and  C_2
REMARK    2  A    between atoms: C_9  and  S_10
REMARK    3  A    between atoms: S_10  and  C_11
REMARK    4  A    between atoms: N_21  and  C_22
REMARK    5  A    between atoms: C_22  and  C_23
REMARK    6  A    between atoms: C_23  and  C_24
REMARK                            x       y       z     vdW  Elec       q    Type
REMARK                         _______ _______ _______ _____ _____    ______ ____
ROOT
ATOM      1  C   UNL     1       2.207   2.512  18.887  0.00  0.00    +0.000 A 
ATOM      2  N   UNL     1       1.421   2.126  19.916  0.00  0.00    +0.000 NA
ATOM      3  C   UNL     1       1.054   3.053  20.821  0.00  0.00    +0.000 A 
ATOM      4  N   UNL     1       1.388   4.354  20.857  0.00  0.00    +0.000 NA
ATOM      5  C   UNL     1       2.189   4.695  19.833  0.00  0.00    +0.000 A 
ATOM      6  C   UNL     1       2.630   3.852  18.825  0.00  0.00    +0.000 A 
ATOM      7  N   UNL     1       3.427   4.533  17.934  0.00  0.00    +0.000 NA
ATOM      8  C   UNL     1       3.451   5.773  18.379  0.00  0.00    +0.000 A 
ATOM      9  N   UNL     1       2.742   5.926  19.555  0.00  0.00    +0.000 N 
ENDROOT
BRANCH   1  10
ATOM     10  N   UNL     1       2.564   1.547  17.954  0.00  0.00    +0.000 N 
ATOM     11  H   UNL     1       2.380   1.855  17.008  0.00  0.00    +0.000 HD
ATOM     12  H   UNL     1       2.276   0.612  18.208  0.00  0.00    +0.000 HD
ENDBRANCH   1  10
BRANCH   8  13
ATOM     13  S   UNL     1       4.316   7.044  17.572  0.00  0.00    +0.000 S 
BRANCH  13  14
ATOM     14  C   UNL     1       5.304   6.057  16.440  0.00  0.00    +0.000 A 
ATOM     15  C   UNL     1       4.686   5.450  15.331  0.00  0.00    +0.000 A 
ATOM     16  C   UNL     1       5.476   4.743  14.445  0.00  0.00    +0.000 A 
ATOM     17  C   UNL     1       6.832   4.615  14.626  0.00  0.00    +0.000 A 
ATOM     18  C   UNL     1       7.470   5.149  15.722  0.00  0.00    +0.000 A 
ATOM     19  C   UNL     1       6.695   5.862  16.645  0.00  0.00    +0.000 A 
ATOM     20 CL   UNL     1       7.518   6.484  18.037  0.00  0.00    +0.000 Cl
ATOM     21  O   UNL     1       7.428   3.915  13.626  0.00  0.00    +0.000 OA
ATOM     22  C   UNL     1       6.284   3.557  12.823  0.00  0.00    +0.000 C 
ATOM     23  O   UNL     1       5.047   4.113  13.319  0.00  0.00    +0.000 OA
ENDBRANCH  13  14
ENDBRANCH   8  13
BRANCH   9  24
ATOM     24  C   UNL     1       2.522   7.160  20.305  0.00  0.00    +0.000 C 
BRANCH  24  25
ATOM     25  C   UNL     1       1.253   7.949  19.944  0.00  0.00    +0.000 C 
BRANCH  25  26
ATOM     26  C   UNL     1       1.476   9.369  19.378  0.00  0.00    +0.000 C 
ATOM     27  C   UNL     1       0.811  10.417  20.306  0.00  0.00    +0.000 C 
ATOM     28  C   UNL     1      -0.713  10.418  20.188  0.00  0.00    +0.000 C 
ATOM     29  N   UNL     1      -1.097  10.605  18.801  0.00  0.00    +0.000 N 
ATOM     30  C   UNL     1      -1.934  11.627  18.410  0.00  0.00    +0.000 C 
ATOM     31  O   UNL     1      -2.302  11.861  17.269  0.00  0.00    +0.000 OA
ATOM     32  C   UNL     1      -0.565   9.653  17.836  0.00  0.00    +0.000 C 
ATOM     33  C   UNL     1       0.959   9.570  17.937  0.00  0.00    +0.000 C 
ENDBRANCH  25  26
ENDBRANCH  24  25
ENDBRANCH   9  24
TORSDOF 6
ENDMDL
MODEL 8
REMARK VINA RESULT:      -6.9      2.553      8.349
REMARK  Name = 
REMARK  6 active torsions:
REMARK  status: ('A' for Active; 'I' for Inactive)
REMARK    1  A    between atoms: N_1  and  C_2
REMARK    2  A    between atoms: C_9  and  S_10
REMARK    3  A    between atoms: S_10  and  C_11
REMARK    4  A    between atoms: N_21  and  C_22
REMARK    5  A    between atoms: C_22  and  C_23
REMARK    6  A    between atoms: C_23  and  C_24
REMARK                            x       y       z     vdW  Elec       q    Type
REMARK                         _______ _______ _______ _____ _____    ______ ____
ROOT
ATOM      1  C   UNL     1       3.665   2.871  20.369  0.00  0.00    +0.000 A 
ATOM      2  N   UNL     1       2.641   2.454  21.144  0.00  0.00    +0.000 NA
ATOM      3  C   UNL     1       1.580   3.268  21.293  0.00  0.00    +0.000 A 
ATOM      4  N   UNL     1       1.398   4.494  20.775  0.00  0.00    +0.000 NA
ATOM      5  C   UNL     1       2.447   4.886  20.031  0.00  0.00    +0.000 A 
ATOM      6  C   UNL     1       3.592   4.147  19.781  0.00  0.00    +0.000 A 
ATOM      7  N   UNL     1       4.457   4.847  18.972  0.00  0.00    +0.000 NA
ATOM      8  C   UNL     1       3.840   5.981  18.716  0.00  0.00    +0.000 A 
ATOM      9  N   UNL     1       2.622   6.079  19.364  0.00  0.00    +0.000 N 
ENDROOT
BRANCH   1  10
ATOM     10  N   UNL     1       4.746   2.012  20.213  0.00  0.00    +0.000 N 
ATOM     11  H   UNL     1       5.621   2.516  20.159  0.00  0.00    +0.000 HD
ATOM     12  H   UNL     1       4.584   1.277  19.537  0.00  0.00    +0.000 HD
ENDBRANCH   1  10
BRANCH   8  13
ATOM     13  S   UNL     1       4.522   7.214  17.701  0.00  0.00    +0.000 S 
BRANCH  13  14
ATOM     14  C   UNL     1       5.431   6.179  16.547  0.00  0.00    +0.000 A 
ATOM     15  C   UNL     1       4.744   5.558  15.487  0.00  0.00    +0.000 A 
ATOM     16  C   UNL     1       5.474   4.812  14.581  0.00  0.00    +0.000 A 
ATOM     17  C   UNL     1       6.834   4.659  14.697  0.00  0.00    +0.000 A 
ATOM     18  C   UNL     1       7.538   5.206  15.746  0.00  0.00    +0.000 A 
ATOM     19  C   UNL     1       6.826   5.958  16.687  0.00  0.00    +0.000 A 
ATOM     20 CL   UNL     1       7.731   6.596  18.020  0.00  0.00    +0.000 Cl
ATOM     21  O   UNL     1       7.364   3.922  13.686  0.00  0.00    +0.000 OA
ATOM     22  C   UNL     1       6.173   3.569  12.952  0.00  0.00    +0.000 C 
ATOM     23  O   UNL     1       4.975   4.164  13.495  0.00  0.00    +0.000 OA
ENDBRANCH  13  14
ENDBRANCH   8  13
BRANCH   9  24
ATOM     24  C   UNL     1       1.657   7.171  19.280  0.00  0.00    +0.000 C 
BRANCH  24  25
ATOM     25  C   UNL     1       1.773   8.256  20.365  0.00  0.00    +0.000 C 
BRANCH  25  26
ATOM     26  C   UNL     1       0.464   8.990  20.730  0.00  0.00    +0.000 C 
ATOM     27  C   UNL     1      -0.220   9.517  19.444  0.00  0.00    +0.000 C 
ATOM     28  C   UNL     1       0.502  10.729  18.852  0.00  0.00    +0.000 C 
ATOM     29  N   UNL     1       0.628  11.765  19.859  0.00  0.00    +0.000 N 
ATOM     30  C   UNL     1       0.152  13.041  19.653  0.00  0.00    +0.000 C 
ATOM     31  O   UNL     1       0.210  13.969  20.445  0.00  0.00    +0.000 OA
ATOM     32  C   UNL     1       1.294  11.398  21.101  0.00  0.00    +0.000 C 
ATOM     33  C   UNL     1       0.645  10.160  21.723  0.00  0.00    +0.000 C 
ENDBRANCH  25  26
ENDBRANCH  24  25
ENDBRANCH   9  24
TORSDOF 6
ENDMDL
MODEL 9
REMARK VINA RESULT:      -6.8      2.708      8.288
REMARK  Name = 
REMARK  6 active torsions:
REMARK  status: ('A' for Active; 'I' for Inactive)
REMARK    1  A    between atoms: N_1  and  C_2
REMARK    2  A    between atoms: C_9  and  S_10
REMARK    3  A    between atoms: S_10  and  C_11
REMARK    4  A    between atoms: N_21  and  C_22
REMARK    5  A    between atoms: C_22  and  C_23
REMARK    6  A    between atoms: C_23  and  C_24
REMARK                            x       y       z     vdW  Elec       q    Type
REMARK                         _______ _______ _______ _____ _____    ______ ____
ROOT
ATOM      1  C   UNL     1       3.621   2.874  20.191  0.00  0.00    +0.000 A 
ATOM      2  N   UNL     1       2.514   2.435  20.828  0.00  0.00    +0.000 NA
ATOM      3  C   UNL     1       1.393   3.176  20.743  0.00  0.00    +0.000 A 
ATOM      4  N   UNL     1       1.219   4.345  20.104  0.00  0.00    +0.000 NA
ATOM      5  C   UNL     1       2.347   4.761  19.504  0.00  0.00    +0.000 A 
ATOM      6  C   UNL     1       3.562   4.095  19.496  0.00  0.00    +0.000 A 
ATOM      7  N   UNL     1       4.500   4.801  18.778  0.00  0.00    +0.000 NA
ATOM      8  C   UNL     1       3.861   5.864  18.337  0.00  0.00    +0.000 A 
ATOM      9  N   UNL     1       2.551   5.914  18.778  0.00  0.00    +0.000 N 
ENDROOT
BRANCH   1  10
ATOM     10  N   UNL     1       4.765   2.090  20.276  0.00  0.00    +0.000 N 
ATOM     11  H   UNL     1       4.964   1.820  21.230  0.00  0.00    +0.000 HD
ATOM     12  H   UNL     1       5.533   2.432  19.714  0.00  0.00    +0.000 HD
ENDBRANCH   1  10
BRANCH   8  13
ATOM     13  S   UNL     1       4.618   7.071  17.344  0.00  0.00    +0.000 S 
BRANCH  13  14
ATOM     14  C   UNL     1       5.483   6.001  16.186  0.00  0.00    +0.000 A 
ATOM     15  C   UNL     1       4.773   5.420  15.119  0.00  0.00    +0.000 A 
ATOM     16  C   UNL     1       5.471   4.647  14.212  0.00  0.00    +0.000 A 
ATOM     17  C   UNL     1       6.822   4.430  14.332  0.00  0.00    +0.000 A 
ATOM     18  C   UNL     1       7.547   4.938  15.386  0.00  0.00    +0.000 A 
ATOM     19  C   UNL     1       6.866   5.716  16.330  0.00  0.00    +0.000 A 
ATOM     20 CL   UNL     1       7.794   6.303  17.670  0.00  0.00    +0.000 Cl
ATOM     21  O   UNL     1       7.322   3.676  13.318  0.00  0.00    +0.000 OA
ATOM     22  C   UNL     1       6.119   3.383  12.577  0.00  0.00    +0.000 C 
ATOM     23  O   UNL     1       4.947   4.029  13.120  0.00  0.00    +0.000 OA
ENDBRANCH  13  14
ENDBRANCH   8  13
BRANCH   9  24
ATOM     24  C   UNL     1       1.545   6.922  18.455  0.00  0.00    +0.000 C 
BRANCH  24  25
ATOM     25  C   UNL     1       1.853   8.354  18.925  0.00  0.00    +0.000 C 
BRANCH  25  26
ATOM     26  C   UNL     1       1.355   9.490  18.005  0.00  0.00    +0.000 C 
ATOM     27  C   UNL     1       1.925  10.847  18.488  0.00  0.00    +0.000 C 
ATOM     28  C   UNL     1       1.247  11.345  19.765  0.00  0.00    +0.000 C 
ATOM     29  N   UNL     1      -0.189  11.404  19.567  0.00  0.00    +0.000 N 
ATOM     30  C   UNL     1      -0.905  12.562  19.771  0.00  0.00    +0.000 C 
ATOM     31  O   UNL     1      -2.109  12.702  19.623  0.00  0.00    +0.000 OA
ATOM     32  C   UNL     1      -0.847  10.172  19.150  0.00  0.00    +0.000 C 
ATOM     33  C   UNL     1      -0.182   9.596  17.898  0.00  0.00    +0.000 C 
ENDBRANCH  25  26
ENDBRANCH  24  25
ENDBRANCH   9  24
TORSDOF 6
ENDMDL
