MODEL 1
REMARK VINA RESULT:      -6.9      0.000      0.000
REMARK  Name = 
REMARK  3 active torsions:
REMARK  status: ('A' for Active; 'I' for Inactive)
REMARK    1  A    between atoms: C_1  and  C_2
REMARK    2  A    between atoms: C_11  and  C_13
REMARK    3  A    between atoms: C_16  and  C_17
REMARK                            x       y       z     vdW  Elec       q    Type
REMARK                         _______ _______ _______ _____ _____    ______ ____
ROOT
ATOM      1  C   UNL     1       0.621   2.695  19.399  0.00  0.00    +0.000 C 
ATOM      2  C   UNL     1       1.597   3.807  19.279  0.00  0.00    +0.000 A 
ATOM      3  C   UNL     1       1.654   4.957  20.033  0.00  0.00    +0.000 A 
ATOM      4  S   UNL     1       2.983   5.914  19.535  0.00  0.00    +0.000 S 
ATOM      5  C   UNL     1       3.362   4.767  18.288  0.00  0.00    +0.000 A 
ATOM      6  N   UNL     1       4.409   4.902  17.407  0.00  0.00    +0.000 N 
ATOM      7  C   UNL     1       4.717   6.233  16.863  0.00  0.00    +0.000 C 
ATOM      8  C   UNL     1       6.193   6.595  17.012  0.00  0.00    +0.000 C 
ATOM      9  C   UNL     1       7.219   5.620  16.435  0.00  0.00    +0.000 C 
ATOM     10  N   UNL     1       6.694   4.682  15.453  0.00  0.00    +0.000 N 
ATOM     11  C   UNL     1       7.002   4.838  14.095  0.00  0.00    +0.000 C 
ATOM     12  O   UNL     1       7.850   5.644  13.710  0.00  0.00    +0.000 OA
ATOM     13  C   UNL     1       5.966   3.531  16.003  0.00  0.00    +0.000 C 
ATOM     14  C   UNL     1       4.514   3.816  16.404  0.00  0.00    +0.000 C 
ATOM     15  N   UNL     1       2.571   3.712  18.306  0.00  0.00    +0.000 NA
ENDROOT
BRANCH  11  16
ATOM     16  C   UNL     1       6.279   3.998  13.126  0.00  0.00    +0.000 A 
ATOM     17  C   UNL     1       4.984   4.248  12.713  0.00  0.00    +0.000 A 
ATOM     18  S   UNL     1       4.474   3.059  11.584  0.00  0.00    +0.000 S 
ATOM     19  C   UNL     1       5.992   2.276  11.739  0.00  0.00    +0.000 A 
ATOM     20  C   UNL     1       6.312   1.049  10.960  0.00  0.00    +0.000 C 
ATOM     21  N   UNL     1       6.837   2.846  12.569  0.00  0.00    +0.000 NA
ENDBRANCH  11  16
TORSDOF 1
ENDMDL
MODEL 2
REMARK VINA RESULT:      -6.8      0.942      1.210
REMARK  Name = 
REMARK  3 active torsions:
REMARK  status: ('A' for Active; 'I' for Inactive)
REMARK    1  A    between atoms: C_1  and  C_2
REMARK    2  A    between atoms: C_11  and  C_13
REMARK    3  A    between atoms: C_16  and  C_17
REMARK                            x       y       z     vdW  Elec       q    Type
REMARK                         _______ _______ _______ _____ _____    ______ ____
ROOT
ATOM      1  C   UNL     1       0.702   2.502  19.261  0.00  0.00    +0.000 C 
ATOM      2  C   UNL     1       1.635   3.648  19.133  0.00  0.00    +0.000 A 
ATOM      3  C   UNL     1       1.644   4.810  19.872  0.00  0.00    +0.000 A 
ATOM      4  S   UNL     1       2.940   5.809  19.370  0.00  0.00    +0.000 S 
ATOM      5  C   UNL     1       3.370   4.661  18.141  0.00  0.00    +0.000 A 
ATOM      6  N   UNL     1       4.417   4.823  17.265  0.00  0.00    +0.000 N 
ATOM      7  C   UNL     1       4.679   6.158  16.705  0.00  0.00    +0.000 C 
ATOM      8  C   UNL     1       6.139   6.577  16.859  0.00  0.00    +0.000 C 
ATOM      9  C   UNL     1       7.206   5.633  16.301  0.00  0.00    +0.000 C 
ATOM     10  N   UNL     1       6.722   4.664  15.329  0.00  0.00    +0.000 N 
ATOM     11  C   UNL     1       7.034   4.814  13.971  0.00  0.00    +0.000 C 
ATOM     12  O   UNL     1       7.853   5.646  13.580  0.00  0.00    +0.000 OA
ATOM     13  C   UNL     1       6.034   3.494  15.889  0.00  0.00    +0.000 C 
ATOM     14  C   UNL     1       4.570   3.729  16.277  0.00  0.00    +0.000 C 
ATOM     15  N   UNL     1       2.619   3.577  18.168  0.00  0.00    +0.000 NA
ENDROOT
BRANCH  11  16
ATOM     16  C   UNL     1       6.349   3.935  13.008  0.00  0.00    +0.000 A 
ATOM     17  C   UNL     1       6.934   2.819  12.441  0.00  0.00    +0.000 A 
ATOM     18  S   UNL     1       5.838   2.047  11.368  0.00  0.00    +0.000 S 
ATOM     19  C   UNL     1       4.672   3.258  11.704  0.00  0.00    +0.000 A 
ATOM     20  C   UNL     1       3.323   3.228  11.075  0.00  0.00    +0.000 C 
ATOM     21  N   UNL     1       5.052   4.184  12.556  0.00  0.00    +0.000 NA
ENDBRANCH  11  16
TORSDOF 1
ENDMDL
MODEL 3
REMARK VINA RESULT:      -6.8      3.651      5.613
REMARK  Name = 
REMARK  3 active torsions:
REMARK  status: ('A' for Active; 'I' for Inactive)
REMARK    1  A    between atoms: C_1  and  C_2
REMARK    2  A    between atoms: C_11  and  C_13
REMARK    3  A    between atoms: C_16  and  C_17
REMARK                            x       y       z     vdW  Elec       q    Type
REMARK                         _______ _______ _______ _____ _____    ______ ____
ROOT
ATOM      1  C   UNL     1       1.551  11.694  18.704  0.00  0.00    +0.000 C 
ATOM      2  C   UNL     1       1.269  10.485  19.518  0.00  0.00    +0.000 A 
ATOM      3  C   UNL     1       0.574  10.415  20.704  0.00  0.00    +0.000 A 
ATOM      4  S   UNL     1       0.487   8.789  21.233  0.00  0.00    +0.000 S 
ATOM      5  C   UNL     1       1.451   8.281  19.881  0.00  0.00    +0.000 A 
ATOM      6  N   UNL     1       1.820   6.979  19.642  0.00  0.00    +0.000 N 
ATOM      7  C   UNL     1       2.204   6.126  20.777  0.00  0.00    +0.000 C 
ATOM      8  C   UNL     1       1.461   4.792  20.781  0.00  0.00    +0.000 C 
ATOM      9  C   UNL     1       1.549   3.934  19.517  0.00  0.00    +0.000 C 
ATOM     10  N   UNL     1       2.648   4.265  18.623  0.00  0.00    +0.000 N 
ATOM     11  C   UNL     1       3.758   3.415  18.527  0.00  0.00    +0.000 C 
ATOM     12  O   UNL     1       3.767   2.298  19.044  0.00  0.00    +0.000 OA
ATOM     13  C   UNL     1       2.435   5.439  17.765  0.00  0.00    +0.000 C 
ATOM     14  C   UNL     1       2.676   6.790  18.447  0.00  0.00    +0.000 C 
ATOM     15  N   UNL     1       1.749   9.273  19.065  0.00  0.00    +0.000 NA
ENDROOT
BRANCH  11  16
ATOM     16  C   UNL     1       4.929   3.898  17.776  0.00  0.00    +0.000 A 
ATOM     17  C   UNL     1       5.994   4.557  18.360  0.00  0.00    +0.000 A 
ATOM     18  S   UNL     1       7.167   4.968  17.176  0.00  0.00    +0.000 S 
ATOM     19  C   UNL     1       6.174   4.272  15.965  0.00  0.00    +0.000 A 
ATOM     20  C   UNL     1       6.599   4.244  14.538  0.00  0.00    +0.000 C 
ATOM     21  N   UNL     1       5.041   3.760  16.391  0.00  0.00    +0.000 NA
ENDBRANCH  11  16
TORSDOF 1
ENDMDL
MODEL 4
REMARK VINA RESULT:      -6.7      3.718      5.982
REMARK  Name = 
REMARK  3 active torsions:
REMARK  status: ('A' for Active; 'I' for Inactive)
REMARK    1  A    between atoms: C_1  and  C_2
REMARK    2  A    between atoms: C_11  and  C_13
REMARK    3  A    between atoms: C_16  and  C_17
REMARK                            x       y       z     vdW  Elec       q    Type
REMARK                         _______ _______ _______ _____ _____    ______ ____
ROOT
ATOM      1  C   UNL     1       1.075  11.777  19.427  0.00  0.00    +0.000 C 
ATOM      2  C   UNL     1       0.854  10.466  20.086  0.00  0.00    +0.000 A 
ATOM      3  C   UNL     1       0.113  10.210  21.218  0.00  0.00    +0.000 A 
ATOM      4  S   UNL     1       0.133   8.533  21.560  0.00  0.00    +0.000 S 
ATOM      5  C   UNL     1       1.196   8.255  20.215  0.00  0.00    +0.000 A 
ATOM      6  N   UNL     1       1.679   7.020  19.856  0.00  0.00    +0.000 N 
ATOM      7  C   UNL     1       2.079   6.075  20.910  0.00  0.00    +0.000 C 
ATOM      8  C   UNL     1       1.445   4.697  20.726  0.00  0.00    +0.000 C 
ATOM      9  C   UNL     1       1.660   3.997  19.383  0.00  0.00    +0.000 C 
ATOM     10  N   UNL     1       2.769   4.509  18.592  0.00  0.00    +0.000 N 
ATOM     11  C   UNL     1       3.947   3.761  18.464  0.00  0.00    +0.000 C 
ATOM     12  O   UNL     1       4.023   2.596  18.856  0.00  0.00    +0.000 OA
ATOM     13  C   UNL     1       2.503   5.753  17.858  0.00  0.00    +0.000 C 
ATOM     14  C   UNL     1       2.601   7.032  18.695  0.00  0.00    +0.000 C 
ATOM     15  N   UNL     1       1.450   9.352  19.530  0.00  0.00    +0.000 NA
ENDROOT
BRANCH  11  16
ATOM     16  C   UNL     1       5.109   4.412  17.837  0.00  0.00    +0.000 A 
ATOM     17  C   UNL     1       5.587   4.081  16.583  0.00  0.00    +0.000 A 
ATOM     18  S   UNL     1       6.951   5.046  16.187  0.00  0.00    +0.000 S 
ATOM     19  C   UNL     1       6.837   5.816  17.714  0.00  0.00    +0.000 A 
ATOM     20  C   UNL     1       7.786   6.893  18.110  0.00  0.00    +0.000 C 
ATOM     21  N   UNL     1       5.855   5.400  18.482  0.00  0.00    +0.000 NA
ENDBRANCH  11  16
TORSDOF 1
ENDMDL
MODEL 5
REMARK VINA RESULT:      -6.0      2.252      6.663
REMARK  Name = 
REMARK  3 active torsions:
REMARK  status: ('A' for Active; 'I' for Inactive)
REMARK    1  A    between atoms: C_1  and  C_2
REMARK    2  A    between atoms: C_11  and  C_13
REMARK    3  A    between atoms: C_16  and  C_17
REMARK                            x       y       z     vdW  Elec       q    Type
REMARK                         _______ _______ _______ _____ _____    ______ ____
ROOT
ATOM      1  C   UNL     1       3.637   2.896  11.032  0.00  0.00    +0.000 C 
ATOM      2  C   UNL     1       4.849   3.323  11.774  0.00  0.00    +0.000 A 
ATOM      3  C   UNL     1       6.142   3.384  11.306  0.00  0.00    +0.000 A 
ATOM      4  S   UNL     1       7.179   3.975  12.533  0.00  0.00    +0.000 S 
ATOM      5  C   UNL     1       5.848   4.045  13.645  0.00  0.00    +0.000 A 
ATOM      6  N   UNL     1       5.954   4.464  14.950  0.00  0.00    +0.000 N 
ATOM      7  C   UNL     1       7.136   4.072  15.732  0.00  0.00    +0.000 C 
ATOM      8  C   UNL     1       7.803   5.264  16.416  0.00  0.00    +0.000 C 
ATOM      9  C   UNL     1       6.930   6.137  17.319  0.00  0.00    +0.000 C 
ATOM     10  N   UNL     1       5.690   5.516  17.763  0.00  0.00    +0.000 N 
ATOM     11  C   UNL     1       5.553   5.090  19.091  0.00  0.00    +0.000 C 
ATOM     12  O   UNL     1       6.382   5.378  19.955  0.00  0.00    +0.000 OA
ATOM     13  C   UNL     1       4.599   5.508  16.781  0.00  0.00    +0.000 C 
ATOM     14  C   UNL     1       4.690   4.403  15.722  0.00  0.00    +0.000 C 
ATOM     15  N   UNL     1       4.700   3.707  13.092  0.00  0.00    +0.000 NA
ENDROOT
BRANCH  11  16
ATOM     16  C   UNL     1       4.371   4.282  19.434  0.00  0.00    +0.000 A 
ATOM     17  C   UNL     1       4.353   2.901  19.402  0.00  0.00    +0.000 A 
ATOM     18  S   UNL     1       2.806   2.311  19.860  0.00  0.00    +0.000 S 
ATOM     19  C   UNL     1       2.256   3.924  20.042  0.00  0.00    +0.000 A 
ATOM     20  C   UNL     1       0.864   4.222  20.480  0.00  0.00    +0.000 C 
ATOM     21  N   UNL     1       3.147   4.855  19.786  0.00  0.00    +0.000 NA
ENDBRANCH  11  16
TORSDOF 1
ENDMDL
MODEL 6
REMARK VINA RESULT:      -5.7      2.086      6.479
REMARK  Name = 
REMARK  3 active torsions:
REMARK  status: ('A' for Active; 'I' for Inactive)
REMARK    1  A    between atoms: C_1  and  C_2
REMARK    2  A    between atoms: C_11  and  C_13
REMARK    3  A    between atoms: C_16  and  C_17
REMARK                            x       y       z     vdW  Elec       q    Type
REMARK                         _______ _______ _______ _____ _____    ______ ____
ROOT
ATOM      1  C   UNL     1       3.607   3.080  10.945  0.00  0.00    +0.000 C 
ATOM      2  C   UNL     1       4.825   3.337  11.753  0.00  0.00    +0.000 A 
ATOM      3  C   UNL     1       6.136   3.157  11.375  0.00  0.00    +0.000 A 
ATOM      4  S   UNL     1       7.180   3.630  12.647  0.00  0.00    +0.000 S 
ATOM      5  C   UNL     1       5.813   3.978  13.659  0.00  0.00    +0.000 A 
ATOM      6  N   UNL     1       5.907   4.440  14.951  0.00  0.00    +0.000 N 
ATOM      7  C   UNL     1       6.955   3.897  15.829  0.00  0.00    +0.000 C 
ATOM      8  C   UNL     1       7.770   4.995  16.509  0.00  0.00    +0.000 C 
ATOM      9  C   UNL     1       7.003   6.046  17.313  0.00  0.00    +0.000 C 
ATOM     10  N   UNL     1       5.650   5.665  17.694  0.00  0.00    +0.000 N 
ATOM     11  C   UNL     1       5.360   5.336  19.024  0.00  0.00    +0.000 C 
ATOM     12  O   UNL     1       6.170   5.526  19.932  0.00  0.00    +0.000 OA
ATOM     13  C   UNL     1       4.637   5.787  16.638  0.00  0.00    +0.000 C 
ATOM     14  C   UNL     1       4.605   4.630  15.634  0.00  0.00    +0.000 C 
ATOM     15  N   UNL     1       4.662   3.807  13.040  0.00  0.00    +0.000 NA
ENDROOT
BRANCH  11  16
ATOM     16  C   UNL     1       4.038   4.756  19.316  0.00  0.00    +0.000 A 
ATOM     17  C   UNL     1       3.029   5.438  19.967  0.00  0.00    +0.000 A 
ATOM     18  S   UNL     1       1.640   4.442  20.130  0.00  0.00    +0.000 S 
ATOM     19  C   UNL     1       2.478   3.164  19.355  0.00  0.00    +0.000 A 
ATOM     20  C   UNL     1       1.825   1.849  19.107  0.00  0.00    +0.000 C 
ATOM     21  N   UNL     1       3.710   3.439  18.988  0.00  0.00    +0.000 NA
ENDBRANCH  11  16
TORSDOF 1
ENDMDL
MODEL 7
REMARK VINA RESULT:      -5.5     10.535     11.686
REMARK  Name = 
REMARK  3 active torsions:
REMARK  status: ('A' for Active; 'I' for Inactive)
REMARK    1  A    between atoms: C_1  and  C_2
REMARK    2  A    between atoms: C_11  and  C_13
REMARK    3  A    between atoms: C_16  and  C_17
REMARK                            x       y       z     vdW  Elec       q    Type
REMARK                         _______ _______ _______ _____ _____    ______ ____
ROOT
ATOM      1  C   UNL     1      -3.066  10.486  14.832  0.00  0.00    +0.000 C 
ATOM      2  C   UNL     1      -3.291  10.904  16.238  0.00  0.00    +0.000 A 
ATOM      3  C   UNL     1      -4.476  10.892  16.938  0.00  0.00    +0.000 A 
ATOM      4  S   UNL     1      -4.212  11.433  18.540  0.00  0.00    +0.000 S 
ATOM      5  C   UNL     1      -2.538  11.723  18.183  0.00  0.00    +0.000 A 
ATOM      6  N   UNL     1      -1.629  12.215  19.090  0.00  0.00    +0.000 N 
ATOM      7  C   UNL     1      -2.050  13.272  20.021  0.00  0.00    +0.000 C 
ATOM      8  C   UNL     1      -1.709  12.939  21.472  0.00  0.00    +0.000 C 
ATOM      9  C   UNL     1      -0.252  12.604  21.794  0.00  0.00    +0.000 C 
ATOM     10  N   UNL     1       0.715  13.040  20.797  0.00  0.00    +0.000 N 
ATOM     11  C   UNL     1       1.557  14.128  21.061  0.00  0.00    +0.000 C 
ATOM     12  O   UNL     1       1.636  14.632  22.182  0.00  0.00    +0.000 OA
ATOM     13  C   UNL     1       0.822  12.189  19.604  0.00  0.00    +0.000 C 
ATOM     14  C   UNL     1      -0.265  12.416  18.548  0.00  0.00    +0.000 C 
ATOM     15  N   UNL     1      -2.208  11.367  16.957  0.00  0.00    +0.000 NA
ENDROOT
BRANCH  11  16
ATOM     16  C   UNL     1       2.362  14.660  19.948  0.00  0.00    +0.000 A 
ATOM     17  C   UNL     1       1.901  15.611  19.057  0.00  0.00    +0.000 A 
ATOM     18  S   UNL     1       3.113  15.983  17.898  0.00  0.00    +0.000 S 
ATOM     19  C   UNL     1       4.156  14.839  18.636  0.00  0.00    +0.000 A 
ATOM     20  C   UNL     1       5.534  14.606  18.125  0.00  0.00    +0.000 C 
ATOM     21  N   UNL     1       3.656  14.212  19.678  0.00  0.00    +0.000 NA
ENDBRANCH  11  16
TORSDOF 1
ENDMDL
MODEL 8
REMARK VINA RESULT:      -5.5     10.604     11.977
REMARK  Name = 
REMARK  3 active torsions:
REMARK  status: ('A' for Active; 'I' for Inactive)
REMARK    1  A    between atoms: C_1  and  C_2
REMARK    2  A    between atoms: C_11  and  C_13
REMARK    3  A    between atoms: C_16  and  C_17
REMARK                            x       y       z     vdW  Elec       q    Type
REMARK                         _______ _______ _______ _____ _____    ______ ____
ROOT
ATOM      1  C   UNL     1      -2.896  10.399  14.842  0.00  0.00    +0.000 C 
ATOM      2  C   UNL     1      -3.224  10.879  16.207  0.00  0.00    +0.000 A 
ATOM      3  C   UNL     1      -4.465  10.938  16.801  0.00  0.00    +0.000 A 
ATOM      4  S   UNL     1      -4.318  11.532  18.400  0.00  0.00    +0.000 S 
ATOM      5  C   UNL     1      -2.609  11.748  18.179  0.00  0.00    +0.000 A 
ATOM      6  N   UNL     1      -1.763  12.242  19.143  0.00  0.00    +0.000 N 
ATOM      7  C   UNL     1      -2.221  13.350  19.995  0.00  0.00    +0.000 C 
ATOM      8  C   UNL     1      -2.018  13.063  21.481  0.00  0.00    +0.000 C 
ATOM      9  C   UNL     1      -0.608  12.690  21.941  0.00  0.00    +0.000 C 
ATOM     10  N   UNL     1       0.457  13.051  21.016  0.00  0.00    +0.000 N 
ATOM     11  C   UNL     1       1.315  14.118  21.312  0.00  0.00    +0.000 C 
ATOM     12  O   UNL     1       1.317  14.662  22.417  0.00  0.00    +0.000 OA
ATOM     13  C   UNL     1       0.633  12.150  19.869  0.00  0.00    +0.000 C 
ATOM     14  C   UNL     1      -0.350  12.373  18.715  0.00  0.00    +0.000 C 
ATOM     15  N   UNL     1      -2.189  11.332  17.001  0.00  0.00    +0.000 NA
ENDROOT
BRANCH  11  16
ATOM     16  C   UNL     1       2.232  14.576  20.256  0.00  0.00    +0.000 A 
ATOM     17  C   UNL     1       3.517  14.094  20.095  0.00  0.00    +0.000 A 
ATOM     18  S   UNL     1       4.284  14.862  18.765  0.00  0.00    +0.000 S 
ATOM     19  C   UNL     1       2.874  15.803  18.508  0.00  0.00    +0.000 A 
ATOM     20  C   UNL     1       2.793  16.788  17.394  0.00  0.00    +0.000 C 
ATOM     21  N   UNL     1       1.885  15.575  19.344  0.00  0.00    +0.000 NA
ENDBRANCH  11  16
TORSDOF 1
ENDMDL
MODEL 9
REMARK VINA RESULT:      -5.5      4.146      5.824
REMARK  Name = 
REMARK  3 active torsions:
REMARK  status: ('A' for Active; 'I' for Inactive)
REMARK    1  A    between atoms: C_1  and  C_2
REMARK    2  A    between atoms: C_11  and  C_13
REMARK    3  A    between atoms: C_16  and  C_17
REMARK                            x       y       z     vdW  Elec       q    Type
REMARK                         _______ _______ _______ _____ _____    ______ ____
ROOT
ATOM      1  C   UNL     1      -0.534   9.220  23.064  0.00  0.00    +0.000 C 
ATOM      2  C   UNL     1       0.078   9.505  21.742  0.00  0.00    +0.000 A 
ATOM      3  C   UNL     1      -0.053  10.647  20.984  0.00  0.00    +0.000 A 
ATOM      4  S   UNL     1       0.876  10.507  19.553  0.00  0.00    +0.000 S 
ATOM      5  C   UNL     1       1.341   8.893  19.995  0.00  0.00    +0.000 A 
ATOM      6  N   UNL     1       2.158   8.090  19.235  0.00  0.00    +0.000 N 
ATOM      7  C   UNL     1       2.008   8.100  17.772  0.00  0.00    +0.000 C 
ATOM      8  C   UNL     1       3.339   8.313  17.053  0.00  0.00    +0.000 C 
ATOM      9  C   UNL     1       4.481   7.352  17.386  0.00  0.00    +0.000 C 
ATOM     10  N   UNL     1       4.074   6.106  18.017  0.00  0.00    +0.000 N 
ATOM     11  C   UNL     1       4.106   4.907  17.293  0.00  0.00    +0.000 C 
ATOM     12  O   UNL     1       4.635   4.832  16.184  0.00  0.00    +0.000 OA
ATOM     13  C   UNL     1       3.776   6.190  19.453  0.00  0.00    +0.000 C 
ATOM     14  C   UNL     1       2.386   6.736  19.795  0.00  0.00    +0.000 C 
ATOM     15  N   UNL     1       0.872   8.530  21.172  0.00  0.00    +0.000 NA
ENDROOT
BRANCH  11  16
ATOM     16  C   UNL     1       3.486   3.719  17.904  0.00  0.00    +0.000 A 
ATOM     17  C   UNL     1       4.205   2.632  18.364  0.00  0.00    +0.000 A 
ATOM     18  S   UNL     1       3.147   1.441  19.006  0.00  0.00    +0.000 S 
ATOM     19  C   UNL     1       1.806   2.431  18.604  0.00  0.00    +0.000 A 
ATOM     20  C   UNL     1       0.412   2.008  18.913  0.00  0.00    +0.000 C 
ATOM     21  N   UNL     1       2.103   3.577  18.032  0.00  0.00    +0.000 NA
ENDBRANCH  11  16
TORSDOF 1
ENDMDL
