MODEL 1
REMARK VINA RESULT:      -8.7      0.000      0.000
REMARK  Name = 
REMARK  2 active torsions:
REMARK  status: ('A' for Active; 'I' for Inactive)
REMARK    1  A    between atoms: C_1  and  C_2
REMARK    2  A    between atoms: C_9  and  C_10
REMARK                            x       y       z     vdW  Elec       q    Type
REMARK                         _______ _______ _______ _____ _____    ______ ____
ROOT
ATOM      1  C   UNL     1       7.121   4.785  14.909  0.00  0.00    +0.000 C 
ATOM      2  C   UNL     1       6.182   5.161  16.018  0.00  0.00    +0.000 A 
ATOM      3  N   UNL     1       5.473   6.239  15.954  0.00  0.00    +0.000 NA
ATOM      4  C   UNL     1       4.612   6.506  16.993  0.00  0.00    +0.000 A 
ATOM      5  C   UNL     1       4.503   5.711  18.077  0.00  0.00    +0.000 A 
ATOM      6  C   UNL     1       5.393   4.543  18.175  0.00  0.00    +0.000 A 
ATOM      7  O   UNL     1       5.485   3.848  19.180  0.00  0.00    +0.000 OA
ATOM      8  N   UNL     1       6.144   4.294  17.066  0.00  0.00    +0.000 N 
ATOM      9  C   UNL     1       3.523   5.976  19.200  0.00  0.00    +0.000 C 
ATOM     10  C   UNL     1       2.771   7.306  19.039  0.00  0.00    +0.000 C 
ATOM     11  C   UNL     1       2.933   8.041  17.919  0.00  0.00    +0.000 C 
ATOM     12  C   UNL     1       2.132   9.294  17.665  0.00  0.00    +0.000 C 
ATOM     13  C   UNL     1       0.864   9.360  18.519  0.00  0.00    +0.000 C 
ATOM     14  C   UNL     1       1.194   9.080  19.980  0.00  0.00    +0.000 C 
ATOM     15  C   UNL     1       1.818   7.695  20.147  0.00  0.00    +0.000 C 
ATOM     16  N   UNL     1       3.809   7.629  16.939  0.00  0.00    +0.000 N 
ATOM     17  H   UNL     1       6.756   3.493  17.114  0.00  0.00    +0.000 HD
ATOM     18  H   UNL     1       3.934   8.197  16.109  0.00  0.00    +0.000 HD
ENDROOT
BRANCH   9  19
ATOM     19  C   UNL     1       2.509   4.839  19.346  0.00  0.00    +0.000 A 
ATOM     20  C   UNL     1       1.791   4.388  18.229  0.00  0.00    +0.000 A 
ATOM     21  C   UNL     1       0.932   3.293  18.335  0.00  0.00    +0.000 A 
ATOM     22  C   UNL     1       0.780   2.639  19.558  0.00  0.00    +0.000 A 
ATOM     23  C   UNL     1       1.478   3.093  20.674  0.00  0.00    +0.000 A 
ATOM     24 BR   UNL     1       1.286   2.199  22.330  0.00  0.00    +0.000 Br
ATOM     25  C   UNL     1       2.332   4.185  20.579  0.00  0.00    +0.000 A 
ENDBRANCH   9  19
TORSDOF 1
ENDMDL
MODEL 2
REMARK VINA RESULT:      -7.2      2.254      4.534
REMARK  Name = 
REMARK  2 active torsions:
REMARK  status: ('A' for Active; 'I' for Inactive)
REMARK    1  A    between atoms: C_1  and  C_2
REMARK    2  A    between atoms: C_9  and  C_10
REMARK                            x       y       z     vdW  Elec       q    Type
REMARK                         _______ _______ _______ _____ _____    ______ ____
ROOT
ATOM      1  C   UNL     1       8.832   5.805  19.359  0.00  0.00    +0.000 C 
ATOM      2  C   UNL     1       7.382   5.688  18.988  0.00  0.00    +0.000 A 
ATOM      3  N   UNL     1       6.642   4.751  19.479  0.00  0.00    +0.000 NA
ATOM      4  C   UNL     1       5.315   4.722  19.117  0.00  0.00    +0.000 A 
ATOM      5  C   UNL     1       4.771   5.608  18.257  0.00  0.00    +0.000 A 
ATOM      6  C   UNL     1       5.656   6.605  17.633  0.00  0.00    +0.000 A 
ATOM      7  O   UNL     1       5.299   7.350  16.728  0.00  0.00    +0.000 OA
ATOM      8  N   UNL     1       6.930   6.629  18.115  0.00  0.00    +0.000 N 
ATOM      9  C   UNL     1       3.302   5.609  17.894  0.00  0.00    +0.000 C 
ATOM     10  C   UNL     1       2.532   4.424  18.498  0.00  0.00    +0.000 C 
ATOM     11  C   UNL     1       3.151   3.585  19.356  0.00  0.00    +0.000 C 
ATOM     12  C   UNL     1       2.409   2.477  20.061  0.00  0.00    +0.000 C 
ATOM     13  C   UNL     1       0.895   2.704  20.075  0.00  0.00    +0.000 C 
ATOM     14  C   UNL     1       0.396   3.036  18.674  0.00  0.00    +0.000 C 
ATOM     15  C   UNL     1       1.070   4.298  18.136  0.00  0.00    +0.000 C 
ATOM     16  N   UNL     1       4.484   3.758  19.654  0.00  0.00    +0.000 N 
ATOM     17  H   UNL     1       7.548   7.310  17.702  0.00  0.00    +0.000 HD
ATOM     18  H   UNL     1       4.942   3.113  20.288  0.00  0.00    +0.000 HD
ENDROOT
BRANCH   9  19
ATOM     19  C   UNL     1       2.619   6.915  18.306  0.00  0.00    +0.000 A 
ATOM     20  C   UNL     1       2.216   7.838  17.330  0.00  0.00    +0.000 A 
ATOM     21  C   UNL     1       1.512   8.988  17.691  0.00  0.00    +0.000 A 
ATOM     22  C   UNL     1       1.207   9.229  19.030  0.00  0.00    +0.000 A 
ATOM     23  C   UNL     1       1.618   8.325  20.006  0.00  0.00    +0.000 A 
ATOM     24 BR   UNL     1       1.191   8.641  21.821  0.00  0.00    +0.000 Br
ATOM     25  C   UNL     1       2.323   7.179  19.656  0.00  0.00    +0.000 A 
ENDBRANCH   9  19
TORSDOF 1
ENDMDL
MODEL 3
REMARK VINA RESULT:      -7.1      3.032      5.064
REMARK  Name = 
REMARK  2 active torsions:
REMARK  status: ('A' for Active; 'I' for Inactive)
REMARK    1  A    between atoms: C_1  and  C_2
REMARK    2  A    between atoms: C_9  and  C_10
REMARK                            x       y       z     vdW  Elec       q    Type
REMARK                         _______ _______ _______ _____ _____    ______ ____
ROOT
ATOM      1  C   UNL     1       1.999   1.761  22.251  0.00  0.00    +0.000 C 
ATOM      2  C   UNL     1       2.182   2.807  21.192  0.00  0.00    +0.000 A 
ATOM      3  N   UNL     1       1.844   4.036  21.401  0.00  0.00    +0.000 NA
ATOM      4  C   UNL     1       2.067   4.946  20.395  0.00  0.00    +0.000 A 
ATOM      5  C   UNL     1       2.593   4.604  19.201  0.00  0.00    +0.000 A 
ATOM      6  C   UNL     1       2.877   3.182  18.947  0.00  0.00    +0.000 A 
ATOM      7  O   UNL     1       3.207   2.746  17.851  0.00  0.00    +0.000 OA
ATOM      8  N   UNL     1       2.720   2.361  20.023  0.00  0.00    +0.000 N 
ATOM      9  C   UNL     1       2.884   5.611  18.109  0.00  0.00    +0.000 C 
ATOM     10  C   UNL     1       2.398   7.027  18.452  0.00  0.00    +0.000 C 
ATOM     11  C   UNL     1       1.887   7.288  19.674  0.00  0.00    +0.000 C 
ATOM     12  C   UNL     1       1.502   8.684  20.096  0.00  0.00    +0.000 C 
ATOM     13  C   UNL     1       2.165   9.759  19.232  0.00  0.00    +0.000 C 
ATOM     14  C   UNL     1       1.970   9.446  17.754  0.00  0.00    +0.000 C 
ATOM     15  C   UNL     1       2.581   8.092  17.394  0.00  0.00    +0.000 C 
ATOM     16  N   UNL     1       1.755   6.277  20.600  0.00  0.00    +0.000 N 
ATOM     17  H   UNL     1       2.916   1.384  19.868  0.00  0.00    +0.000 HD
ATOM     18  H   UNL     1       1.357   6.480  21.509  0.00  0.00    +0.000 HD
ENDROOT
BRANCH   9  19
ATOM     19  C   UNL     1       4.375   5.660  17.768  0.00  0.00    +0.000 A 
ATOM     20  C   UNL     1       5.318   5.935  18.770  0.00  0.00    +0.000 A 
ATOM     21  C   UNL     1       6.684   5.893  18.487  0.00  0.00    +0.000 A 
ATOM     22  C   UNL     1       7.122   5.578  17.200  0.00  0.00    +0.000 A 
ATOM     23  C   UNL     1       6.191   5.319  16.198  0.00  0.00    +0.000 A 
ATOM     24 BR   UNL     1       6.782   4.876  14.457  0.00  0.00    +0.000 Br
ATOM     25  C   UNL     1       4.828   5.364  16.469  0.00  0.00    +0.000 A 
ENDBRANCH   9  19
TORSDOF 1
ENDMDL
MODEL 4
REMARK VINA RESULT:      -7.1      1.047      1.476
REMARK  Name = 
REMARK  2 active torsions:
REMARK  status: ('A' for Active; 'I' for Inactive)
REMARK    1  A    between atoms: C_1  and  C_2
REMARK    2  A    between atoms: C_9  and  C_10
REMARK                            x       y       z     vdW  Elec       q    Type
REMARK                         _______ _______ _______ _____ _____    ______ ____
ROOT
ATOM      1  C   UNL     1       6.930   4.701  14.996  0.00  0.00    +0.000 C 
ATOM      2  C   UNL     1       6.082   5.125  16.160  0.00  0.00    +0.000 A 
ATOM      3  N   UNL     1       5.226   6.084  16.048  0.00  0.00    +0.000 NA
ATOM      4  C   UNL     1       4.464   6.400  17.149  0.00  0.00    +0.000 A 
ATOM      5  C   UNL     1       4.595   5.772  18.335  0.00  0.00    +0.000 A 
ATOM      6  C   UNL     1       5.647   4.750  18.469  0.00  0.00    +0.000 A 
ATOM      7  O   UNL     1       5.952   4.234  19.537  0.00  0.00    +0.000 OA
ATOM      8  N   UNL     1       6.291   4.429  17.312  0.00  0.00    +0.000 N 
ATOM      9  C   UNL     1       3.726   6.083  19.534  0.00  0.00    +0.000 C 
ATOM     10  C   UNL     1       2.779   7.270  19.298  0.00  0.00    +0.000 C 
ATOM     11  C   UNL     1       2.704   7.841  18.077  0.00  0.00    +0.000 C 
ATOM     12  C   UNL     1       1.711   8.932  17.767  0.00  0.00    +0.000 C 
ATOM     13  C   UNL     1       0.554   8.972  18.769  0.00  0.00    +0.000 C 
ATOM     14  C   UNL     1       1.089   8.961  20.196  0.00  0.00    +0.000 C 
ATOM     15  C   UNL     1       1.917   7.704  20.462  0.00  0.00    +0.000 C 
ATOM     16  N   UNL     1       3.509   7.394  17.052  0.00  0.00    +0.000 N 
ATOM     17  H   UNL     1       7.010   3.727  17.385  0.00  0.00    +0.000 HD
ATOM     18  H   UNL     1       3.455   7.839  16.144  0.00  0.00    +0.000 HD
ENDROOT
BRANCH   9  19
ATOM     19  C   UNL     1       2.907   4.866  19.970  0.00  0.00    +0.000 A 
ATOM     20  C   UNL     1       2.749   4.574  21.332  0.00  0.00    +0.000 A 
ATOM     21  C   UNL     1       1.931   3.519  21.740  0.00  0.00    +0.000 A 
ATOM     22  C   UNL     1       1.263   2.745  20.791  0.00  0.00    +0.000 A 
ATOM     23  C   UNL     1       1.428   3.019  19.436  0.00  0.00    +0.000 A 
ATOM     24 BR   UNL     1       0.513   1.982  18.147  0.00  0.00    +0.000 Br
ATOM     25  C   UNL     1       2.246   4.065  19.020  0.00  0.00    +0.000 A 
ENDBRANCH   9  19
TORSDOF 1
ENDMDL
MODEL 5
REMARK VINA RESULT:      -7.1      5.678      7.938
REMARK  Name = 
REMARK  2 active torsions:
REMARK  status: ('A' for Active; 'I' for Inactive)
REMARK    1  A    between atoms: C_1  and  C_2
REMARK    2  A    between atoms: C_9  and  C_10
REMARK                            x       y       z     vdW  Elec       q    Type
REMARK                         _______ _______ _______ _____ _____    ______ ____
ROOT
ATOM      1  C   UNL     1       1.768  16.178  19.597  0.00  0.00    +0.000 C 
ATOM      2  C   UNL     1       0.988  14.896  19.599  0.00  0.00    +0.000 A 
ATOM      3  N   UNL     1       0.298  14.532  18.570  0.00  0.00    +0.000 NA
ATOM      4  C   UNL     1      -0.368  13.331  18.632  0.00  0.00    +0.000 A 
ATOM      5  C   UNL     1      -0.352  12.540  19.725  0.00  0.00    +0.000 A 
ATOM      6  C   UNL     1       0.358  13.021  20.921  0.00  0.00    +0.000 A 
ATOM      7  O   UNL     1       0.304  12.459  22.008  0.00  0.00    +0.000 OA
ATOM      8  N   UNL     1       1.070  14.170  20.748  0.00  0.00    +0.000 N 
ATOM      9  C   UNL     1      -1.044  11.195  19.780  0.00  0.00    +0.000 C 
ATOM     10  C   UNL     1      -1.869  10.892  18.520  0.00  0.00    +0.000 C 
ATOM     11  C   UNL     1      -1.826  11.734  17.467  0.00  0.00    +0.000 C 
ATOM     12  C   UNL     1      -2.528  11.423  16.168  0.00  0.00    +0.000 C 
ATOM     13  C   UNL     1      -2.854   9.935  16.022  0.00  0.00    +0.000 C 
ATOM     14  C   UNL     1      -3.545   9.418  17.278  0.00  0.00    +0.000 C 
ATOM     15  C   UNL     1      -2.655   9.600  18.508  0.00  0.00    +0.000 C 
ATOM     16  N   UNL     1      -1.083  12.892  17.534  0.00  0.00    +0.000 N 
ATOM     17  H   UNL     1       1.567  14.511  21.557  0.00  0.00    +0.000 HD
ATOM     18  H   UNL     1      -1.069  13.524  16.743  0.00  0.00    +0.000 HD
ENDROOT
BRANCH   9  19
ATOM     19  C   UNL     1      -0.049  10.057  20.016  0.00  0.00    +0.000 A 
ATOM     20  C   UNL     1      -0.078   9.333  21.217  0.00  0.00    +0.000 A 
ATOM     21  C   UNL     1       0.765   8.236  21.403  0.00  0.00    +0.000 A 
ATOM     22  C   UNL     1       1.648   7.854  20.393  0.00  0.00    +0.000 A 
ATOM     23  C   UNL     1       1.694   8.578  19.205  0.00  0.00    +0.000 A 
ATOM     24 BR   UNL     1       2.878   8.053  17.827  0.00  0.00    +0.000 Br
ATOM     25  C   UNL     1       0.861   9.675  19.013  0.00  0.00    +0.000 A 
ENDBRANCH   9  19
TORSDOF 1
ENDMDL
MODEL 6
REMARK VINA RESULT:      -6.9      2.773      4.809
REMARK  Name = 
REMARK  2 active torsions:
REMARK  status: ('A' for Active; 'I' for Inactive)
REMARK    1  A    between atoms: C_1  and  C_2
REMARK    2  A    between atoms: C_9  and  C_10
REMARK                            x       y       z     vdW  Elec       q    Type
REMARK                         _______ _______ _______ _____ _____    ______ ____
ROOT
ATOM      1  C   UNL     1       2.015   1.766  22.015  0.00  0.00    +0.000 C 
ATOM      2  C   UNL     1       2.157   2.878  21.017  0.00  0.00    +0.000 A 
ATOM      3  N   UNL     1       1.822   4.089  21.315  0.00  0.00    +0.000 NA
ATOM      4  C   UNL     1       2.005   5.062  20.360  0.00  0.00    +0.000 A 
ATOM      5  C   UNL     1       2.490   4.797  19.129  0.00  0.00    +0.000 A 
ATOM      6  C   UNL     1       2.770   3.396  18.778  0.00  0.00    +0.000 A 
ATOM      7  O   UNL     1       3.062   3.031  17.645  0.00  0.00    +0.000 OA
ATOM      8  N   UNL     1       2.655   2.508  19.805  0.00  0.00    +0.000 N 
ATOM      9  C   UNL     1       2.738   5.872  18.092  0.00  0.00    +0.000 C 
ATOM     10  C   UNL     1       2.259   7.261  18.540  0.00  0.00    +0.000 C 
ATOM     11  C   UNL     1       1.791   7.442  19.793  0.00  0.00    +0.000 C 
ATOM     12  C   UNL     1       1.416   8.807  20.315  0.00  0.00    +0.000 C 
ATOM     13  C   UNL     1       2.044   9.938  19.497  0.00  0.00    +0.000 C 
ATOM     14  C   UNL     1       1.798   9.716  18.010  0.00  0.00    +0.000 C 
ATOM     15  C   UNL     1       2.401   8.391  17.545  0.00  0.00    +0.000 C 
ATOM     16  N   UNL     1       1.695   6.375  20.658  0.00  0.00    +0.000 N 
ATOM     17  H   UNL     1       2.849   1.544  19.582  0.00  0.00    +0.000 HD
ATOM     18  H   UNL     1       1.329   6.519  21.592  0.00  0.00    +0.000 HD
ENDROOT
BRANCH   9  19
ATOM     19  C   UNL     1       4.216   5.951  17.703  0.00  0.00    +0.000 A 
ATOM     20  C   UNL     1       4.583   6.280  16.390  0.00  0.00    +0.000 A 
ATOM     21  C   UNL     1       5.926   6.443  16.050  0.00  0.00    +0.000 A 
ATOM     22  C   UNL     1       6.918   6.274  17.017  0.00  0.00    +0.000 A 
ATOM     23  C   UNL     1       6.562   5.931  18.319  0.00  0.00    +0.000 A 
ATOM     24 BR   UNL     1       7.902   5.718  19.636  0.00  0.00    +0.000 Br
ATOM     25  C   UNL     1       5.226   5.763  18.665  0.00  0.00    +0.000 A 
ENDBRANCH   9  19
TORSDOF 1
ENDMDL
MODEL 7
REMARK VINA RESULT:      -6.6      5.916      8.637
REMARK  Name = 
REMARK  2 active torsions:
REMARK  status: ('A' for Active; 'I' for Inactive)
REMARK    1  A    between atoms: C_1  and  C_2
REMARK    2  A    between atoms: C_9  and  C_10
REMARK                            x       y       z     vdW  Elec       q    Type
REMARK                         _______ _______ _______ _____ _____    ______ ____
ROOT
ATOM      1  C   UNL     1      -6.295  10.681  18.391  0.00  0.00    +0.000 C 
ATOM      2  C   UNL     1      -4.839  11.039  18.436  0.00  0.00    +0.000 A 
ATOM      3  N   UNL     1      -4.426  12.079  19.079  0.00  0.00    +0.000 NA
ATOM      4  C   UNL     1      -3.074  12.330  19.100  0.00  0.00    +0.000 A 
ATOM      5  C   UNL     1      -2.176  11.555  18.458  0.00  0.00    +0.000 A 
ATOM      6  C   UNL     1      -2.677  10.433  17.648  0.00  0.00    +0.000 A 
ATOM      7  O   UNL     1      -1.965   9.767  16.906  0.00  0.00    +0.000 OA
ATOM      8  N   UNL     1      -4.014  10.195  17.757  0.00  0.00    +0.000 N 
ATOM      9  C   UNL     1      -0.683  11.800  18.519  0.00  0.00    +0.000 C 
ATOM     10  C   UNL     1      -0.315  13.089  19.270  0.00  0.00    +0.000 C 
ATOM     11  C   UNL     1      -1.276  13.805  19.891  0.00  0.00    +0.000 C 
ATOM     12  C   UNL     1      -0.951  15.012  20.735  0.00  0.00    +0.000 C 
ATOM     13  C   UNL     1       0.514  15.038  21.178  0.00  0.00    +0.000 C 
ATOM     14  C   UNL     1       1.433  14.808  19.984  0.00  0.00    +0.000 C 
ATOM     15  C   UNL     1       1.150  13.458  19.326  0.00  0.00    +0.000 C 
ATOM     16  N   UNL     1      -2.594  13.412  19.813  0.00  0.00    +0.000 N 
ATOM     17  H   UNL     1      -4.373   9.425  17.213  0.00  0.00    +0.000 HD
ATOM     18  H   UNL     1      -3.309  13.966  20.270  0.00  0.00    +0.000 HD
ENDROOT
BRANCH   9  19
ATOM     19  C   UNL     1       0.058  10.620  19.151  0.00  0.00    +0.000 A 
ATOM     20  C   UNL     1      -0.266  10.198  20.449  0.00  0.00    +0.000 A 
ATOM     21  C   UNL     1       0.341   9.068  20.998  0.00  0.00    +0.000 A 
ATOM     22  C   UNL     1       1.280   8.350  20.258  0.00  0.00    +0.000 A 
ATOM     23  C   UNL     1       1.619   8.773  18.976  0.00  0.00    +0.000 A 
ATOM     24 BR   UNL     1       2.880   7.792  17.964  0.00  0.00    +0.000 Br
ATOM     25  C   UNL     1       1.023   9.900  18.422  0.00  0.00    +0.000 A 
ENDBRANCH   9  19
TORSDOF 1
ENDMDL
MODEL 8
REMARK VINA RESULT:      -6.6      7.637      9.862
REMARK  Name = 
REMARK  2 active torsions:
REMARK  status: ('A' for Active; 'I' for Inactive)
REMARK    1  A    between atoms: C_1  and  C_2
REMARK    2  A    between atoms: C_9  and  C_10
REMARK                            x       y       z     vdW  Elec       q    Type
REMARK                         _______ _______ _______ _____ _____    ______ ____
ROOT
ATOM      1  C   UNL     1      -3.351  14.307  23.898  0.00  0.00    +0.000 C 
ATOM      2  C   UNL     1      -2.845  13.461  22.766  0.00  0.00    +0.000 A 
ATOM      3  N   UNL     1      -3.540  13.302  21.690  0.00  0.00    +0.000 NA
ATOM      4  C   UNL     1      -3.001  12.537  20.681  0.00  0.00    +0.000 A 
ATOM      5  C   UNL     1      -1.801  11.930  20.785  0.00  0.00    +0.000 A 
ATOM      6  C   UNL     1      -1.072  12.042  22.058  0.00  0.00    +0.000 A 
ATOM      7  O   UNL     1      -0.055  11.406  22.310  0.00  0.00    +0.000 OA
ATOM      8  N   UNL     1      -1.625  12.893  22.968  0.00  0.00    +0.000 N 
ATOM      9  C   UNL     1      -1.184  11.127  19.660  0.00  0.00    +0.000 C 
ATOM     10  C   UNL     1      -2.119  10.968  18.451  0.00  0.00    +0.000 C 
ATOM     11  C   UNL     1      -3.303  11.614  18.425  0.00  0.00    +0.000 C 
ATOM     12  C   UNL     1      -4.204  11.580  17.215  0.00  0.00    +0.000 C 
ATOM     13  C   UNL     1      -3.457  11.173  15.943  0.00  0.00    +0.000 C 
ATOM     14  C   UNL     1      -2.644   9.908  16.188  0.00  0.00    +0.000 C 
ATOM     15  C   UNL     1      -1.619  10.122  17.302  0.00  0.00    +0.000 C 
ATOM     16  N   UNL     1      -3.700  12.379  19.500  0.00  0.00    +0.000 N 
ATOM     17  H   UNL     1      -1.134  12.985  23.844  0.00  0.00    +0.000 HD
ATOM     18  H   UNL     1      -4.598  12.849  19.476  0.00  0.00    +0.000 HD
ENDROOT
BRANCH   9  19
ATOM     19  C   UNL     1       0.141  11.734  19.193  0.00  0.00    +0.000 A 
ATOM     20  C   UNL     1       1.174  10.903  18.735  0.00  0.00    +0.000 A 
ATOM     21  C   UNL     1       2.351  11.453  18.224  0.00  0.00    +0.000 A 
ATOM     22  C   UNL     1       2.509  12.838  18.168  0.00  0.00    +0.000 A 
ATOM     23  C   UNL     1       1.494  13.668  18.637  0.00  0.00    +0.000 A 
ATOM     24 BR   UNL     1       1.698  15.546  18.548  0.00  0.00    +0.000 Br
ATOM     25  C   UNL     1       0.321  13.129  19.152  0.00  0.00    +0.000 A 
ENDBRANCH   9  19
TORSDOF 1
ENDMDL
MODEL 9
REMARK VINA RESULT:      -6.5      9.605     11.762
REMARK  Name = 
REMARK  2 active torsions:
REMARK  status: ('A' for Active; 'I' for Inactive)
REMARK    1  A    between atoms: C_1  and  C_2
REMARK    2  A    between atoms: C_9  and  C_10
REMARK                            x       y       z     vdW  Elec       q    Type
REMARK                         _______ _______ _______ _____ _____    ______ ____
ROOT
ATOM      1  C   UNL     1       6.288  11.246  25.134  0.00  0.00    +0.000 C 
ATOM      2  C   UNL     1       7.187  12.006  24.203  0.00  0.00    +0.000 A 
ATOM      3  N   UNL     1       7.952  11.391  23.364  0.00  0.00    +0.000 NA
ATOM      4  C   UNL     1       8.729  12.152  22.522  0.00  0.00    +0.000 A 
ATOM      5  C   UNL     1       8.742  13.501  22.558  0.00  0.00    +0.000 A 
ATOM      6  C   UNL     1       7.940  14.178  23.589  0.00  0.00    +0.000 A 
ATOM      7  O   UNL     1       8.001  15.382  23.808  0.00  0.00    +0.000 OA
ATOM      8  N   UNL     1       7.128  13.361  24.317  0.00  0.00    +0.000 N 
ATOM      9  C   UNL     1       9.559  14.343  21.601  0.00  0.00    +0.000 C 
ATOM     10  C   UNL     1      10.462  13.505  20.683  0.00  0.00    +0.000 C 
ATOM     11  C   UNL     1      10.383  12.157  20.706  0.00  0.00    +0.000 C 
ATOM     12  C   UNL     1      11.166  11.297  19.746  0.00  0.00    +0.000 C 
ATOM     13  C   UNL     1      11.640  12.075  18.517  0.00  0.00    +0.000 C 
ATOM     14  C   UNL     1      12.324  13.369  18.940  0.00  0.00    +0.000 C 
ATOM     15  C   UNL     1      11.370  14.259  19.737  0.00  0.00    +0.000 C 
ATOM     16  N   UNL     1       9.529  11.528  21.584  0.00  0.00    +0.000 N 
ATOM     17  H   UNL     1       6.566  13.810  25.025  0.00  0.00    +0.000 HD
ATOM     18  H   UNL     1       9.488  10.516  21.603  0.00  0.00    +0.000 HD
ENDROOT
BRANCH   9  19
ATOM     19  C   UNL     1       8.670  15.245  20.743  0.00  0.00    +0.000 A 
ATOM     20  C   UNL     1       8.888  16.631  20.716  0.00  0.00    +0.000 A 
ATOM     21  C   UNL     1       8.141  17.449  19.868  0.00  0.00    +0.000 A 
ATOM     22  C   UNL     1       7.166  16.893  19.040  0.00  0.00    +0.000 A 
ATOM     23  C   UNL     1       6.932  15.520  19.074  0.00  0.00    +0.000 A 
ATOM     24 BR   UNL     1       5.622  14.761  17.941  0.00  0.00    +0.000 Br
ATOM     25  C   UNL     1       7.669  14.698  19.919  0.00  0.00    +0.000 A 
ENDBRANCH   9  19
TORSDOF 1
ENDMDL
