MODEL 1
REMARK VINA RESULT:      -8.6      0.000      0.000
REMARK  Name = 
REMARK  14 active torsions:
REMARK  status: ('A' for Active; 'I' for Inactive)
REMARK    1  A    between atoms: C_1  and  O_2
REMARK    2  A    between atoms: O_2  and  C_3
REMARK    3  A    between atoms: C_3  and  C_5
REMARK    4  A    between atoms: C_5  and  C_6
REMARK    5  A    between atoms: C_5  and  N_13
REMARK    6  A    between atoms: C_6  and  C_7
REMARK    7  A    between atoms: C_7  and  C_8
REMARK    8  A    between atoms: C_8  and  N_9
REMARK    9  A    between atoms: C_14  and  C_16
REMARK   10  A    between atoms: C_16  and  N_17
REMARK   11  A    between atoms: C_16  and  C_18
REMARK   12  A    between atoms: C_18  and  C_19
REMARK   13  A    between atoms: C_22  and  C_23
REMARK   14  A    between atoms: C_26  and  C_27
REMARK                            x       y       z     vdW  Elec       q    Type
REMARK                         _______ _______ _______ _____ _____    ______ ____
ROOT
ATOM      1  C   UNL     1       5.831   4.739  17.403  0.00  0.00    +0.000 C 
ENDROOT
BRANCH   1   3
ATOM      2  N   UNL     1       3.480   5.350  17.780  0.00  0.00    +0.000 N 
ATOM      3  C   UNL     1       4.712   5.183  18.369  0.00  0.00    +0.000 C 
ATOM      4  O   UNL     1       4.901   5.337  19.573  0.00  0.00    +0.000 OA
ATOM      5  H   UNL     1       3.391   5.287  16.773  0.00  0.00    +0.000 HD
BRANCH   2   6
ATOM      6  C   UNL     1       2.316   5.862  18.510  0.00  0.00    +0.000 C 
BRANCH   6   7
ATOM      7  C   UNL     1       2.435   7.389  18.642  0.00  0.00    +0.000 C 
ATOM      8  O   UNL     1       2.782   8.134  17.737  0.00  0.00    +0.000 OA
BRANCH   7  10
ATOM      9  C   UNL     1       1.271   9.050  19.827  0.00  0.00    +0.000 C 
ATOM     10  O   UNL     1       1.980   7.810  19.863  0.00  0.00    +0.000 OA
ENDBRANCH   7  10
ENDBRANCH   6   7
BRANCH   6  11
ATOM     11  C   UNL     1       2.264   5.210  19.900  0.00  0.00    +0.000 C 
BRANCH  11  12
ATOM     12  C   UNL     1       1.185   4.132  20.048  0.00  0.00    +0.000 C 
BRANCH  12  13
ATOM     13  C   UNL     1       1.732   2.760  19.654  0.00  0.00    +0.000 C 
BRANCH  13  14
ATOM     14  N   UNL     1       3.091   2.598  20.133  0.00  0.00    +0.000 N 
ATOM     15  C   UNL     1       4.035   1.900  19.466  0.00  0.00    +0.000 C 
ATOM     16  N   UNL     1       3.989   1.442  18.271  0.00  0.00    +0.000 NA
ATOM     17  N   UNL     1       5.145   1.708  20.204  0.00  0.00    +0.000 N 
ATOM     18  H   UNL     1       3.180   2.530  21.138  0.00  0.00    +0.000 HD
ATOM     19  H   UNL     1       3.083   1.665  17.856  0.00  0.00    +0.000 HD
ATOM     20  H   UNL     1       5.447   2.537  20.701  0.00  0.00    +0.000 HD
ATOM     21  H   UNL     1       5.885   1.354  19.606  0.00  0.00    +0.000 HD
ENDBRANCH  13  14
ENDBRANCH  12  13
ENDBRANCH  11  12
ENDBRANCH   6  11
ENDBRANCH   2   6
ENDBRANCH   1   3
BRANCH   1  22
ATOM     22  N   UNL     1       5.311   3.703  16.476  0.00  0.00    +0.000 NA
ATOM     23  H   UNL     1       5.904   2.877  16.508  0.00  0.00    +0.000 HD
ATOM     24  H   UNL     1       5.394   4.065  15.524  0.00  0.00    +0.000 HD
ENDBRANCH   1  22
BRANCH   1  25
ATOM     25  C   UNL     1       6.418   5.939  16.643  0.00  0.00    +0.000 C 
BRANCH  25  26
ATOM     26  C   UNL     1       7.313   6.757  17.508  0.00  0.00    +0.000 A 
ATOM     27  C   UNL     1       8.030   6.359  18.612  0.00  0.00    +0.000 A 
ATOM     28  N   UNL     1       8.609   7.497  19.089  0.00  0.00    +0.000 N 
ATOM     29  C   UNL     1       8.251   8.545  18.273  0.00  0.00    +0.000 A 
ATOM     30  N   UNL     1       7.480   8.108  17.293  0.00  0.00    +0.000 NA
ATOM     31  H   UNL     1       9.207   7.568  19.900  0.00  0.00    +0.000 HD
BRANCH  29  32
ATOM     32  C   UNL     1       8.717   9.915  18.497  0.00  0.00    +0.000 A 
ATOM     33  C   UNL     1       8.418  10.918  17.575  0.00  0.00    +0.000 A 
ATOM     34  C   UNL     1       8.907  12.219  17.755  0.00  0.00    +0.000 A 
ATOM     35  C   UNL     1       9.687  12.569  18.873  0.00  0.00    +0.000 A 
ATOM     36  C   UNL     1       9.954  11.554  19.805  0.00  0.00    +0.000 A 
ATOM     37  C   UNL     1       9.482  10.248  19.619  0.00  0.00    +0.000 A 
BRANCH  35  38
ATOM     38  C   UNL     1      10.203  13.947  19.058  0.00  0.00    +0.000 A 
ATOM     39  C   UNL     1      11.014  14.281  20.159  0.00  0.00    +0.000 A 
ATOM     40  C   UNL     1      11.481  15.584  20.357  0.00  0.00    +0.000 A 
ATOM     41  C   UNL     1      11.165  16.585  19.446  0.00  0.00    +0.000 A 
ATOM     42  C   UNL     1      10.383  16.282  18.336  0.00  0.00    +0.000 A 
ATOM     43  C   UNL     1       9.903  14.980  18.148  0.00  0.00    +0.000 A 
ENDBRANCH  35  38
ENDBRANCH  29  32
ENDBRANCH  25  26
ENDBRANCH   1  25
TORSDOF 13
ENDMDL
MODEL 2
REMARK VINA RESULT:      -8.6      4.909      8.846
REMARK  Name = 
REMARK  14 active torsions:
REMARK  status: ('A' for Active; 'I' for Inactive)
REMARK    1  A    between atoms: C_1  and  O_2
REMARK    2  A    between atoms: O_2  and  C_3
REMARK    3  A    between atoms: C_3  and  C_5
REMARK    4  A    between atoms: C_5  and  C_6
REMARK    5  A    between atoms: C_5  and  N_13
REMARK    6  A    between atoms: C_6  and  C_7
REMARK    7  A    between atoms: C_7  and  C_8
REMARK    8  A    between atoms: C_8  and  N_9
REMARK    9  A    between atoms: C_14  and  C_16
REMARK   10  A    between atoms: C_16  and  N_17
REMARK   11  A    between atoms: C_16  and  C_18
REMARK   12  A    between atoms: C_18  and  C_19
REMARK   13  A    between atoms: C_22  and  C_23
REMARK   14  A    between atoms: C_26  and  C_27
REMARK                            x       y       z     vdW  Elec       q    Type
REMARK                         _______ _______ _______ _____ _____    ______ ____
ROOT
ATOM      1  C   UNL     1       2.706   4.430  18.459  0.00  0.00    +0.000 C 
ENDROOT
BRANCH   1   3
ATOM      2  N   UNL     1       4.728   4.583  17.070  0.00  0.00    +0.000 N 
ATOM      3  C   UNL     1       3.837   3.729  17.677  0.00  0.00    +0.000 C 
ATOM      4  O   UNL     1       3.951   2.507  17.635  0.00  0.00    +0.000 OA
ATOM      5  H   UNL     1       4.548   5.580  17.067  0.00  0.00    +0.000 HD
BRANCH   2   6
ATOM      6  C   UNL     1       5.811   4.111  16.202  0.00  0.00    +0.000 C 
BRANCH   6   7
ATOM      7  C   UNL     1       7.128   4.780  16.628  0.00  0.00    +0.000 C 
ATOM      8  O   UNL     1       8.075   4.184  17.120  0.00  0.00    +0.000 OA
BRANCH   7  10
ATOM      9  C   UNL     1       7.460   6.997  17.333  0.00  0.00    +0.000 C 
ATOM     10  O   UNL     1       7.145   6.100  16.266  0.00  0.00    +0.000 OA
ENDBRANCH   7  10
ENDBRANCH   6   7
BRANCH   6  11
ATOM     11  C   UNL     1       5.482   4.465  14.743  0.00  0.00    +0.000 C 
BRANCH  11  12
ATOM     12  C   UNL     1       6.425   3.832  13.715  0.00  0.00    +0.000 C 
BRANCH  12  13
ATOM     13  C   UNL     1       5.701   3.590  12.392  0.00  0.00    +0.000 C 
BRANCH  13  14
ATOM     14  N   UNL     1       5.590   2.169  12.125  0.00  0.00    +0.000 N 
ATOM     15  C   UNL     1       6.501   1.474  11.412  0.00  0.00    +0.000 C 
ATOM     16  N   UNL     1       7.662   1.850  11.023  0.00  0.00    +0.000 NA
ATOM     17  N   UNL     1       6.078   0.230  11.116  0.00  0.00    +0.000 N 
ATOM     18  H   UNL     1       4.644   1.835  11.997  0.00  0.00    +0.000 HD
ATOM     19  H   UNL     1       7.823   2.814  11.320  0.00  0.00    +0.000 HD
ATOM     20  H   UNL     1       5.643  -0.244  11.898  0.00  0.00    +0.000 HD
ATOM     21  H   UNL     1       6.857  -0.309  10.754  0.00  0.00    +0.000 HD
ENDBRANCH  13  14
ENDBRANCH  12  13
ENDBRANCH  11  12
ENDBRANCH   6  11
ENDBRANCH   2   6
ENDBRANCH   1   3
BRANCH   1  22
ATOM     22  N   UNL     1       1.891   3.418  19.178  0.00  0.00    +0.000 NA
ATOM     23  H   UNL     1       2.085   3.460  20.176  0.00  0.00    +0.000 HD
ATOM     24  H   UNL     1       2.203   2.493  18.875  0.00  0.00    +0.000 HD
ENDBRANCH   1  22
BRANCH   1  25
ATOM     25  C   UNL     1       3.268   5.492  19.417  0.00  0.00    +0.000 C 
BRANCH  25  26
ATOM     26  C   UNL     1       2.546   6.788  19.291  0.00  0.00    +0.000 A 
ATOM     27  C   UNL     1       2.475   7.623  18.200  0.00  0.00    +0.000 A 
ATOM     28  N   UNL     1       1.773   8.710  18.628  0.00  0.00    +0.000 N 
ATOM     29  C   UNL     1       1.424   8.514  19.944  0.00  0.00    +0.000 A 
ATOM     30  N   UNL     1       1.868   7.339  20.356  0.00  0.00    +0.000 NA
ATOM     31  H   UNL     1       1.538   9.523  18.078  0.00  0.00    +0.000 HD
BRANCH  29  32
ATOM     32  C   UNL     1       0.646   9.490  20.709  0.00  0.00    +0.000 A 
ATOM     33  C   UNL     1       0.529   9.366  22.094  0.00  0.00    +0.000 A 
ATOM     34  C   UNL     1      -0.259  10.266  22.825  0.00  0.00    +0.000 A 
ATOM     35  C   UNL     1      -0.934  11.334  22.204  0.00  0.00    +0.000 A 
ATOM     36  C   UNL     1      -0.782  11.459  20.814  0.00  0.00    +0.000 A 
ATOM     37  C   UNL     1      -0.010  10.552  20.077  0.00  0.00    +0.000 A 
BRANCH  35  38
ATOM     38  C   UNL     1      -1.767  12.282  22.982  0.00  0.00    +0.000 A 
ATOM     39  C   UNL     1      -1.292  13.561  23.324  0.00  0.00    +0.000 A 
ATOM     40  C   UNL     1      -2.059  14.450  24.083  0.00  0.00    +0.000 A 
ATOM     41  C   UNL     1      -3.334  14.089  24.502  0.00  0.00    +0.000 A 
ATOM     42  C   UNL     1      -3.842  12.840  24.163  0.00  0.00    +0.000 A 
ATOM     43  C   UNL     1      -3.064  11.945  23.417  0.00  0.00    +0.000 A 
ENDBRANCH  35  38
ENDBRANCH  29  32
ENDBRANCH  25  26
ENDBRANCH   1  25
TORSDOF 13
ENDMDL
MODEL 3
REMARK VINA RESULT:      -8.5      2.089      3.652
REMARK  Name = 
REMARK  14 active torsions:
REMARK  status: ('A' for Active; 'I' for Inactive)
REMARK    1  A    between atoms: C_1  and  O_2
REMARK    2  A    between atoms: O_2  and  C_3
REMARK    3  A    between atoms: C_3  and  C_5
REMARK    4  A    between atoms: C_5  and  C_6
REMARK    5  A    between atoms: C_5  and  N_13
REMARK    6  A    between atoms: C_6  and  C_7
REMARK    7  A    between atoms: C_7  and  C_8
REMARK    8  A    between atoms: C_8  and  N_9
REMARK    9  A    between atoms: C_14  and  C_16
REMARK   10  A    between atoms: C_16  and  N_17
REMARK   11  A    between atoms: C_16  and  C_18
REMARK   12  A    between atoms: C_18  and  C_19
REMARK   13  A    between atoms: C_22  and  C_23
REMARK   14  A    between atoms: C_26  and  C_27
REMARK                            x       y       z     vdW  Elec       q    Type
REMARK                         _______ _______ _______ _____ _____    ______ ____
ROOT
ATOM      1  C   UNL     1       6.201   4.496  17.124  0.00  0.00    +0.000 C 
ENDROOT
BRANCH   1   3
ATOM      2  N   UNL     1       3.937   4.952  17.967  0.00  0.00    +0.000 N 
ATOM      3  C   UNL     1       5.174   4.434  18.275  0.00  0.00    +0.000 C 
ATOM      4  O   UNL     1       5.431   3.925  19.363  0.00  0.00    +0.000 OA
ATOM      5  H   UNL     1       3.797   5.430  17.085  0.00  0.00    +0.000 HD
BRANCH   2   6
ATOM      6  C   UNL     1       2.862   5.073  18.955  0.00  0.00    +0.000 C 
BRANCH   6   7
ATOM      7  C   UNL     1       1.674   4.201  18.518  0.00  0.00    +0.000 C 
ATOM      8  O   UNL     1       1.396   3.949  17.354  0.00  0.00    +0.000 OA
BRANCH   7  10
ATOM      9  C   UNL     1       1.921   3.367  20.700  0.00  0.00    +0.000 C 
ATOM     10  O   UNL     1       1.050   3.645  19.602  0.00  0.00    +0.000 OA
ENDBRANCH   7  10
ENDBRANCH   6   7
BRANCH   6  11
ATOM     11  C   UNL     1       2.432   6.545  19.059  0.00  0.00    +0.000 C 
BRANCH  11  12
ATOM     12  C   UNL     1       2.645   7.353  17.775  0.00  0.00    +0.000 C 
BRANCH  12  13
ATOM     13  C   UNL     1       2.403   8.841  18.025  0.00  0.00    +0.000 C 
BRANCH  13  14
ATOM     14  N   UNL     1       1.418   9.027  19.074  0.00  0.00    +0.000 N 
ATOM     15  C   UNL     1       0.354   9.849  18.956  0.00  0.00    +0.000 C 
ATOM     16  N   UNL     1      -0.084  10.437  17.907  0.00  0.00    +0.000 NA
ATOM     17  N   UNL     1      -0.291  10.020  20.126  0.00  0.00    +0.000 N 
ATOM     18  H   UNL     1       1.788   8.985  20.014  0.00  0.00    +0.000 HD
ATOM     19  H   UNL     1       0.519  10.211  17.114  0.00  0.00    +0.000 HD
ATOM     20  H   UNL     1      -0.427   9.159  20.641  0.00  0.00    +0.000 HD
ATOM     21  H   UNL     1      -1.178  10.482  19.952  0.00  0.00    +0.000 HD
ENDBRANCH  13  14
ENDBRANCH  12  13
ENDBRANCH  11  12
ENDBRANCH   6  11
ENDBRANCH   2   6
ENDBRANCH   1   3
BRANCH   1  22
ATOM     22  N   UNL     1       5.799   3.563  16.041  0.00  0.00    +0.000 NA
ATOM     23  H   UNL     1       6.251   3.826  15.169  0.00  0.00    +0.000 HD
ATOM     24  H   UNL     1       4.797   3.685  15.880  0.00  0.00    +0.000 HD
ENDBRANCH   1  22
BRANCH   1  25
ATOM     25  C   UNL     1       6.367   5.933  16.604  0.00  0.00    +0.000 C 
BRANCH  25  26
ATOM     26  C   UNL     1       7.255   6.740  17.485  0.00  0.00    +0.000 A 
ATOM     27  C   UNL     1       7.916   6.344  18.625  0.00  0.00    +0.000 A 
ATOM     28  N   UNL     1       8.515   7.473  19.099  0.00  0.00    +0.000 N 
ATOM     29  C   UNL     1       8.226   8.513  18.246  0.00  0.00    +0.000 A 
ATOM     30  N   UNL     1       7.478   8.079  17.246  0.00  0.00    +0.000 NA
ATOM     31  H   UNL     1       9.083   7.543  19.931  0.00  0.00    +0.000 HD
BRANCH  29  32
ATOM     32  C   UNL     1       8.730   9.871  18.457  0.00  0.00    +0.000 A 
ATOM     33  C   UNL     1       8.334  10.907  17.611  0.00  0.00    +0.000 A 
ATOM     34  C   UNL     1       8.856  12.198  17.774  0.00  0.00    +0.000 A 
ATOM     35  C   UNL     1       9.768  12.505  18.801  0.00  0.00    +0.000 A 
ATOM     36  C   UNL     1      10.133  11.456  19.660  0.00  0.00    +0.000 A 
ATOM     37  C   UNL     1       9.628  10.160  19.490  0.00  0.00    +0.000 A 
BRANCH  35  38
ATOM     38  C   UNL     1      10.318  13.871  18.968  0.00  0.00    +0.000 A 
ATOM     39  C   UNL     1      11.003  14.245  20.139  0.00  0.00    +0.000 A 
ATOM     40  C   UNL     1      11.499  15.539  20.317  0.00  0.00    +0.000 A 
ATOM     41  C   UNL     1      11.340  16.492  19.317  0.00  0.00    +0.000 A 
ATOM     42  C   UNL     1      10.686  16.148  18.138  0.00  0.00    +0.000 A 
ATOM     43  C   UNL     1      10.175  14.856  17.970  0.00  0.00    +0.000 A 
ENDBRANCH  35  38
ENDBRANCH  29  32
ENDBRANCH  25  26
ENDBRANCH   1  25
TORSDOF 13
ENDMDL
MODEL 4
REMARK VINA RESULT:      -8.3      4.833      8.842
REMARK  Name = 
REMARK  14 active torsions:
REMARK  status: ('A' for Active; 'I' for Inactive)
REMARK    1  A    between atoms: C_1  and  O_2
REMARK    2  A    between atoms: O_2  and  C_3
REMARK    3  A    between atoms: C_3  and  C_5
REMARK    4  A    between atoms: C_5  and  C_6
REMARK    5  A    between atoms: C_5  and  N_13
REMARK    6  A    between atoms: C_6  and  C_7
REMARK    7  A    between atoms: C_7  and  C_8
REMARK    8  A    between atoms: C_8  and  N_9
REMARK    9  A    between atoms: C_14  and  C_16
REMARK   10  A    between atoms: C_16  and  N_17
REMARK   11  A    between atoms: C_16  and  C_18
REMARK   12  A    between atoms: C_18  and  C_19
REMARK   13  A    between atoms: C_22  and  C_23
REMARK   14  A    between atoms: C_26  and  C_27
REMARK                            x       y       z     vdW  Elec       q    Type
REMARK                         _______ _______ _______ _____ _____    ______ ____
ROOT
ATOM      1  C   UNL     1       2.428   4.467  18.549  0.00  0.00    +0.000 C 
ENDROOT
BRANCH   1   3
ATOM      2  N   UNL     1       4.417   4.731  17.129  0.00  0.00    +0.000 N 
ATOM      3  C   UNL     1       3.714   3.870  17.940  0.00  0.00    +0.000 C 
ATOM      4  O   UNL     1       4.098   2.731  18.193  0.00  0.00    +0.000 OA
ATOM      5  H   UNL     1       4.021   5.631  16.888  0.00  0.00    +0.000 HD
BRANCH   2   6
ATOM      6  C   UNL     1       5.609   4.318  16.382  0.00  0.00    +0.000 C 
BRANCH   6   7
ATOM      7  C   UNL     1       6.864   4.806  17.124  0.00  0.00    +0.000 C 
ATOM      8  O   UNL     1       7.972   4.305  17.007  0.00  0.00    +0.000 OA
BRANCH   7  10
ATOM      9  C   UNL     1       7.378   7.079  17.426  0.00  0.00    +0.000 C 
ATOM     10  O   UNL     1       6.600   5.950  17.829  0.00  0.00    +0.000 OA
ENDBRANCH   7  10
ENDBRANCH   6   7
BRANCH   6  11
ATOM     11  C   UNL     1       5.557   4.924  14.971  0.00  0.00    +0.000 C 
BRANCH  11  12
ATOM     12  C   UNL     1       6.896   4.900  14.227  0.00  0.00    +0.000 C 
BRANCH  12  13
ATOM     13  C   UNL     1       6.860   3.894  13.077  0.00  0.00    +0.000 C 
BRANCH  13  14
ATOM     14  N   UNL     1       5.515   3.774  12.549  0.00  0.00    +0.000 N 
ATOM     15  C   UNL     1       5.122   2.768  11.739  0.00  0.00    +0.000 C 
ATOM     16  N   UNL     1       5.746   1.688  11.452  0.00  0.00    +0.000 NA
ATOM     17  N   UNL     1       3.903   2.986  11.207  0.00  0.00    +0.000 N 
ATOM     18  H   UNL     1       5.062   4.654  12.340  0.00  0.00    +0.000 HD
ATOM     19  H   UNL     1       6.651   1.683  11.926  0.00  0.00    +0.000 HD
ATOM     20  H   UNL     1       3.228   3.331  11.878  0.00  0.00    +0.000 HD
ATOM     21  H   UNL     1       3.575   2.132  10.768  0.00  0.00    +0.000 HD
ENDBRANCH  13  14
ENDBRANCH  12  13
ENDBRANCH  11  12
ENDBRANCH   6  11
ENDBRANCH   2   6
ENDBRANCH   1   3
BRANCH   1  22
ATOM     22  N   UNL     1       1.452   3.382  18.823  0.00  0.00    +0.000 NA
ATOM     23  H   UNL     1       1.943   2.511  19.010  0.00  0.00    +0.000 HD
ATOM     24  H   UNL     1       0.918   3.218  17.967  0.00  0.00    +0.000 HD
ENDBRANCH   1  22
BRANCH   1  25
ATOM     25  C   UNL     1       2.739   5.283  19.814  0.00  0.00    +0.000 C 
BRANCH  25  26
ATOM     26  C   UNL     1       2.235   6.680  19.707  0.00  0.00    +0.000 A 
ATOM     27  C   UNL     1       2.463   7.597  18.708  0.00  0.00    +0.000 A 
ATOM     28  N   UNL     1       1.856   8.742  19.129  0.00  0.00    +0.000 N 
ATOM     29  C   UNL     1       1.267   8.502  20.349  0.00  0.00    +0.000 A 
ATOM     30  N   UNL     1       1.470   7.245  20.705  0.00  0.00    +0.000 NA
ATOM     31  H   UNL     1       1.831   9.622  18.633  0.00  0.00    +0.000 HD
BRANCH  29  32
ATOM     32  C   UNL     1       0.515   9.524  21.078  0.00  0.00    +0.000 A 
ATOM     33  C   UNL     1       0.042   9.265  22.365  0.00  0.00    +0.000 A 
ATOM     34  C   UNL     1      -0.726  10.220  23.046  0.00  0.00    +0.000 A 
ATOM     35  C   UNL     1      -1.024  11.473  22.480  0.00  0.00    +0.000 A 
ATOM     36  C   UNL     1      -0.516  11.726  21.196  0.00  0.00    +0.000 A 
ATOM     37  C   UNL     1       0.236  10.769  20.504  0.00  0.00    +0.000 A 
BRANCH  35  38
ATOM     38  C   UNL     1      -1.838  12.478  23.205  0.00  0.00    +0.000 A 
ATOM     39  C   UNL     1      -3.161  12.200  23.597  0.00  0.00    +0.000 A 
ATOM     40  C   UNL     1      -3.946  13.152  24.255  0.00  0.00    +0.000 A 
ATOM     41  C   UNL     1      -3.420  14.403  24.556  0.00  0.00    +0.000 A 
ATOM     42  C   UNL     1      -2.108  14.701  24.201  0.00  0.00    +0.000 A 
ATOM     43  C   UNL     1      -1.330  13.752  23.527  0.00  0.00    +0.000 A 
ENDBRANCH  35  38
ENDBRANCH  29  32
ENDBRANCH  25  26
ENDBRANCH   1  25
TORSDOF 13
ENDMDL
MODEL 5
REMARK VINA RESULT:      -8.2      0.690      1.546
REMARK  Name = 
REMARK  14 active torsions:
REMARK  status: ('A' for Active; 'I' for Inactive)
REMARK    1  A    between atoms: C_1  and  O_2
REMARK    2  A    between atoms: O_2  and  C_3
REMARK    3  A    between atoms: C_3  and  C_5
REMARK    4  A    between atoms: C_5  and  C_6
REMARK    5  A    between atoms: C_5  and  N_13
REMARK    6  A    between atoms: C_6  and  C_7
REMARK    7  A    between atoms: C_7  and  C_8
REMARK    8  A    between atoms: C_8  and  N_9
REMARK    9  A    between atoms: C_14  and  C_16
REMARK   10  A    between atoms: C_16  and  N_17
REMARK   11  A    between atoms: C_16  and  C_18
REMARK   12  A    between atoms: C_18  and  C_19
REMARK   13  A    between atoms: C_22  and  C_23
REMARK   14  A    between atoms: C_26  and  C_27
REMARK                            x       y       z     vdW  Elec       q    Type
REMARK                         _______ _______ _______ _____ _____    ______ ____
ROOT
ATOM      1  C   UNL     1       5.882   4.745  17.396  0.00  0.00    +0.000 C 
ENDROOT
BRANCH   1   3
ATOM      2  N   UNL     1       3.502   5.360  17.455  0.00  0.00    +0.000 N 
ATOM      3  C   UNL     1       4.617   5.084  18.213  0.00  0.00    +0.000 C 
ATOM      4  O   UNL     1       4.600   5.069  19.441  0.00  0.00    +0.000 OA
ATOM      5  H   UNL     1       3.585   5.436  16.448  0.00  0.00    +0.000 HD
BRANCH   2   6
ATOM      6  C   UNL     1       2.234   5.799  18.043  0.00  0.00    +0.000 C 
BRANCH   6   7
ATOM      7  C   UNL     1       2.496   6.991  18.977  0.00  0.00    +0.000 C 
ATOM      8  O   UNL     1       2.396   6.948  20.195  0.00  0.00    +0.000 OA
BRANCH   7  10
ATOM      9  C   UNL     1       1.971   8.850  17.640  0.00  0.00    +0.000 C 
ATOM     10  O   UNL     1       2.979   8.064  18.276  0.00  0.00    +0.000 OA
ENDBRANCH   7  10
ENDBRANCH   6   7
BRANCH   6  11
ATOM     11  C   UNL     1       1.610   4.635  18.829  0.00  0.00    +0.000 C 
BRANCH  11  12
ATOM     12  C   UNL     1       1.495   3.331  18.032  0.00  0.00    +0.000 C 
BRANCH  12  13
ATOM     13  C   UNL     1       1.694   2.120  18.944  0.00  0.00    +0.000 C 
BRANCH  13  14
ATOM     14  N   UNL     1       3.102   1.790  19.051  0.00  0.00    +0.000 N 
ATOM     15  C   UNL     1       3.857   2.097  20.127  0.00  0.00    +0.000 C 
ATOM     16  N   UNL     1       3.474   2.529  21.270  0.00  0.00    +0.000 NA
ATOM     17  N   UNL     1       5.169   1.886  19.908  0.00  0.00    +0.000 N 
ATOM     18  H   UNL     1       3.614   1.832  18.180  0.00  0.00    +0.000 HD
ATOM     19  H   UNL     1       2.459   2.641  21.268  0.00  0.00    +0.000 HD
ATOM     20  H   UNL     1       5.364   1.010  19.441  0.00  0.00    +0.000 HD
ATOM     21  H   UNL     1       5.667   1.946  20.790  0.00  0.00    +0.000 HD
ENDBRANCH  13  14
ENDBRANCH  12  13
ENDBRANCH  11  12
ENDBRANCH   6  11
ENDBRANCH   2   6
ENDBRANCH   1   3
BRANCH   1  22
ATOM     22  N   UNL     1       5.592   3.626  16.464  0.00  0.00    +0.000 NA
ATOM     23  H   UNL     1       5.582   2.744  16.972  0.00  0.00    +0.000 HD
ATOM     24  H   UNL     1       6.372   3.556  15.807  0.00  0.00    +0.000 HD
ENDBRANCH   1  22
BRANCH   1  25
ATOM     25  C   UNL     1       6.411   5.981  16.651  0.00  0.00    +0.000 C 
BRANCH  25  26
ATOM     26  C   UNL     1       7.303   6.805  17.513  0.00  0.00    +0.000 A 
ATOM     27  C   UNL     1       7.981   6.427  18.648  0.00  0.00    +0.000 A 
ATOM     28  N   UNL     1       8.577   7.565  19.104  0.00  0.00    +0.000 N 
ATOM     29  C   UNL     1       8.267   8.594  18.244  0.00  0.00    +0.000 A 
ATOM     30  N   UNL     1       7.511   8.143  17.258  0.00  0.00    +0.000 NA
ATOM     31  H   UNL     1       9.154   7.649  19.928  0.00  0.00    +0.000 HD
BRANCH  29  32
ATOM     32  C   UNL     1       8.762   9.958  18.435  0.00  0.00    +0.000 A 
ATOM     33  C   UNL     1       9.632  10.251  19.485  0.00  0.00    +0.000 A 
ATOM     34  C   UNL     1      10.065  11.566  19.706  0.00  0.00    +0.000 A 
ATOM     35  C   UNL     1       9.667  12.627  18.871  0.00  0.00    +0.000 A 
ATOM     36  C   UNL     1       8.814  12.309  17.802  0.00  0.00    +0.000 A 
ATOM     37  C   UNL     1       8.364  11.000  17.589  0.00  0.00    +0.000 A 
BRANCH  35  38
ATOM     38  C   UNL     1      10.127  14.016  19.110  0.00  0.00    +0.000 A 
ATOM     39  C   UNL     1       9.543  15.105  18.435  0.00  0.00    +0.000 A 
ATOM     40  C   UNL     1       9.990  16.415  18.631  0.00  0.00    +0.000 A 
ATOM     41  C   UNL     1      11.022  16.673  19.527  0.00  0.00    +0.000 A 
ATOM     42  C   UNL     1      11.606  15.621  20.225  0.00  0.00    +0.000 A 
ATOM     43  C   UNL     1      11.167  14.309  20.014  0.00  0.00    +0.000 A 
ENDBRANCH  35  38
ENDBRANCH  29  32
ENDBRANCH  25  26
ENDBRANCH   1  25
TORSDOF 13
ENDMDL
MODEL 6
REMARK VINA RESULT:      -8.2      0.965      1.523
REMARK  Name = 
REMARK  14 active torsions:
REMARK  status: ('A' for Active; 'I' for Inactive)
REMARK    1  A    between atoms: C_1  and  O_2
REMARK    2  A    between atoms: O_2  and  C_3
REMARK    3  A    between atoms: C_3  and  C_5
REMARK    4  A    between atoms: C_5  and  C_6
REMARK    5  A    between atoms: C_5  and  N_13
REMARK    6  A    between atoms: C_6  and  C_7
REMARK    7  A    between atoms: C_7  and  C_8
REMARK    8  A    between atoms: C_8  and  N_9
REMARK    9  A    between atoms: C_14  and  C_16
REMARK   10  A    between atoms: C_16  and  N_17
REMARK   11  A    between atoms: C_16  and  C_18
REMARK   12  A    between atoms: C_18  and  C_19
REMARK   13  A    between atoms: C_22  and  C_23
REMARK   14  A    between atoms: C_26  and  C_27
REMARK                            x       y       z     vdW  Elec       q    Type
REMARK                         _______ _______ _______ _____ _____    ______ ____
ROOT
ATOM      1  C   UNL     1       5.860   4.515  16.727  0.00  0.00    +0.000 C 
ENDROOT
BRANCH   1   3
ATOM      2  N   UNL     1       4.086   5.827  17.811  0.00  0.00    +0.000 N 
ATOM      3  C   UNL     1       4.395   4.634  17.200  0.00  0.00    +0.000 C 
ATOM      4  O   UNL     1       3.565   3.749  17.009  0.00  0.00    +0.000 OA
ATOM      5  H   UNL     1       4.821   6.493  18.015  0.00  0.00    +0.000 HD
BRANCH   2   6
ATOM      6  C   UNL     1       2.777   6.091  18.415  0.00  0.00    +0.000 C 
BRANCH   6   7
ATOM      7  C   UNL     1       2.461   7.591  18.301  0.00  0.00    +0.000 C 
ATOM      8  O   UNL     1       3.146   8.394  17.684  0.00  0.00    +0.000 OA
BRANCH   7  10
ATOM      9  C   UNL     1       1.263   9.020  19.731  0.00  0.00    +0.000 C 
ATOM     10  O   UNL     1       1.249   7.880  18.869  0.00  0.00    +0.000 OA
ENDBRANCH   7  10
ENDBRANCH   6   7
BRANCH   6  11
ATOM     11  C   UNL     1       2.805   5.664  19.891  0.00  0.00    +0.000 C 
BRANCH  11  12
ATOM     12  C   UNL     1       1.665   4.723  20.294  0.00  0.00    +0.000 C 
BRANCH  12  13
ATOM     13  C   UNL     1       2.216   3.437  20.909  0.00  0.00    +0.000 C 
BRANCH  13  14
ATOM     14  N   UNL     1       3.167   2.810  20.011  0.00  0.00    +0.000 N 
ATOM     15  C   UNL     1       2.815   1.910  19.069  0.00  0.00    +0.000 C 
ATOM     16  N   UNL     1       1.641   1.595  18.668  0.00  0.00    +0.000 NA
ATOM     17  N   UNL     1       3.885   1.311  18.510  0.00  0.00    +0.000 N 
ATOM     18  H   UNL     1       4.076   2.631  20.416  0.00  0.00    +0.000 HD
ATOM     19  H   UNL     1       0.948   2.129  19.195  0.00  0.00    +0.000 HD
ATOM     20  H   UNL     1       4.631   1.955  18.279  0.00  0.00    +0.000 HD
ATOM     21  H   UNL     1       3.586   0.795  17.689  0.00  0.00    +0.000 HD
ENDBRANCH  13  14
ENDBRANCH  12  13
ENDBRANCH  11  12
ENDBRANCH   6  11
ENDBRANCH   2   6
ENDBRANCH   1   3
BRANCH   1  22
ATOM     22  N   UNL     1       5.978   3.416  15.736  0.00  0.00    +0.000 NA
ATOM     23  H   UNL     1       5.616   3.718  14.835  0.00  0.00    +0.000 HD
ATOM     24  H   UNL     1       5.366   2.655  16.038  0.00  0.00    +0.000 HD
ENDBRANCH   1  22
BRANCH   1  25
ATOM     25  C   UNL     1       6.370   5.849  16.159  0.00  0.00    +0.000 C 
BRANCH  25  26
ATOM     26  C   UNL     1       7.181   6.600  17.157  0.00  0.00    +0.000 A 
ATOM     27  C   UNL     1       7.688   6.153  18.355  0.00  0.00    +0.000 A 
ATOM     28  N   UNL     1       8.271   7.245  18.925  0.00  0.00    +0.000 N 
ATOM     29  C   UNL     1       8.123   8.315  18.072  0.00  0.00    +0.000 A 
ATOM     30  N   UNL     1       7.481   7.933  16.981  0.00  0.00    +0.000 NA
ATOM     31  H   UNL     1       8.741   7.274  19.818  0.00  0.00    +0.000 HD
BRANCH  29  32
ATOM     32  C   UNL     1       8.651   9.646  18.375  0.00  0.00    +0.000 A 
ATOM     33  C   UNL     1       9.462   9.844  19.492  0.00  0.00    +0.000 A 
ATOM     34  C   UNL     1       9.925  11.126  19.818  0.00  0.00    +0.000 A 
ATOM     35  C   UNL     1       9.617  12.248  19.026  0.00  0.00    +0.000 A 
ATOM     36  C   UNL     1       8.823  12.026  17.890  0.00  0.00    +0.000 A 
ATOM     37  C   UNL     1       8.344  10.749  17.571  0.00  0.00    +0.000 A 
BRANCH  35  38
ATOM     38  C   UNL     1      10.108  13.603  19.376  0.00  0.00    +0.000 A 
ATOM     39  C   UNL     1      10.318  14.582  18.387  0.00  0.00    +0.000 A 
ATOM     40  C   UNL     1      10.809  15.852  18.704  0.00  0.00    +0.000 A 
ATOM     41  C   UNL     1      11.083  16.184  20.027  0.00  0.00    +0.000 A 
ATOM     42  C   UNL     1      10.866  15.245  21.030  0.00  0.00    +0.000 A 
ATOM     43  C   UNL     1      10.391  13.969  20.708  0.00  0.00    +0.000 A 
ENDBRANCH  35  38
ENDBRANCH  29  32
ENDBRANCH  25  26
ENDBRANCH   1  25
TORSDOF 13
ENDMDL
MODEL 7
REMARK VINA RESULT:      -8.1      4.593      7.347
REMARK  Name = 
REMARK  14 active torsions:
REMARK  status: ('A' for Active; 'I' for Inactive)
REMARK    1  A    between atoms: C_1  and  O_2
REMARK    2  A    between atoms: O_2  and  C_3
REMARK    3  A    between atoms: C_3  and  C_5
REMARK    4  A    between atoms: C_5  and  C_6
REMARK    5  A    between atoms: C_5  and  N_13
REMARK    6  A    between atoms: C_6  and  C_7
REMARK    7  A    between atoms: C_7  and  C_8
REMARK    8  A    between atoms: C_8  and  N_9
REMARK    9  A    between atoms: C_14  and  C_16
REMARK   10  A    between atoms: C_16  and  N_17
REMARK   11  A    between atoms: C_16  and  C_18
REMARK   12  A    between atoms: C_18  and  C_19
REMARK   13  A    between atoms: C_22  and  C_23
REMARK   14  A    between atoms: C_26  and  C_27
REMARK                            x       y       z     vdW  Elec       q    Type
REMARK                         _______ _______ _______ _____ _____    ______ ____
ROOT
ATOM      1  C   UNL     1       4.166   2.660  18.331  0.00  0.00    +0.000 C 
ENDROOT
BRANCH   1   3
ATOM      2  N   UNL     1       5.031   4.142  16.571  0.00  0.00    +0.000 N 
ATOM      3  C   UNL     1       3.943   3.424  17.009  0.00  0.00    +0.000 C 
ATOM      4  O   UNL     1       2.889   3.362  16.381  0.00  0.00    +0.000 OA
ATOM      5  H   UNL     1       5.850   4.226  17.162  0.00  0.00    +0.000 HD
BRANCH   2   6
ATOM      6  C   UNL     1       4.984   5.010  15.391  0.00  0.00    +0.000 C 
BRANCH   6   7
ATOM      7  C   UNL     1       5.665   4.296  14.212  0.00  0.00    +0.000 C 
ATOM      8  O   UNL     1       5.070   3.648  13.363  0.00  0.00    +0.000 OA
BRANCH   7  10
ATOM      9  C   UNL     1       7.509   4.817  12.852  0.00  0.00    +0.000 C 
ATOM     10  O   UNL     1       7.001   4.591  14.168  0.00  0.00    +0.000 OA
ENDBRANCH   7  10
ENDBRANCH   6   7
BRANCH   6  11
ATOM     11  C   UNL     1       5.707   6.330  15.703  0.00  0.00    +0.000 C 
BRANCH  11  12
ATOM     12  C   UNL     1       5.881   6.612  17.199  0.00  0.00    +0.000 C 
BRANCH  12  13
ATOM     13  C   UNL     1       7.223   7.290  17.471  0.00  0.00    +0.000 C 
BRANCH  13  14
ATOM     14  N   UNL     1       7.815   6.776  18.691  0.00  0.00    +0.000 N 
ATOM     15  C   UNL     1       7.987   5.459  18.936  0.00  0.00    +0.000 C 
ATOM     16  N   UNL     1       7.860   4.477  18.125  0.00  0.00    +0.000 NA
ATOM     17  N   UNL     1       8.351   5.220  20.211  0.00  0.00    +0.000 N 
ATOM     18  H   UNL     1       7.603   7.312  19.522  0.00  0.00    +0.000 HD
ATOM     19  H   UNL     1       7.574   4.827  17.210  0.00  0.00    +0.000 HD
ATOM     20  H   UNL     1       9.065   5.851  20.551  0.00  0.00    +0.000 HD
ATOM     21  H   UNL     1       8.650   4.254  20.295  0.00  0.00    +0.000 HD
ENDBRANCH  13  14
ENDBRANCH  12  13
ENDBRANCH  11  12
ENDBRANCH   6  11
ENDBRANCH   2   6
ENDBRANCH   1   3
BRANCH   1  22
ATOM     22  N   UNL     1       5.277   3.287  19.091  0.00  0.00    +0.000 NA
ATOM     23  H   UNL     1       4.905   3.952  19.766  0.00  0.00    +0.000 HD
ATOM     24  H   UNL     1       5.832   3.841  18.435  0.00  0.00    +0.000 HD
ENDBRANCH   1  22
BRANCH   1  25
ATOM     25  C   UNL     1       2.874   2.596  19.162  0.00  0.00    +0.000 C 
BRANCH  25  26
ATOM     26  C   UNL     1       2.613   3.876  19.875  0.00  0.00    +0.000 A 
ATOM     27  C   UNL     1       2.468   4.087  21.227  0.00  0.00    +0.000 A 
ATOM     28  N   UNL     1       2.156   5.408  21.350  0.00  0.00    +0.000 N 
ATOM     29  C   UNL     1       2.132   5.971  20.095  0.00  0.00    +0.000 A 
ATOM     30  N   UNL     1       2.429   5.056  19.187  0.00  0.00    +0.000 NA
ATOM     31  H   UNL     1       1.978   5.901  22.213  0.00  0.00    +0.000 HD
BRANCH  29  32
ATOM     32  C   UNL     1       1.842   7.387  19.870  0.00  0.00    +0.000 A 
ATOM     33  C   UNL     1       1.217   8.144  20.861  0.00  0.00    +0.000 A 
ATOM     34  C   UNL     1       0.887   9.487  20.630  0.00  0.00    +0.000 A 
ATOM     35  C   UNL     1       1.195  10.127  19.415  0.00  0.00    +0.000 A 
ATOM     36  C   UNL     1       1.849   9.358  18.440  0.00  0.00    +0.000 A 
ATOM     37  C   UNL     1       2.164   8.011  18.659  0.00  0.00    +0.000 A 
BRANCH  35  38
ATOM     38  C   UNL     1       0.842  11.547  19.176  0.00  0.00    +0.000 A 
ATOM     39  C   UNL     1       1.781  12.454  18.650  0.00  0.00    +0.000 A 
ATOM     40  C   UNL     1       1.467  13.801  18.448  0.00  0.00    +0.000 A 
ATOM     41  C   UNL     1       0.195  14.274  18.750  0.00  0.00    +0.000 A 
ATOM     42  C   UNL     1      -0.763  13.398  19.251  0.00  0.00    +0.000 A 
ATOM     43  C   UNL     1      -0.440  12.053  19.468  0.00  0.00    +0.000 A 
ENDBRANCH  35  38
ENDBRANCH  29  32
ENDBRANCH  25  26
ENDBRANCH   1  25
TORSDOF 13
ENDMDL
MODEL 8
REMARK VINA RESULT:      -8.1      5.076      8.610
REMARK  Name = 
REMARK  14 active torsions:
REMARK  status: ('A' for Active; 'I' for Inactive)
REMARK    1  A    between atoms: C_1  and  O_2
REMARK    2  A    between atoms: O_2  and  C_3
REMARK    3  A    between atoms: C_3  and  C_5
REMARK    4  A    between atoms: C_5  and  C_6
REMARK    5  A    between atoms: C_5  and  N_13
REMARK    6  A    between atoms: C_6  and  C_7
REMARK    7  A    between atoms: C_7  and  C_8
REMARK    8  A    between atoms: C_8  and  N_9
REMARK    9  A    between atoms: C_14  and  C_16
REMARK   10  A    between atoms: C_16  and  N_17
REMARK   11  A    between atoms: C_16  and  C_18
REMARK   12  A    between atoms: C_18  and  C_19
REMARK   13  A    between atoms: C_22  and  C_23
REMARK   14  A    between atoms: C_26  and  C_27
REMARK                            x       y       z     vdW  Elec       q    Type
REMARK                         _______ _______ _______ _____ _____    ______ ____
ROOT
ATOM      1  C   UNL     1       3.164   4.009  18.878  0.00  0.00    +0.000 C 
ENDROOT
BRANCH   1   3
ATOM      2  N   UNL     1       5.222   4.789  17.782  0.00  0.00    +0.000 N 
ATOM      3  C   UNL     1       4.706   4.035  18.811  0.00  0.00    +0.000 C 
ATOM      4  O   UNL     1       5.413   3.461  19.635  0.00  0.00    +0.000 OA
ATOM      5  H   UNL     1       4.601   5.180  17.084  0.00  0.00    +0.000 HD
BRANCH   2   6
ATOM      6  C   UNL     1       6.658   4.858  17.495  0.00  0.00    +0.000 C 
BRANCH   6   7
ATOM      7  C   UNL     1       7.110   6.327  17.531  0.00  0.00    +0.000 C 
ATOM      8  O   UNL     1       6.557   7.233  16.925  0.00  0.00    +0.000 OA
BRANCH   7  10
ATOM      9  C   UNL     1       7.997   5.730  19.623  0.00  0.00    +0.000 C 
ATOM     10  O   UNL     1       8.129   6.502  18.428  0.00  0.00    +0.000 OA
ENDBRANCH   7  10
ENDBRANCH   6   7
BRANCH   6  11
ATOM     11  C   UNL     1       6.925   4.253  16.108  0.00  0.00    +0.000 C 
BRANCH  11  12
ATOM     12  C   UNL     1       5.791   4.466  15.100  0.00  0.00    +0.000 C 
BRANCH  12  13
ATOM     13  C   UNL     1       6.310   4.347  13.667  0.00  0.00    +0.000 C 
BRANCH  13  14
ATOM     14  N   UNL     1       5.314   3.723  12.816  0.00  0.00    +0.000 N 
ATOM     15  C   UNL     1       5.609   2.779  11.897  0.00  0.00    +0.000 C 
ATOM     16  N   UNL     1       6.708   2.143  11.736  0.00  0.00    +0.000 NA
ATOM     17  N   UNL     1       4.567   2.511  11.088  0.00  0.00    +0.000 N 
ATOM     18  H   UNL     1       4.558   4.332  12.534  0.00  0.00    +0.000 HD
ATOM     19  H   UNL     1       7.393   2.469  12.420  0.00  0.00    +0.000 HD
ATOM     20  H   UNL     1       3.688   2.418  11.581  0.00  0.00    +0.000 HD
ATOM     21  H   UNL     1       4.770   1.675  10.549  0.00  0.00    +0.000 HD
ENDBRANCH  13  14
ENDBRANCH  12  13
ENDBRANCH  11  12
ENDBRANCH   6  11
ENDBRANCH   2   6
ENDBRANCH   1   3
BRANCH   1  22
ATOM     22  N   UNL     1       2.679   2.617  18.696  0.00  0.00    +0.000 NA
ATOM     23  H   UNL     1       3.387   1.957  19.008  0.00  0.00    +0.000 HD
ATOM     24  H   UNL     1       2.571   2.452  17.693  0.00  0.00    +0.000 HD
ENDBRANCH   1  22
BRANCH   1  25
ATOM     25  C   UNL     1       2.654   4.621  20.192  0.00  0.00    +0.000 C 
BRANCH  25  26
ATOM     26  C   UNL     1       2.248   6.043  20.018  0.00  0.00    +0.000 A 
ATOM     27  C   UNL     1       2.645   6.932  19.046  0.00  0.00    +0.000 A 
ATOM     28  N   UNL     1       2.060   8.115  19.385  0.00  0.00    +0.000 N 
ATOM     29  C   UNL     1       1.318   7.924  20.528  0.00  0.00    +0.000 A 
ATOM     30  N   UNL     1       1.404   6.663  20.914  0.00  0.00    +0.000 NA
ATOM     31  H   UNL     1       2.144   8.988  18.885  0.00  0.00    +0.000 HD
BRANCH  29  32
ATOM     32  C   UNL     1       0.546   8.997  21.157  0.00  0.00    +0.000 A 
ATOM     33  C   UNL     1       0.232  10.151  20.440  0.00  0.00    +0.000 A 
ATOM     34  C   UNL     1      -0.460  11.205  21.054  0.00  0.00    +0.000 A 
ATOM     35  C   UNL     1      -0.886  11.131  22.393  0.00  0.00    +0.000 A 
ATOM     36  C   UNL     1      -0.586   9.950  23.091  0.00  0.00    +0.000 A 
ATOM     37  C   UNL     1       0.121   8.902  22.487  0.00  0.00    +0.000 A 
BRANCH  35  38
ATOM     38  C   UNL     1      -1.616  12.249  23.038  0.00  0.00    +0.000 A 
ATOM     39  C   UNL     1      -1.002  13.498  23.245  0.00  0.00    +0.000 A 
ATOM     40  C   UNL     1      -1.673  14.549  23.879  0.00  0.00    +0.000 A 
ATOM     41  C   UNL     1      -2.986  14.383  24.304  0.00  0.00    +0.000 A 
ATOM     42  C   UNL     1      -3.628  13.167  24.094  0.00  0.00    +0.000 A 
ATOM     43  C   UNL     1      -2.949  12.111  23.475  0.00  0.00    +0.000 A 
ENDBRANCH  35  38
ENDBRANCH  29  32
ENDBRANCH  25  26
ENDBRANCH   1  25
TORSDOF 13
ENDMDL
MODEL 9
REMARK VINA RESULT:      -8.1      4.711      7.222
REMARK  Name = 
REMARK  14 active torsions:
REMARK  status: ('A' for Active; 'I' for Inactive)
REMARK    1  A    between atoms: C_1  and  O_2
REMARK    2  A    between atoms: O_2  and  C_3
REMARK    3  A    between atoms: C_3  and  C_5
REMARK    4  A    between atoms: C_5  and  C_6
REMARK    5  A    between atoms: C_5  and  N_13
REMARK    6  A    between atoms: C_6  and  C_7
REMARK    7  A    between atoms: C_7  and  C_8
REMARK    8  A    between atoms: C_8  and  N_9
REMARK    9  A    between atoms: C_14  and  C_16
REMARK   10  A    between atoms: C_16  and  N_17
REMARK   11  A    between atoms: C_16  and  C_18
REMARK   12  A    between atoms: C_18  and  C_19
REMARK   13  A    between atoms: C_22  and  C_23
REMARK   14  A    between atoms: C_26  and  C_27
REMARK                            x       y       z     vdW  Elec       q    Type
REMARK                         _______ _______ _______ _____ _____    ______ ____
ROOT
ATOM      1  C   UNL     1       3.495   2.601  18.383  0.00  0.00    +0.000 C 
ENDROOT
BRANCH   1   3
ATOM      2  N   UNL     1       4.659   4.054  16.777  0.00  0.00    +0.000 N 
ATOM      3  C   UNL     1       3.483   3.397  17.061  0.00  0.00    +0.000 C 
ATOM      4  O   UNL     1       2.515   3.409  16.306  0.00  0.00    +0.000 OA
ATOM      5  H   UNL     1       5.400   4.078  17.466  0.00  0.00    +0.000 HD
BRANCH   2   6
ATOM      6  C   UNL     1       4.810   4.940  15.619  0.00  0.00    +0.000 C 
BRANCH   6   7
ATOM      7  C   UNL     1       6.027   4.490  14.795  0.00  0.00    +0.000 C 
ATOM      8  O   UNL     1       6.217   3.344  14.416  0.00  0.00    +0.000 OA
BRANCH   7  10
ATOM      9  C   UNL     1       7.750   5.283  13.408  0.00  0.00    +0.000 C 
ATOM     10  O   UNL     1       6.797   5.564  14.435  0.00  0.00    +0.000 OA
ENDBRANCH   7  10
ENDBRANCH   6   7
BRANCH   6  11
ATOM     11  C   UNL     1       5.003   6.384  16.109  0.00  0.00    +0.000 C 
BRANCH  11  12
ATOM     12  C   UNL     1       5.605   6.495  17.514  0.00  0.00    +0.000 C 
BRANCH  12  13
ATOM     13  C   UNL     1       7.018   7.075  17.453  0.00  0.00    +0.000 C 
BRANCH  13  14
ATOM     14  N   UNL     1       7.773   6.698  18.632  0.00  0.00    +0.000 N 
ATOM     15  C   UNL     1       8.032   5.416  18.969  0.00  0.00    +0.000 C 
ATOM     16  N   UNL     1       7.852   4.359  18.271  0.00  0.00    +0.000 NA
ATOM     17  N   UNL     1       8.556   5.309  20.206  0.00  0.00    +0.000 N 
ATOM     18  H   UNL     1       7.640   7.302  19.432  0.00  0.00    +0.000 HD
ATOM     19  H   UNL     1       7.443   4.612  17.370  0.00  0.00    +0.000 HD
ATOM     20  H   UNL     1       9.278   5.993  20.397  0.00  0.00    +0.000 HD
ATOM     21  H   UNL     1       8.906   4.366  20.338  0.00  0.00    +0.000 HD
ENDBRANCH  13  14
ENDBRANCH  12  13
ENDBRANCH  11  12
ENDBRANCH   6  11
ENDBRANCH   2   6
ENDBRANCH   1   3
BRANCH   1  22
ATOM     22  N   UNL     1       4.176   1.298  18.178  0.00  0.00    +0.000 NA
ATOM     23  H   UNL     1       3.591   0.684  17.617  0.00  0.00    +0.000 HD
ATOM     24  H   UNL     1       4.260   0.842  19.089  0.00  0.00    +0.000 HD
ENDBRANCH   1  22
BRANCH   1  25
ATOM     25  C   UNL     1       4.149   3.412  19.514  0.00  0.00    +0.000 C 
BRANCH  25  26
ATOM     26  C   UNL     1       3.243   4.477  20.025  0.00  0.00    +0.000 A 
ATOM     27  C   UNL     1       2.309   4.394  21.031  0.00  0.00    +0.000 A 
ATOM     28  N   UNL     1       1.691   5.609  21.045  0.00  0.00    +0.000 N 
ATOM     29  C   UNL     1       2.260   6.400  20.074  0.00  0.00    +0.000 A 
ATOM     30  N   UNL     1       3.222   5.733  19.458  0.00  0.00    +0.000 NA
ATOM     31  H   UNL     1       0.945   5.893  21.664  0.00  0.00    +0.000 HD
BRANCH  29  32
ATOM     32  C   UNL     1       1.837   7.780  19.830  0.00  0.00    +0.000 A 
ATOM     33  C   UNL     1       2.077   8.382  18.595  0.00  0.00    +0.000 A 
ATOM     34  C   UNL     1       1.724   9.720  18.375  0.00  0.00    +0.000 A 
ATOM     35  C   UNL     1       1.095  10.494  19.368  0.00  0.00    +0.000 A 
ATOM     36  C   UNL     1       0.836   9.863  20.595  0.00  0.00    +0.000 A 
ATOM     37  C   UNL     1       1.204   8.532  20.826  0.00  0.00    +0.000 A 
BRANCH  35  38
ATOM     38  C   UNL     1       0.725  11.910  19.129  0.00  0.00    +0.000 A 
ATOM     39  C   UNL     1      -0.616  12.334  19.188  0.00  0.00    +0.000 A 
ATOM     40  C   UNL     1      -0.978  13.660  18.936  0.00  0.00    +0.000 A 
ATOM     41  C   UNL     1      -0.002  14.605  18.638  0.00  0.00    +0.000 A 
ATOM     42  C   UNL     1       1.334  14.222  18.593  0.00  0.00    +0.000 A 
ATOM     43  C   UNL     1       1.692  12.890  18.829  0.00  0.00    +0.000 A 
ENDBRANCH  35  38
ENDBRANCH  29  32
ENDBRANCH  25  26
ENDBRANCH   1  25
TORSDOF 13
ENDMDL
