MODEL 1
REMARK VINA RESULT:      -7.1      0.000      0.000
REMARK  Name = 
REMARK  7 active torsions:
REMARK  status: ('A' for Active; 'I' for Inactive)
REMARK    1  A    between atoms: C_1  and  C_2
REMARK    2  A    between atoms: C_2  and  C_3
REMARK    3  A    between atoms: C_3  and  O_4
REMARK    4  A    between atoms: O_4  and  C_5
REMARK    5  A    between atoms: C_8  and  C_9
REMARK    6  A    between atoms: C_10  and  C_11
REMARK    7  A    between atoms: N_13  and  C_14
REMARK                            x       y       z     vdW  Elec       q    Type
REMARK                         _______ _______ _______ _____ _____    ______ ____
ROOT
ATOM      1  C   UNL     1       8.301   8.100  18.710  0.00  0.00    +0.000 C 
ATOM      2  C   UNL     1       8.416   9.364  18.282  0.00  0.00    +0.000 C 
ENDROOT
BRANCH   1   6
ATOM      3  C   UNL     1       6.569   4.815  16.564  0.00  0.00    +0.000 A 
ATOM      4  C   UNL     1       7.433   4.623  17.643  0.00  0.00    +0.000 A 
ATOM      5  C   UNL     1       7.955   5.713  18.338  0.00  0.00    +0.000 A 
ATOM      6  C   UNL     1       7.638   7.020  17.965  0.00  0.00    +0.000 A 
ATOM      7  C   UNL     1       6.736   7.215  16.911  0.00  0.00    +0.000 A 
ATOM      8  C   UNL     1       6.211   6.117  16.212  0.00  0.00    +0.000 A 
BRANCH   3   9
ATOM      9  O   UNL     1       6.033   3.810  15.795  0.00  0.00    +0.000 OA
BRANCH   9  10
ATOM     10  C   UNL     1       5.516   4.238  14.534  0.00  0.00    +0.000 C 
BRANCH  10  12
ATOM     11  C   UNL     1       5.707   3.311  12.228  0.00  0.00    +0.000 C 
ATOM     12  C   UNL     1       6.478   3.884  13.408  0.00  0.00    +0.000 C 
ENDBRANCH  10  12
ENDBRANCH   9  10
ENDBRANCH   3   9
ENDBRANCH   1   6
BRANCH   2  13
ATOM     13  C   UNL     1       9.273  10.311  19.040  0.00  0.00    +0.000 C 
ATOM     14  O   UNL     1       9.314  10.339  20.262  0.00  0.00    +0.000 OA
ATOM     15  N   UNL     1      10.035  11.100  18.216  0.00  0.00    +0.000 N 
ATOM     16  H   UNL     1      10.016  10.921  17.222  0.00  0.00    +0.000 HD
BRANCH  15  17
ATOM     17  C   UNL     1      11.091  11.966  18.730  0.00  0.00    +0.000 C 
ATOM     18  C   UNL     1      12.054  12.389  17.611  0.00  0.00    +0.000 C 
ATOM     19  C   UNL     1      11.399  13.344  16.612  0.00  0.00    +0.000 C 
ATOM     20  C   UNL     1      10.778  14.555  17.301  0.00  0.00    +0.000 C 
ATOM     21  C   UNL     1       9.829  14.158  18.429  0.00  0.00    +0.000 C 
ATOM     22  C   UNL     1      10.489  13.196  19.418  0.00  0.00    +0.000 C 
ENDBRANCH  15  17
ENDBRANCH   2  13
TORSDOF 6
ENDMDL
MODEL 2
REMARK VINA RESULT:      -7.0      2.621      9.136
REMARK  Name = 
REMARK  7 active torsions:
REMARK  status: ('A' for Active; 'I' for Inactive)
REMARK    1  A    between atoms: C_1  and  C_2
REMARK    2  A    between atoms: C_2  and  C_3
REMARK    3  A    between atoms: C_3  and  O_4
REMARK    4  A    between atoms: O_4  and  C_5
REMARK    5  A    between atoms: C_8  and  C_9
REMARK    6  A    between atoms: C_10  and  C_11
REMARK    7  A    between atoms: N_13  and  C_14
REMARK                            x       y       z     vdW  Elec       q    Type
REMARK                         _______ _______ _______ _____ _____    ______ ____
ROOT
ATOM      1  C   UNL     1       8.259   9.264  17.956  0.00  0.00    +0.000 C 
ATOM      2  C   UNL     1       8.247   7.977  18.329  0.00  0.00    +0.000 C 
ENDROOT
BRANCH   1   6
ATOM      3  C   UNL     1      10.920  12.250  19.507  0.00  0.00    +0.000 A 
ATOM      4  C   UNL     1      10.753  12.044  18.137  0.00  0.00    +0.000 A 
ATOM      5  C   UNL     1       9.859  11.085  17.666  0.00  0.00    +0.000 A 
ATOM      6  C   UNL     1       9.116  10.300  18.550  0.00  0.00    +0.000 A 
ATOM      7  C   UNL     1       9.248  10.535  19.925  0.00  0.00    +0.000 A 
ATOM      8  C   UNL     1      10.149  11.500  20.398  0.00  0.00    +0.000 A 
BRANCH   3   9
ATOM      9  O   UNL     1      11.801  13.142  20.069  0.00  0.00    +0.000 OA
BRANCH   9  10
ATOM     10  C   UNL     1      11.231  14.410  20.403  0.00  0.00    +0.000 C 
BRANCH  10  12
ATOM     11  C   UNL     1      10.233  15.871  18.649  0.00  0.00    +0.000 C 
ATOM     12  C   UNL     1      11.528  15.437  19.320  0.00  0.00    +0.000 C 
ENDBRANCH  10  12
ENDBRANCH   9  10
ENDBRANCH   3   9
ENDBRANCH   1   6
BRANCH   2  13
ATOM     13  C   UNL     1       7.476   6.997  17.522  0.00  0.00    +0.000 C 
ATOM     14  O   UNL     1       7.733   6.750  16.352  0.00  0.00    +0.000 OA
ATOM     15  N   UNL     1       6.492   6.380  18.252  0.00  0.00    +0.000 N 
ATOM     16  H   UNL     1       6.434   6.569  19.242  0.00  0.00    +0.000 HD
BRANCH  15  17
ATOM     17  C   UNL     1       5.735   5.247  17.731  0.00  0.00    +0.000 C 
ATOM     18  C   UNL     1       5.196   4.370  18.870  0.00  0.00    +0.000 C 
ATOM     19  C   UNL     1       4.096   5.070  19.671  0.00  0.00    +0.000 C 
ATOM     20  C   UNL     1       2.969   5.575  18.774  0.00  0.00    +0.000 C 
ATOM     21  C   UNL     1       3.485   6.435  17.624  0.00  0.00    +0.000 C 
ATOM     22  C   UNL     1       4.590   5.732  16.835  0.00  0.00    +0.000 C 
ENDBRANCH  15  17
ENDBRANCH   2  13
TORSDOF 6
ENDMDL
MODEL 3
REMARK VINA RESULT:      -6.9      2.231      9.101
REMARK  Name = 
REMARK  7 active torsions:
REMARK  status: ('A' for Active; 'I' for Inactive)
REMARK    1  A    between atoms: C_1  and  C_2
REMARK    2  A    between atoms: C_2  and  C_3
REMARK    3  A    between atoms: C_3  and  O_4
REMARK    4  A    between atoms: O_4  and  C_5
REMARK    5  A    between atoms: C_8  and  C_9
REMARK    6  A    between atoms: C_10  and  C_11
REMARK    7  A    between atoms: N_13  and  C_14
REMARK                            x       y       z     vdW  Elec       q    Type
REMARK                         _______ _______ _______ _____ _____    ______ ____
ROOT
ATOM      1  C   UNL     1       9.060   9.544  18.967  0.00  0.00    +0.000 C 
ATOM      2  C   UNL     1       8.441   8.930  17.950  0.00  0.00    +0.000 C 
ENDROOT
BRANCH   1   6
ATOM      3  C   UNL     1      10.248  13.658  18.730  0.00  0.00    +0.000 A 
ATOM      4  C   UNL     1       9.369  13.086  17.809  0.00  0.00    +0.000 A 
ATOM      5  C   UNL     1       8.981  11.753  17.932  0.00  0.00    +0.000 A 
ATOM      6  C   UNL     1       9.467  10.956  18.969  0.00  0.00    +0.000 A 
ATOM      7  C   UNL     1      10.313  11.540  19.921  0.00  0.00    +0.000 A 
ATOM      8  C   UNL     1      10.705  12.881  19.796  0.00  0.00    +0.000 A 
BRANCH   3   9
ATOM      9  O   UNL     1      10.718  14.948  18.674  0.00  0.00    +0.000 OA
BRANCH   9  10
ATOM     10  C   UNL     1       9.802  15.890  18.111  0.00  0.00    +0.000 C 
BRANCH  10  12
ATOM     11  C   UNL     1      11.688  17.363  17.413  0.00  0.00    +0.000 C 
ATOM     12  C   UNL     1      10.439  16.630  16.943  0.00  0.00    +0.000 C 
ENDBRANCH  10  12
ENDBRANCH   9  10
ENDBRANCH   3   9
ENDBRANCH   1   6
BRANCH   2  13
ATOM     13  C   UNL     1       7.913   7.556  18.147  0.00  0.00    +0.000 C 
ATOM     14  O   UNL     1       8.314   6.808  19.028  0.00  0.00    +0.000 OA
ATOM     15  N   UNL     1       6.905   7.252  17.266  0.00  0.00    +0.000 N 
ATOM     16  H   UNL     1       6.566   7.977  16.651  0.00  0.00    +0.000 HD
BRANCH  15  17
ATOM     17  C   UNL     1       6.105   6.039  17.392  0.00  0.00    +0.000 C 
ATOM     18  C   UNL     1       4.843   6.116  16.521  0.00  0.00    +0.000 C 
ATOM     19  C   UNL     1       5.163   6.061  15.026  0.00  0.00    +0.000 C 
ATOM     20  C   UNL     1       6.014   4.846  14.669  0.00  0.00    +0.000 C 
ATOM     21  C   UNL     1       7.267   4.740  15.534  0.00  0.00    +0.000 C 
ATOM     22  C   UNL     1       6.938   4.806  17.026  0.00  0.00    +0.000 C 
ENDBRANCH  15  17
ENDBRANCH   2  13
TORSDOF 6
ENDMDL
MODEL 4
REMARK VINA RESULT:      -6.8      2.686      9.271
REMARK  Name = 
REMARK  7 active torsions:
REMARK  status: ('A' for Active; 'I' for Inactive)
REMARK    1  A    between atoms: C_1  and  C_2
REMARK    2  A    between atoms: C_2  and  C_3
REMARK    3  A    between atoms: C_3  and  O_4
REMARK    4  A    between atoms: O_4  and  C_5
REMARK    5  A    between atoms: C_8  and  C_9
REMARK    6  A    between atoms: C_10  and  C_11
REMARK    7  A    between atoms: N_13  and  C_14
REMARK                            x       y       z     vdW  Elec       q    Type
REMARK                         _______ _______ _______ _____ _____    ______ ____
ROOT
ATOM      1  C   UNL     1       8.094   9.405  17.804  0.00  0.00    +0.000 C 
ATOM      2  C   UNL     1       8.070   8.105  18.129  0.00  0.00    +0.000 C 
ENDROOT
BRANCH   1   6
ATOM      3  C   UNL     1      10.618  12.419  19.518  0.00  0.00    +0.000 A 
ATOM      4  C   UNL     1      10.035  12.568  18.258  0.00  0.00    +0.000 A 
ATOM      5  C   UNL     1       9.196  11.582  17.743  0.00  0.00    +0.000 A 
ATOM      6  C   UNL     1       8.927  10.418  18.466  0.00  0.00    +0.000 A 
ATOM      7  C   UNL     1       9.475  10.287  19.749  0.00  0.00    +0.000 A 
ATOM      8  C   UNL     1      10.320  11.280  20.267  0.00  0.00    +0.000 A 
BRANCH   3   9
ATOM      9  O   UNL     1      11.486  13.315  20.095  0.00  0.00    +0.000 OA
BRANCH   9  10
ATOM     10  C   UNL     1      12.333  14.001  19.171  0.00  0.00    +0.000 C 
BRANCH  10  12
ATOM     11  C   UNL     1      11.641  15.934  20.584  0.00  0.00    +0.000 C 
ATOM     12  C   UNL     1      12.046  15.496  19.184  0.00  0.00    +0.000 C 
ENDBRANCH  10  12
ENDBRANCH   9  10
ENDBRANCH   3   9
ENDBRANCH   1   6
BRANCH   2  13
ATOM     13  C   UNL     1       7.330   7.155  17.259  0.00  0.00    +0.000 C 
ATOM     14  O   UNL     1       7.822   6.643  16.263  0.00  0.00    +0.000 OA
ATOM     15  N   UNL     1       6.069   6.890  17.729  0.00  0.00    +0.000 N 
ATOM     16  H   UNL     1       5.795   7.273  18.623  0.00  0.00    +0.000 HD
BRANCH  15  17
ATOM     17  C   UNL     1       5.230   5.845  17.153  0.00  0.00    +0.000 C 
ATOM     18  C   UNL     1       5.609   4.464  17.706  0.00  0.00    +0.000 C 
ATOM     19  C   UNL     1       5.241   4.307  19.182  0.00  0.00    +0.000 C 
ATOM     20  C   UNL     1       3.772   4.627  19.441  0.00  0.00    +0.000 C 
ATOM     21  C   UNL     1       3.368   5.990  18.886  0.00  0.00    +0.000 C 
ATOM     22  C   UNL     1       3.749   6.141  17.412  0.00  0.00    +0.000 C 
ENDBRANCH  15  17
ENDBRANCH   2  13
TORSDOF 6
ENDMDL
MODEL 5
REMARK VINA RESULT:      -6.8      6.159      7.239
REMARK  Name = 
REMARK  7 active torsions:
REMARK  status: ('A' for Active; 'I' for Inactive)
REMARK    1  A    between atoms: C_1  and  C_2
REMARK    2  A    between atoms: C_2  and  C_3
REMARK    3  A    between atoms: C_3  and  O_4
REMARK    4  A    between atoms: O_4  and  C_5
REMARK    5  A    between atoms: C_8  and  C_9
REMARK    6  A    between atoms: C_10  and  C_11
REMARK    7  A    between atoms: N_13  and  C_14
REMARK                            x       y       z     vdW  Elec       q    Type
REMARK                         _______ _______ _______ _____ _____    ______ ____
ROOT
ATOM      1  C   UNL     1       2.736   6.669  18.765  0.00  0.00    +0.000 C 
ATOM      2  C   UNL     1       2.277   7.899  18.502  0.00  0.00    +0.000 C 
ENDROOT
BRANCH   1   6
ATOM      3  C   UNL     1       5.211   4.556  15.971  0.00  0.00    +0.000 A 
ATOM      4  C   UNL     1       5.244   5.947  16.088  0.00  0.00    +0.000 A 
ATOM      5  C   UNL     1       4.448   6.600  17.026  0.00  0.00    +0.000 A 
ATOM      6  C   UNL     1       3.591   5.883  17.864  0.00  0.00    +0.000 A 
ATOM      7  C   UNL     1       3.589   4.485  17.780  0.00  0.00    +0.000 A 
ATOM      8  C   UNL     1       4.391   3.828  16.834  0.00  0.00    +0.000 A 
BRANCH   3   9
ATOM      9  O   UNL     1       5.929   3.825  15.054  0.00  0.00    +0.000 OA
BRANCH   9  10
ATOM     10  C   UNL     1       6.285   4.542  13.870  0.00  0.00    +0.000 C 
BRANCH  10  12
ATOM     11  C   UNL     1       5.005   3.400  12.062  0.00  0.00    +0.000 C 
ATOM     12  C   UNL     1       6.382   3.600  12.678  0.00  0.00    +0.000 C 
ENDBRANCH  10  12
ENDBRANCH   9  10
ENDBRANCH   3   9
ENDBRANCH   1   6
BRANCH   2  13
ATOM     13  C   UNL     1       1.583   8.658  19.573  0.00  0.00    +0.000 C 
ATOM     14  O   UNL     1       1.613   8.326  20.751  0.00  0.00    +0.000 OA
ATOM     15  N   UNL     1       0.955   9.781  19.096  0.00  0.00    +0.000 N 
ATOM     16  H   UNL     1       1.084  10.031  18.126  0.00  0.00    +0.000 HD
BRANCH  15  17
ATOM     17  C   UNL     1       0.374  10.781  19.985  0.00  0.00    +0.000 C 
ATOM     18  C   UNL     1       1.204  12.073  19.982  0.00  0.00    +0.000 C 
ATOM     19  C   UNL     1       1.109  12.822  18.651  0.00  0.00    +0.000 C 
ATOM     20  C   UNL     1      -0.338  13.088  18.247  0.00  0.00    +0.000 C 
ATOM     21  C   UNL     1      -1.186  11.819  18.259  0.00  0.00    +0.000 C 
ATOM     22  C   UNL     1      -1.077  11.072  19.590  0.00  0.00    +0.000 C 
ENDBRANCH  15  17
ENDBRANCH   2  13
TORSDOF 6
ENDMDL
MODEL 6
REMARK VINA RESULT:      -6.8      2.701      9.193
REMARK  Name = 
REMARK  7 active torsions:
REMARK  status: ('A' for Active; 'I' for Inactive)
REMARK    1  A    between atoms: C_1  and  C_2
REMARK    2  A    between atoms: C_2  and  C_3
REMARK    3  A    between atoms: C_3  and  O_4
REMARK    4  A    between atoms: O_4  and  C_5
REMARK    5  A    between atoms: C_8  and  C_9
REMARK    6  A    between atoms: C_10  and  C_11
REMARK    7  A    between atoms: N_13  and  C_14
REMARK                            x       y       z     vdW  Elec       q    Type
REMARK                         _______ _______ _______ _____ _____    ______ ____
ROOT
ATOM      1  C   UNL     1       8.119   9.350  17.753  0.00  0.00    +0.000 C 
ATOM      2  C   UNL     1       8.071   8.051  18.077  0.00  0.00    +0.000 C 
ENDROOT
BRANCH   1   6
ATOM      3  C   UNL     1      10.565  12.219  19.798  0.00  0.00    +0.000 A 
ATOM      4  C   UNL     1       9.991  11.130  20.456  0.00  0.00    +0.000 A 
ATOM      5  C   UNL     1       9.225  10.200  19.756  0.00  0.00    +0.000 A 
ATOM      6  C   UNL     1       9.004  10.339  18.384  0.00  0.00    +0.000 A 
ATOM      7  C   UNL     1       9.616  11.405  17.713  0.00  0.00    +0.000 A 
ATOM      8  C   UNL     1      10.386  12.341  18.419  0.00  0.00    +0.000 A 
BRANCH   3   9
ATOM      9  O   UNL     1      11.303  13.207  20.405  0.00  0.00    +0.000 OA
BRANCH   9  10
ATOM     10  C   UNL     1      10.545  14.347  20.815  0.00  0.00    +0.000 C 
BRANCH  10  12
ATOM     11  C   UNL     1      11.049  16.157  19.177  0.00  0.00    +0.000 C 
ATOM     12  C   UNL     1      11.330  15.630  20.577  0.00  0.00    +0.000 C 
ENDBRANCH  10  12
ENDBRANCH   9  10
ENDBRANCH   3   9
ENDBRANCH   1   6
BRANCH   2  13
ATOM     13  C   UNL     1       7.274   7.123  17.235  0.00  0.00    +0.000 C 
ATOM     14  O   UNL     1       7.721   6.583  16.232  0.00  0.00    +0.000 OA
ATOM     15  N   UNL     1       6.015   6.913  17.737  0.00  0.00    +0.000 N 
ATOM     16  H   UNL     1       5.779   7.315  18.633  0.00  0.00    +0.000 HD
BRANCH  15  17
ATOM     17  C   UNL     1       5.121   5.897  17.192  0.00  0.00    +0.000 C 
ATOM     18  C   UNL     1       5.491   4.500  17.710  0.00  0.00    +0.000 C 
ATOM     19  C   UNL     1       5.191   4.335  19.201  0.00  0.00    +0.000 C 
ATOM     20  C   UNL     1       3.745   4.690  19.536  0.00  0.00    +0.000 C 
ATOM     21  C   UNL     1       3.351   6.069  19.016  0.00  0.00    +0.000 C 
ATOM     22  C   UNL     1       3.663   6.229  17.527  0.00  0.00    +0.000 C 
ENDBRANCH  15  17
ENDBRANCH   2  13
TORSDOF 6
ENDMDL
MODEL 7
REMARK VINA RESULT:      -6.7      2.711      9.070
REMARK  Name = 
REMARK  7 active torsions:
REMARK  status: ('A' for Active; 'I' for Inactive)
REMARK    1  A    between atoms: C_1  and  C_2
REMARK    2  A    between atoms: C_2  and  C_3
REMARK    3  A    between atoms: C_3  and  O_4
REMARK    4  A    between atoms: O_4  and  C_5
REMARK    5  A    between atoms: C_8  and  C_9
REMARK    6  A    between atoms: C_10  and  C_11
REMARK    7  A    between atoms: N_13  and  C_14
REMARK                            x       y       z     vdW  Elec       q    Type
REMARK                         _______ _______ _______ _____ _____    ______ ____
ROOT
ATOM      1  C   UNL     1       7.860   9.184  17.857  0.00  0.00    +0.000 C 
ATOM      2  C   UNL     1       8.132   7.893  18.091  0.00  0.00    +0.000 C 
ENDROOT
BRANCH   1   6
ATOM      3  C   UNL     1      10.134  12.403  19.548  0.00  0.00    +0.000 A 
ATOM      4  C   UNL     1      10.092  11.136  20.134  0.00  0.00    +0.000 A 
ATOM      5  C   UNL     1       9.367  10.104  19.542  0.00  0.00    +0.000 A 
ATOM      6  C   UNL     1       8.656  10.313  18.358  0.00  0.00    +0.000 A 
ATOM      7  C   UNL     1       8.734  11.569  17.745  0.00  0.00    +0.000 A 
ATOM      8  C   UNL     1       9.464  12.608  18.341  0.00  0.00    +0.000 A 
BRANCH   3   9
ATOM      9  O   UNL     1      10.789  13.492  20.072  0.00  0.00    +0.000 OA
BRANCH   9  10
ATOM     10  C   UNL     1       9.967  14.645  20.260  0.00  0.00    +0.000 C 
BRANCH  10  12
ATOM     11  C   UNL     1       7.702  14.912  21.266  0.00  0.00    +0.000 C 
ATOM     12  C   UNL     1       9.147  14.521  21.537  0.00  0.00    +0.000 C 
ENDBRANCH  10  12
ENDBRANCH   9  10
ENDBRANCH   3   9
ENDBRANCH   1   6
BRANCH   2  13
ATOM     13  C   UNL     1       7.361   6.848  17.370  0.00  0.00    +0.000 C 
ATOM     14  O   UNL     1       7.603   6.520  16.217  0.00  0.00    +0.000 OA
ATOM     15  N   UNL     1       6.396   6.274  18.158  0.00  0.00    +0.000 N 
ATOM     16  H   UNL     1       6.351   6.534  19.133  0.00  0.00    +0.000 HD
BRANCH  15  17
ATOM     17  C   UNL     1       5.646   5.098  17.733  0.00  0.00    +0.000 C 
ATOM     18  C   UNL     1       5.203   4.258  18.940  0.00  0.00    +0.000 C 
ATOM     19  C   UNL     1       4.130   4.961  19.774  0.00  0.00    +0.000 C 
ATOM     20  C   UNL     1       2.937   5.391  18.926  0.00  0.00    +0.000 C 
ATOM     21  C   UNL     1       3.357   6.214  17.711  0.00  0.00    +0.000 C 
ATOM     22  C   UNL     1       4.436   5.508  16.888  0.00  0.00    +0.000 C 
ENDBRANCH  15  17
ENDBRANCH   2  13
TORSDOF 6
ENDMDL
MODEL 8
REMARK VINA RESULT:      -6.7      6.316      9.137
REMARK  Name = 
REMARK  7 active torsions:
REMARK  status: ('A' for Active; 'I' for Inactive)
REMARK    1  A    between atoms: C_1  and  C_2
REMARK    2  A    between atoms: C_2  and  C_3
REMARK    3  A    between atoms: C_3  and  O_4
REMARK    4  A    between atoms: O_4  and  C_5
REMARK    5  A    between atoms: C_8  and  C_9
REMARK    6  A    between atoms: C_10  and  C_11
REMARK    7  A    between atoms: N_13  and  C_14
REMARK                            x       y       z     vdW  Elec       q    Type
REMARK                         _______ _______ _______ _____ _____    ______ ____
ROOT
ATOM      1  C   UNL     1       2.658   7.151  18.819  0.00  0.00    +0.000 C 
ATOM      2  C   UNL     1       2.580   6.077  19.616  0.00  0.00    +0.000 C 
ENDROOT
BRANCH   1   6
ATOM      3  C   UNL     1       0.153  10.580  19.423  0.00  0.00    +0.000 A 
ATOM      4  C   UNL     1       0.452   9.689  20.455  0.00  0.00    +0.000 A 
ATOM      5  C   UNL     1       1.293   8.601  20.232  0.00  0.00    +0.000 A 
ATOM      6  C   UNL     1       1.848   8.368  18.972  0.00  0.00    +0.000 A 
ATOM      7  C   UNL     1       1.586   9.286  17.946  0.00  0.00    +0.000 A 
ATOM      8  C   UNL     1       0.738  10.381  18.172  0.00  0.00    +0.000 A 
BRANCH   3   9
ATOM      9  O   UNL     1      -0.692  11.659  19.533  0.00  0.00    +0.000 OA
BRANCH   9  10
ATOM     10  C   UNL     1      -1.436  11.954  18.349  0.00  0.00    +0.000 C 
BRANCH  10  12
ATOM     11  C   UNL     1      -2.943  10.127  17.575  0.00  0.00    +0.000 C 
ATOM     12  C   UNL     1      -2.842  11.376  18.438  0.00  0.00    +0.000 C 
ENDBRANCH  10  12
ENDBRANCH   9  10
ENDBRANCH   3   9
ENDBRANCH   1   6
BRANCH   2  13
ATOM     13  C   UNL     1       3.585   4.993  19.471  0.00  0.00    +0.000 C 
ATOM     14  O   UNL     1       3.455   3.892  19.986  0.00  0.00    +0.000 OA
ATOM     15  N   UNL     1       4.632   5.358  18.663  0.00  0.00    +0.000 N 
ATOM     16  H   UNL     1       4.591   6.249  18.191  0.00  0.00    +0.000 HD
BRANCH  15  17
ATOM     17  C   UNL     1       5.639   4.400  18.219  0.00  0.00    +0.000 C 
ATOM     18  C   UNL     1       5.271   3.805  16.851  0.00  0.00    +0.000 C 
ATOM     19  C   UNL     1       5.377   4.833  15.724  0.00  0.00    +0.000 C 
ATOM     20  C   UNL     1       6.746   5.506  15.690  0.00  0.00    +0.000 C 
ATOM     21  C   UNL     1       7.139   6.090  17.045  0.00  0.00    +0.000 C 
ATOM     22  C   UNL     1       7.021   5.058  18.167  0.00  0.00    +0.000 C 
ENDBRANCH  15  17
ENDBRANCH   2  13
TORSDOF 6
ENDMDL
MODEL 9
REMARK VINA RESULT:      -6.7      8.772     11.944
REMARK  Name = 
REMARK  7 active torsions:
REMARK  status: ('A' for Active; 'I' for Inactive)
REMARK    1  A    between atoms: C_1  and  C_2
REMARK    2  A    between atoms: C_2  and  C_3
REMARK    3  A    between atoms: C_3  and  O_4
REMARK    4  A    between atoms: O_4  and  C_5
REMARK    5  A    between atoms: C_8  and  C_9
REMARK    6  A    between atoms: C_10  and  C_11
REMARK    7  A    between atoms: N_13  and  C_14
REMARK                            x       y       z     vdW  Elec       q    Type
REMARK                         _______ _______ _______ _____ _____    ______ ____
ROOT
ATOM      1  C   UNL     1       1.461   8.425  21.017  0.00  0.00    +0.000 C 
ATOM      2  C   UNL     1       1.722   8.257  19.714  0.00  0.00    +0.000 C 
ENDROOT
BRANCH   1   6
ATOM      3  C   UNL     1      -1.006  11.582  22.548  0.00  0.00    +0.000 A 
ATOM      4  C   UNL     1      -0.245  11.732  21.387  0.00  0.00    +0.000 A 
ATOM      5  C   UNL     1       0.523  10.676  20.901  0.00  0.00    +0.000 A 
ATOM      6  C   UNL     1       0.560   9.448  21.566  0.00  0.00    +0.000 A 
ATOM      7  C   UNL     1      -0.238   9.281  22.705  0.00  0.00    +0.000 A 
ATOM      8  C   UNL     1      -1.010  10.345  23.194  0.00  0.00    +0.000 A 
BRANCH   3   9
ATOM      9  O   UNL     1      -1.764  12.572  23.126  0.00  0.00    +0.000 OA
BRANCH   9  10
ATOM     10  C   UNL     1      -3.030  12.135  23.626  0.00  0.00    +0.000 C 
BRANCH  10  12
ATOM     11  C   UNL     1      -4.250  12.776  21.550  0.00  0.00    +0.000 C 
ATOM     12  C   UNL     1      -4.158  12.983  23.054  0.00  0.00    +0.000 C 
ENDBRANCH  10  12
ENDBRANCH   9  10
ENDBRANCH   3   9
ENDBRANCH   1   6
BRANCH   2  13
ATOM     13  C   UNL     1       2.497   7.067  19.278  0.00  0.00    +0.000 C 
ATOM     14  O   UNL     1       3.382   7.122  18.435  0.00  0.00    +0.000 OA
ATOM     15  N   UNL     1       2.139   5.932  19.960  0.00  0.00    +0.000 N 
ATOM     16  H   UNL     1       1.478   6.012  20.719  0.00  0.00    +0.000 HD
BRANCH  15  17
ATOM     17  C   UNL     1       2.891   4.687  19.843  0.00  0.00    +0.000 C 
ATOM     18  C   UNL     1       2.437   3.665  20.895  0.00  0.00    +0.000 C 
ATOM     19  C   UNL     1       1.025   3.142  20.626  0.00  0.00    +0.000 C 
ATOM     20  C   UNL     1       0.882   2.587  19.211  0.00  0.00    +0.000 C 
ATOM     21  C   UNL     1       1.343   3.581  18.149  0.00  0.00    +0.000 C 
ATOM     22  C   UNL     1       2.752   4.106  18.432  0.00  0.00    +0.000 C 
ENDBRANCH  15  17
ENDBRANCH   2  13
TORSDOF 6
ENDMDL
