MODEL 1
REMARK VINA RESULT:      -8.4      0.000      0.000
REMARK  Name = 
REMARK  4 active torsions:
REMARK  status: ('A' for Active; 'I' for Inactive)
REMARK    1  A    between atoms: C_1  and  O_2
REMARK    2  A    between atoms: O_2  and  C_3
REMARK    3  A    between atoms: C_7  and  C_8
REMARK    4  A    between atoms: C_11  and  C_12
REMARK                            x       y       z     vdW  Elec       q    Type
REMARK                         _______ _______ _______ _____ _____    ______ ____
ROOT
ATOM      1  C   UNL     1       1.028   9.640  19.615  0.00  0.00    +0.000 A 
ATOM      2  N   UNL     1       1.242  10.307  18.498  0.00  0.00    +0.000 NA
ATOM      3  N   UNL     1       1.965   9.478  17.674  0.00  0.00    +0.000 NA
ATOM      4  C   UNL     1       2.145   8.353  18.334  0.00  0.00    +0.000 A 
ATOM      5  O   UNL     1       1.572   8.375  19.587  0.00  0.00    +0.000 OA
ENDROOT
BRANCH   4   6
ATOM      6  C   UNL     1       2.918   7.186  17.925  0.00  0.00    +0.000 A 
ATOM      7  C   UNL     1       2.420   5.917  18.255  0.00  0.00    +0.000 A 
ATOM      8  C   UNL     1       3.060   4.754  17.824  0.00  0.00    +0.000 A 
ATOM      9  C   UNL     1       4.227   4.832  17.060  0.00  0.00    +0.000 A 
ATOM     10  C   UNL     1       4.841   3.670  16.565  0.00  0.00    +0.000 A 
ATOM     11  C   UNL     1       6.012   3.750  15.813  0.00  0.00    +0.000 A 
ATOM     12  C   UNL     1       6.595   4.991  15.571  0.00  0.00    +0.000 A 
ATOM     13  C   UNL     1       5.989   6.156  16.049  0.00  0.00    +0.000 A 
ATOM     14  C   UNL     1       4.787   6.100  16.775  0.00  0.00    +0.000 A 
ATOM     15  C   UNL     1       4.118   7.266  17.207  0.00  0.00    +0.000 A 
ENDBRANCH   4   6
BRANCH   1  20
ATOM     16  C   UNL     1      -1.101  11.648  22.029  0.00  0.00    +0.000 A 
ATOM     17  C   UNL     1      -1.032  10.822  23.155  0.00  0.00    +0.000 A 
ATOM     18  C   UNL     1      -0.310   9.634  23.120  0.00  0.00    +0.000 A 
ATOM     19  C   UNL     1       0.354   9.271  21.951  0.00  0.00    +0.000 A 
ATOM     20  C   UNL     1       0.306  10.084  20.804  0.00  0.00    +0.000 A 
ATOM     21  C   UNL     1      -0.433  11.278  20.855  0.00  0.00    +0.000 A 
BRANCH  16  23
ATOM     22  C   UNL     1      -1.616  13.520  23.408  0.00  0.00    +0.000 C 
ATOM     23  O   UNL     1      -1.844  12.780  22.219  0.00  0.00    +0.000 OA
ENDBRANCH  16  23
ENDBRANCH   1  20
TORSDOF 3
ENDMDL
MODEL 2
REMARK VINA RESULT:      -8.3      2.651      8.978
REMARK  Name = 
REMARK  4 active torsions:
REMARK  status: ('A' for Active; 'I' for Inactive)
REMARK    1  A    between atoms: C_1  and  O_2
REMARK    2  A    between atoms: O_2  and  C_3
REMARK    3  A    between atoms: C_7  and  C_8
REMARK    4  A    between atoms: C_11  and  C_12
REMARK                            x       y       z     vdW  Elec       q    Type
REMARK                         _______ _______ _______ _____ _____    ______ ____
ROOT
ATOM      1  C   UNL     1       3.858   5.532  18.984  0.00  0.00    +0.000 A 
ATOM      2  N   UNL     1       3.179   4.769  19.817  0.00  0.00    +0.000 NA
ATOM      3  N   UNL     1       2.210   5.563  20.382  0.00  0.00    +0.000 NA
ATOM      4  C   UNL     1       2.351   6.763  19.857  0.00  0.00    +0.000 A 
ATOM      5  O   UNL     1       3.385   6.826  18.948  0.00  0.00    +0.000 OA
ENDROOT
BRANCH   4   6
ATOM      6  C   UNL     1       1.616   7.979  20.185  0.00  0.00    +0.000 A 
ATOM      7  C   UNL     1       1.458   8.945  19.180  0.00  0.00    +0.000 A 
ATOM      8  C   UNL     1       0.697  10.095  19.396  0.00  0.00    +0.000 A 
ATOM      9  C   UNL     1       0.081  10.313  20.631  0.00  0.00    +0.000 A 
ATOM     10  C   UNL     1      -0.742  11.432  20.836  0.00  0.00    +0.000 A 
ATOM     11  C   UNL     1      -1.345  11.654  22.073  0.00  0.00    +0.000 A 
ATOM     12  C   UNL     1      -1.108  10.774  23.126  0.00  0.00    +0.000 A 
ATOM     13  C   UNL     1      -0.299   9.650  22.933  0.00  0.00    +0.000 A 
ATOM     14  C   UNL     1       0.285   9.387  21.681  0.00  0.00    +0.000 A 
ATOM     15  C   UNL     1       1.048   8.223  21.442  0.00  0.00    +0.000 A 
ENDBRANCH   4   6
BRANCH   1  20
ATOM     16  C   UNL     1       5.974   4.241  16.113  0.00  0.00    +0.000 A 
ATOM     17  C   UNL     1       7.251   4.487  16.625  0.00  0.00    +0.000 A 
ATOM     18  C   UNL     1       7.413   5.067  17.879  0.00  0.00    +0.000 A 
ATOM     19  C   UNL     1       6.288   5.399  18.629  0.00  0.00    +0.000 A 
ATOM     20  C   UNL     1       4.990   5.159  18.141  0.00  0.00    +0.000 A 
ATOM     21  C   UNL     1       4.845   4.579  16.870  0.00  0.00    +0.000 A 
BRANCH  16  23
ATOM     22  C   UNL     1       6.722   4.316  13.853  0.00  0.00    +0.000 C 
ATOM     23  O   UNL     1       5.977   3.666  14.872  0.00  0.00    +0.000 OA
ENDBRANCH  16  23
ENDBRANCH   1  20
TORSDOF 3
ENDMDL
MODEL 3
REMARK VINA RESULT:      -8.3      3.817      9.718
REMARK  Name = 
REMARK  4 active torsions:
REMARK  status: ('A' for Active; 'I' for Inactive)
REMARK    1  A    between atoms: C_1  and  O_2
REMARK    2  A    between atoms: O_2  and  C_3
REMARK    3  A    between atoms: C_7  and  C_8
REMARK    4  A    between atoms: C_11  and  C_12
REMARK                            x       y       z     vdW  Elec       q    Type
REMARK                         _______ _______ _______ _____ _____    ______ ____
ROOT
ATOM      1  C   UNL     1       6.009   4.937  15.819  0.00  0.00    +0.000 A 
ATOM      2  N   UNL     1       6.721   4.723  16.907  0.00  0.00    +0.000 NA
ATOM      3  N   UNL     1       6.001   5.235  17.959  0.00  0.00    +0.000 NA
ATOM      4  C   UNL     1       4.888   5.724  17.452  0.00  0.00    +0.000 A 
ATOM      5  O   UNL     1       4.814   5.571  16.085  0.00  0.00    +0.000 OA
ENDROOT
BRANCH   4   6
ATOM      6  C   UNL     1       3.827   6.445  18.146  0.00  0.00    +0.000 A 
ATOM      7  C   UNL     1       3.372   5.931  19.370  0.00  0.00    +0.000 A 
ATOM      8  C   UNL     1       2.419   6.610  20.130  0.00  0.00    +0.000 A 
ATOM      9  C   UNL     1       1.886   7.821  19.678  0.00  0.00    +0.000 A 
ATOM     10  C   UNL     1       0.979   8.545  20.467  0.00  0.00    +0.000 A 
ATOM     11  C   UNL     1       0.440   9.746  20.008  0.00  0.00    +0.000 A 
ATOM     12  C   UNL     1       0.782  10.221  18.745  0.00  0.00    +0.000 A 
ATOM     13  C   UNL     1       1.693   9.514  17.953  0.00  0.00    +0.000 A 
ATOM     14  C   UNL     1       2.279   8.323  18.415  0.00  0.00    +0.000 A 
ATOM     15  C   UNL     1       3.254   7.629  17.665  0.00  0.00    +0.000 A 
ENDBRANCH   4   6
BRANCH   1  20
ATOM     16  C   UNL     1       6.004   3.316  12.389  0.00  0.00    +0.000 A 
ATOM     17  C   UNL     1       7.081   3.988  11.803  0.00  0.00    +0.000 A 
ATOM     18  C   UNL     1       7.787   4.952  12.515  0.00  0.00    +0.000 A 
ATOM     19  C   UNL     1       7.416   5.244  13.826  0.00  0.00    +0.000 A 
ATOM     20  C   UNL     1       6.339   4.580  14.442  0.00  0.00    +0.000 A 
ATOM     21  C   UNL     1       5.633   3.615  13.706  0.00  0.00    +0.000 A 
BRANCH  16  23
ATOM     22  C   UNL     1       6.195   1.284  11.163  0.00  0.00    +0.000 C 
ATOM     23  O   UNL     1       5.413   2.398  11.566  0.00  0.00    +0.000 OA
ENDBRANCH  16  23
ENDBRANCH   1  20
TORSDOF 3
ENDMDL
MODEL 4
REMARK VINA RESULT:      -8.0      5.171      7.294
REMARK  Name = 
REMARK  4 active torsions:
REMARK  status: ('A' for Active; 'I' for Inactive)
REMARK    1  A    between atoms: C_1  and  O_2
REMARK    2  A    between atoms: O_2  and  C_3
REMARK    3  A    between atoms: C_7  and  C_8
REMARK    4  A    between atoms: C_11  and  C_12
REMARK                            x       y       z     vdW  Elec       q    Type
REMARK                         _______ _______ _______ _____ _____    ______ ____
ROOT
ATOM      1  C   UNL     1       7.470   7.940  17.478  0.00  0.00    +0.000 A 
ATOM      2  N   UNL     1       7.921   7.101  16.567  0.00  0.00    +0.000 NA
ATOM      3  N   UNL     1       6.989   6.097  16.457  0.00  0.00    +0.000 NA
ATOM      4  C   UNL     1       6.021   6.386  17.303  0.00  0.00    +0.000 A 
ATOM      5  O   UNL     1       6.252   7.555  17.995  0.00  0.00    +0.000 OA
ENDROOT
BRANCH   4   6
ATOM      6  C   UNL     1       4.839   5.593  17.619  0.00  0.00    +0.000 A 
ATOM      7  C   UNL     1       4.497   4.545  16.751  0.00  0.00    +0.000 A 
ATOM      8  C   UNL     1       3.429   3.692  17.033  0.00  0.00    +0.000 A 
ATOM      9  C   UNL     1       2.665   3.874  18.189  0.00  0.00    +0.000 A 
ATOM     10  C   UNL     1       1.632   2.981  18.516  0.00  0.00    +0.000 A 
ATOM     11  C   UNL     1       0.864   3.173  19.663  0.00  0.00    +0.000 A 
ATOM     12  C   UNL     1       1.103   4.274  20.480  0.00  0.00    +0.000 A 
ATOM     13  C   UNL     1       2.135   5.165  20.172  0.00  0.00    +0.000 A 
ATOM     14  C   UNL     1       2.947   4.967  19.042  0.00  0.00    +0.000 A 
ATOM     15  C   UNL     1       4.040   5.812  18.748  0.00  0.00    +0.000 A 
ENDBRANCH   4   6
BRANCH   1  20
ATOM     16  C   UNL     1       8.533  11.562  17.856  0.00  0.00    +0.000 A 
ATOM     17  C   UNL     1       9.360  11.455  18.978  0.00  0.00    +0.000 A 
ATOM     18  C   UNL     1       9.559  10.225  19.597  0.00  0.00    +0.000 A 
ATOM     19  C   UNL     1       8.930   9.092  19.087  0.00  0.00    +0.000 A 
ATOM     20  C   UNL     1       8.095   9.170  17.957  0.00  0.00    +0.000 A 
ATOM     21  C   UNL     1       7.900  10.421  17.348  0.00  0.00    +0.000 A 
BRANCH  16  23
ATOM     22  C   UNL     1       9.123  13.860  18.059  0.00  0.00    +0.000 C 
ATOM     23  O   UNL     1       8.438  12.833  17.360  0.00  0.00    +0.000 OA
ENDBRANCH  16  23
ENDBRANCH   1  20
TORSDOF 3
ENDMDL
MODEL 5
REMARK VINA RESULT:      -8.0      3.488      9.516
REMARK  Name = 
REMARK  4 active torsions:
REMARK  status: ('A' for Active; 'I' for Inactive)
REMARK    1  A    between atoms: C_1  and  O_2
REMARK    2  A    between atoms: O_2  and  C_3
REMARK    3  A    between atoms: C_7  and  C_8
REMARK    4  A    between atoms: C_11  and  C_12
REMARK                            x       y       z     vdW  Elec       q    Type
REMARK                         _______ _______ _______ _____ _____    ______ ____
ROOT
ATOM      1  C   UNL     1       5.434   5.018  16.140  0.00  0.00    +0.000 A 
ATOM      2  N   UNL     1       5.756   4.485  17.302  0.00  0.00    +0.000 NA
ATOM      3  N   UNL     1       5.003   5.128  18.255  0.00  0.00    +0.000 NA
ATOM      4  C   UNL     1       4.262   6.011  17.619  0.00  0.00    +0.000 A 
ATOM      5  O   UNL     1       4.476   6.002  16.257  0.00  0.00    +0.000 OA
ENDROOT
BRANCH   4   6
ATOM      6  C   UNL     1       3.351   6.997  18.190  0.00  0.00    +0.000 A 
ATOM      7  C   UNL     1       3.060   8.142  17.433  0.00  0.00    +0.000 A 
ATOM      8  C   UNL     1       2.134   9.087  17.878  0.00  0.00    +0.000 A 
ATOM      9  C   UNL     1       1.481   8.915  19.101  0.00  0.00    +0.000 A 
ATOM     10  C   UNL     1       0.499   9.823  19.525  0.00  0.00    +0.000 A 
ATOM     11  C   UNL     1      -0.142   9.656  20.752  0.00  0.00    +0.000 A 
ATOM     12  C   UNL     1       0.212   8.593  21.578  0.00  0.00    +0.000 A 
ATOM     13  C   UNL     1       1.182   7.675  21.164  0.00  0.00    +0.000 A 
ATOM     14  C   UNL     1       1.810   7.803  19.913  0.00  0.00    +0.000 A 
ATOM     15  C   UNL     1       2.740   6.851  19.442  0.00  0.00    +0.000 A 
ENDBRANCH   4   6
BRANCH   1  20
ATOM     16  C   UNL     1       5.854   3.532  12.675  0.00  0.00    +0.000 A 
ATOM     17  C   UNL     1       7.072   4.113  12.310  0.00  0.00    +0.000 A 
ATOM     18  C   UNL     1       7.736   4.975  13.178  0.00  0.00    +0.000 A 
ATOM     19  C   UNL     1       7.178   5.254  14.424  0.00  0.00    +0.000 A 
ATOM     20  C   UNL     1       5.956   4.680  14.819  0.00  0.00    +0.000 A 
ATOM     21  C   UNL     1       5.297   3.818  13.928  0.00  0.00    +0.000 A 
BRANCH  16  23
ATOM     22  C   UNL     1       4.083   3.085  11.148  0.00  0.00    +0.000 C 
ATOM     23  O   UNL     1       5.327   2.708  11.720  0.00  0.00    +0.000 OA
ENDBRANCH  16  23
ENDBRANCH   1  20
TORSDOF 3
ENDMDL
MODEL 6
REMARK VINA RESULT:      -7.9      1.833      8.633
REMARK  Name = 
REMARK  4 active torsions:
REMARK  status: ('A' for Active; 'I' for Inactive)
REMARK    1  A    between atoms: C_1  and  O_2
REMARK    2  A    between atoms: O_2  and  C_3
REMARK    3  A    between atoms: C_7  and  C_8
REMARK    4  A    between atoms: C_11  and  C_12
REMARK                            x       y       z     vdW  Elec       q    Type
REMARK                         _______ _______ _______ _____ _____    ______ ____
ROOT
ATOM      1  C   UNL     1       2.905   7.609  18.094  0.00  0.00    +0.000 A 
ATOM      2  N   UNL     1       2.572   8.507  17.188  0.00  0.00    +0.000 NA
ATOM      3  N   UNL     1       1.707   9.383  17.797  0.00  0.00    +0.000 NA
ATOM      4  C   UNL     1       1.567   8.972  19.040  0.00  0.00    +0.000 A 
ATOM      5  O   UNL     1       2.305   7.840  19.312  0.00  0.00    +0.000 OA
ENDROOT
BRANCH   4   6
ATOM      6  C   UNL     1       0.693   9.518  20.073  0.00  0.00    +0.000 A 
ATOM      7  C   UNL     1       0.719   8.920  21.342  0.00  0.00    +0.000 A 
ATOM      8  C   UNL     1      -0.026   9.440  22.401  0.00  0.00    +0.000 A 
ATOM      9  C   UNL     1      -0.828  10.568  22.215  0.00  0.00    +0.000 A 
ATOM     10  C   UNL     1      -1.528  11.139  23.290  0.00  0.00    +0.000 A 
ATOM     11  C   UNL     1      -2.337  12.257  23.098  0.00  0.00    +0.000 A 
ATOM     12  C   UNL     1      -2.476  12.800  21.824  0.00  0.00    +0.000 A 
ATOM     13  C   UNL     1      -1.777  12.249  20.746  0.00  0.00    +0.000 A 
ATOM     14  C   UNL     1      -0.924  11.146  20.926  0.00  0.00    +0.000 A 
ATOM     15  C   UNL     1      -0.153  10.615  19.869  0.00  0.00    +0.000 A 
ENDBRANCH   4   6
BRANCH   1  20
ATOM     16  C   UNL     1       4.809   4.385  18.703  0.00  0.00    +0.000 A 
ATOM     17  C   UNL     1       5.559   4.322  17.525  0.00  0.00    +0.000 A 
ATOM     18  C   UNL     1       5.440   5.311  16.554  0.00  0.00    +0.000 A 
ATOM     19  C   UNL     1       4.565   6.374  16.764  0.00  0.00    +0.000 A 
ATOM     20  C   UNL     1       3.799   6.465  17.942  0.00  0.00    +0.000 A 
ATOM     21  C   UNL     1       3.928   5.455  18.909  0.00  0.00    +0.000 A 
BRANCH  16  23
ATOM     22  C   UNL     1       4.086   2.291  19.576  0.00  0.00    +0.000 C 
ATOM     23  O   UNL     1       5.038   3.344  19.560  0.00  0.00    +0.000 OA
ENDBRANCH  16  23
ENDBRANCH   1  20
TORSDOF 3
ENDMDL
MODEL 7
REMARK VINA RESULT:      -7.9      1.789      8.736
REMARK  Name = 
REMARK  4 active torsions:
REMARK  status: ('A' for Active; 'I' for Inactive)
REMARK    1  A    between atoms: C_1  and  O_2
REMARK    2  A    between atoms: O_2  and  C_3
REMARK    3  A    between atoms: C_7  and  C_8
REMARK    4  A    between atoms: C_11  and  C_12
REMARK                            x       y       z     vdW  Elec       q    Type
REMARK                         _______ _______ _______ _____ _____    ______ ____
ROOT
ATOM      1  C   UNL     1       2.617   7.583  18.082  0.00  0.00    +0.000 A 
ATOM      2  N   UNL     1       2.634   8.671  17.337  0.00  0.00    +0.000 NA
ATOM      3  N   UNL     1       1.906   9.623  18.009  0.00  0.00    +0.000 NA
ATOM      4  C   UNL     1       1.493   9.063  19.127  0.00  0.00    +0.000 A 
ATOM      5  O   UNL     1       1.909   7.755  19.252  0.00  0.00    +0.000 OA
ENDROOT
BRANCH   4   6
ATOM      6  C   UNL     1       0.621   9.633  20.147  0.00  0.00    +0.000 A 
ATOM      7  C   UNL     1       0.647   9.065  21.430  0.00  0.00    +0.000 A 
ATOM      8  C   UNL     1      -0.097   9.609  22.478  0.00  0.00    +0.000 A 
ATOM      9  C   UNL     1      -0.900  10.733  22.265  0.00  0.00    +0.000 A 
ATOM     10  C   UNL     1      -1.599  11.328  23.327  0.00  0.00    +0.000 A 
ATOM     11  C   UNL     1      -2.409  12.441  23.109  0.00  0.00    +0.000 A 
ATOM     12  C   UNL     1      -2.549  12.954  21.823  0.00  0.00    +0.000 A 
ATOM     13  C   UNL     1      -1.850  12.377  20.758  0.00  0.00    +0.000 A 
ATOM     14  C   UNL     1      -0.997  11.279  20.963  0.00  0.00    +0.000 A 
ATOM     15  C   UNL     1      -0.227  10.725  19.918  0.00  0.00    +0.000 A 
ENDBRANCH   4   6
BRANCH   1  20
ATOM     16  C   UNL     1       5.117   4.895  17.125  0.00  0.00    +0.000 A 
ATOM     17  C   UNL     1       4.329   3.756  17.313  0.00  0.00    +0.000 A 
ATOM     18  C   UNL     1       3.012   3.867  17.748  0.00  0.00    +0.000 A 
ATOM     19  C   UNL     1       2.477   5.130  17.992  0.00  0.00    +0.000 A 
ATOM     20  C   UNL     1       3.245   6.294  17.808  0.00  0.00    +0.000 A 
ATOM     21  C   UNL     1       4.575   6.162  17.374  0.00  0.00    +0.000 A 
BRANCH  16  23
ATOM     22  C   UNL     1       7.423   4.647  17.662  0.00  0.00    +0.000 C 
ATOM     23  O   UNL     1       6.385   4.624  16.693  0.00  0.00    +0.000 OA
ENDBRANCH  16  23
ENDBRANCH   1  20
TORSDOF 3
ENDMDL
MODEL 8
REMARK VINA RESULT:      -7.9      1.812      8.608
REMARK  Name = 
REMARK  4 active torsions:
REMARK  status: ('A' for Active; 'I' for Inactive)
REMARK    1  A    between atoms: C_1  and  O_2
REMARK    2  A    between atoms: O_2  and  C_3
REMARK    3  A    between atoms: C_7  and  C_8
REMARK    4  A    between atoms: C_11  and  C_12
REMARK                            x       y       z     vdW  Elec       q    Type
REMARK                         _______ _______ _______ _____ _____    ______ ____
ROOT
ATOM      1  C   UNL     1       2.531   7.461  18.167  0.00  0.00    +0.000 A 
ATOM      2  N   UNL     1       2.611   8.538  17.411  0.00  0.00    +0.000 NA
ATOM      3  N   UNL     1       1.923   9.532  18.065  0.00  0.00    +0.000 NA
ATOM      4  C   UNL     1       1.469   9.006  19.183  0.00  0.00    +0.000 A 
ATOM      5  O   UNL     1       1.818   7.680  19.326  0.00  0.00    +0.000 OA
ENDROOT
BRANCH   4   6
ATOM      6  C   UNL     1       0.614   9.629  20.186  0.00  0.00    +0.000 A 
ATOM      7  C   UNL     1       0.628   9.100  21.486  0.00  0.00    +0.000 A 
ATOM      8  C   UNL     1      -0.101   9.695  22.517  0.00  0.00    +0.000 A 
ATOM      9  C   UNL     1      -0.873  10.833  22.271  0.00  0.00    +0.000 A 
ATOM     10  C   UNL     1      -1.555  11.478  23.315  0.00  0.00    +0.000 A 
ATOM     11  C   UNL     1      -2.335  12.606  23.064  0.00  0.00    +0.000 A 
ATOM     12  C   UNL     1      -2.464  13.083  21.763  0.00  0.00    +0.000 A 
ATOM     13  C   UNL     1      -1.782  12.456  20.715  0.00  0.00    +0.000 A 
ATOM     14  C   UNL     1      -0.958  11.342  20.953  0.00  0.00    +0.000 A 
ATOM     15  C   UNL     1      -0.205  10.736  19.925  0.00  0.00    +0.000 A 
ENDBRANCH   4   6
BRANCH   1  20
ATOM     16  C   UNL     1       2.956   3.715  17.747  0.00  0.00    +0.000 A 
ATOM     17  C   UNL     1       4.310   3.663  17.404  0.00  0.00    +0.000 A 
ATOM     18  C   UNL     1       5.063   4.829  17.309  0.00  0.00    +0.000 A 
ATOM     19  C   UNL     1       4.457   6.057  17.563  0.00  0.00    +0.000 A 
ATOM     20  C   UNL     1       3.097   6.139  17.914  0.00  0.00    +0.000 A 
ATOM     21  C   UNL     1       2.351   4.953  17.999  0.00  0.00    +0.000 A 
BRANCH  16  23
ATOM     22  C   UNL     1       1.226   2.354  18.655  0.00  0.00    +0.000 C 
ATOM     23  O   UNL     1       2.353   2.489  17.803  0.00  0.00    +0.000 OA
ENDBRANCH  16  23
ENDBRANCH   1  20
TORSDOF 3
ENDMDL
MODEL 9
REMARK VINA RESULT:      -7.8      1.129      2.161
REMARK  Name = 
REMARK  4 active torsions:
REMARK  status: ('A' for Active; 'I' for Inactive)
REMARK    1  A    between atoms: C_1  and  O_2
REMARK    2  A    between atoms: O_2  and  C_3
REMARK    3  A    between atoms: C_7  and  C_8
REMARK    4  A    between atoms: C_11  and  C_12
REMARK                            x       y       z     vdW  Elec       q    Type
REMARK                         _______ _______ _______ _____ _____    ______ ____
ROOT
ATOM      1  C   UNL     1       0.964  10.023  19.601  0.00  0.00    +0.000 A 
ATOM      2  N   UNL     1       1.431  10.627  18.526  0.00  0.00    +0.000 NA
ATOM      3  N   UNL     1       2.055   9.664  17.770  0.00  0.00    +0.000 NA
ATOM      4  C   UNL     1       1.928   8.528  18.425  0.00  0.00    +0.000 A 
ATOM      5  O   UNL     1       1.237   8.672  19.609  0.00  0.00    +0.000 OA
ENDROOT
BRANCH   4   6
ATOM      6  C   UNL     1       2.485   7.226  18.080  0.00  0.00    +0.000 A 
ATOM      7  C   UNL     1       3.796   7.180  17.582  0.00  0.00    +0.000 A 
ATOM      8  C   UNL     1       4.425   5.965  17.308  0.00  0.00    +0.000 A 
ATOM      9  C   UNL     1       3.751   4.758  17.517  0.00  0.00    +0.000 A 
ATOM     10  C   UNL     1       4.397   3.529  17.310  0.00  0.00    +0.000 A 
ATOM     11  C   UNL     1       3.718   2.328  17.506  0.00  0.00    +0.000 A 
ATOM     12  C   UNL     1       2.379   2.343  17.885  0.00  0.00    +0.000 A 
ATOM     13  C   UNL     1       1.726   3.560  18.104  0.00  0.00    +0.000 A 
ATOM     14  C   UNL     1       2.404   4.782  17.951  0.00  0.00    +0.000 A 
ATOM     15  C   UNL     1       1.788   6.020  18.235  0.00  0.00    +0.000 A 
ENDBRANCH   4   6
BRANCH   1  20
ATOM     16  C   UNL     1      -0.961  12.434  21.808  0.00  0.00    +0.000 A 
ATOM     17  C   UNL     1      -1.185  11.617  22.919  0.00  0.00    +0.000 A 
ATOM     18  C   UNL     1      -0.720  10.306  22.942  0.00  0.00    +0.000 A 
ATOM     19  C   UNL     1      -0.020   9.810  21.844  0.00  0.00    +0.000 A 
ATOM     20  C   UNL     1       0.223  10.610  20.713  0.00  0.00    +0.000 A 
ATOM     21  C   UNL     1      -0.260  11.930  20.705  0.00  0.00    +0.000 A 
BRANCH  16  23
ATOM     22  C   UNL     1      -2.310  14.169  20.889  0.00  0.00    +0.000 C 
ATOM     23  O   UNL     1      -1.475  13.695  21.936  0.00  0.00    +0.000 OA
ENDBRANCH  16  23
ENDBRANCH   1  20
TORSDOF 3
ENDMDL
