MODEL 1
REMARK VINA RESULT:      -9.2      0.000      0.000
REMARK  Name = 
REMARK  7 active torsions:
REMARK  status: ('A' for Active; 'I' for Inactive)
REMARK    1  A    between atoms: C_1  and  C_2
REMARK    2  A    between atoms: C_6  and  C_7
REMARK    3  A    between atoms: C_8  and  C_9
REMARK    4  A    between atoms: N_21  and  C_22
REMARK    5  A    between atoms: C_22  and  C_23
REMARK    6  A    between atoms: N_25  and  C_26
REMARK    7  A    between atoms: C_30  and  C_31
REMARK                            x       y       z     vdW  Elec       q    Type
REMARK                         _______ _______ _______ _____ _____    ______ ____
ROOT
ATOM      1  C   UNL     1       3.502   6.106  18.461  0.00  0.00    +0.000 A 
ATOM      2  C   UNL     1       3.374   7.498  18.328  0.00  0.00    +0.000 A 
ATOM      3  C   UNL     1       4.615   7.930  17.810  0.00  0.00    +0.000 A 
ATOM      4  N   UNL     1       5.468   6.931  17.614  0.00  0.00    +0.000 NA
ATOM      5  N   UNL     1       4.803   5.843  18.063  0.00  0.00    +0.000 N 
ENDROOT
BRANCH   2   6
ATOM      6  C   UNL     1       2.203   8.323  18.626  0.00  0.00    +0.000 A 
ATOM      7  C   UNL     1       1.384   8.842  17.619  0.00  0.00    +0.000 A 
ATOM      8  C   UNL     1       0.314   9.689  17.926  0.00  0.00    +0.000 A 
ATOM      9  C   UNL     1      -0.022   9.993  19.233  0.00  0.00    +0.000 A 
ATOM     10  N   UNL     1      -1.067  10.805  19.472  0.00  0.00    +0.000 NA
ATOM     11  C   UNL     1      -1.390  11.057  20.759  0.00  0.00    +0.000 A 
ATOM     12  C   UNL     1      -0.714  10.525  21.840  0.00  0.00    +0.000 A 
ATOM     13  C   UNL     1       0.373   9.698  21.588  0.00  0.00    +0.000 A 
ATOM     14  C   UNL     1       0.748   9.420  20.265  0.00  0.00    +0.000 A 
ATOM     15  C   UNL     1       1.856   8.603  19.956  0.00  0.00    +0.000 A 
ENDBRANCH   2   6
BRANCH   1  21
ATOM     16  C   UNL     1       2.135   3.210  22.007  0.00  0.00    +0.000 C 
ATOM     17  C   UNL     1       1.841   3.706  20.623  0.00  0.00    +0.000 A 
ATOM     18  C   UNL     1       0.934   3.042  19.812  0.00  0.00    +0.000 A 
ATOM     19  C   UNL     1       0.830   3.428  18.483  0.00  0.00    +0.000 A 
ATOM     20  C   UNL     1       1.657   4.437  17.993  0.00  0.00    +0.000 A 
ATOM     21  C   UNL     1       2.509   5.095  18.869  0.00  0.00    +0.000 A 
ATOM     22  N   UNL     1       2.581   4.752  20.177  0.00  0.00    +0.000 NA
ENDBRANCH   1  21
BRANCH   5  23
ATOM     23  C   UNL     1       5.548   4.600  18.016  0.00  0.00    +0.000 C 
BRANCH  23  24
ATOM     24  C   UNL     1       6.393   4.438  16.778  0.00  0.00    +0.000 C 
ATOM     25  O   UNL     1       7.597   4.216  16.909  0.00  0.00    +0.000 OA
ATOM     26  N   UNL     1       5.739   4.661  15.578  0.00  0.00    +0.000 N 
ATOM     27  H   UNL     1       4.772   4.985  15.631  0.00  0.00    +0.000 HD
BRANCH  26  28
ATOM     28  C   UNL     1       6.284   4.511  14.283  0.00  0.00    +0.000 A 
ATOM     29  C   UNL     1       7.313   5.313  13.788  0.00  0.00    +0.000 A 
ATOM     30  C   UNL     1       7.829   5.105  12.508  0.00  0.00    +0.000 A 
ATOM     31  C   UNL     1       7.320   4.088  11.703  0.00  0.00    +0.000 A 
ATOM     32  C   UNL     1       6.291   3.269  12.178  0.00  0.00    +0.000 A 
ATOM     33  C   UNL     1       5.779   3.485  13.471  0.00  0.00    +0.000 A 
BRANCH  32  34
ATOM     34  C   UNL     1       5.703   2.164  11.367  0.00  0.00    +0.000 C 
ATOM     35  N   UNL     1       6.470   1.062  11.107  0.00  0.00    +0.000 N 
ATOM     36  O   UNL     1       4.556   2.226  10.940  0.00  0.00    +0.000 OA
ATOM     37  H   UNL     1       7.406   0.907  11.431  0.00  0.00    +0.000 HD
ATOM     38  H   UNL     1       6.031   0.327  10.567  0.00  0.00    +0.000 HD
ENDBRANCH  32  34
ENDBRANCH  26  28
ENDBRANCH  23  24
ENDBRANCH   5  23
TORSDOF 6
ENDMDL
MODEL 2
REMARK VINA RESULT:      -9.0      0.606      1.131
REMARK  Name = 
REMARK  7 active torsions:
REMARK  status: ('A' for Active; 'I' for Inactive)
REMARK    1  A    between atoms: C_1  and  C_2
REMARK    2  A    between atoms: C_6  and  C_7
REMARK    3  A    between atoms: C_8  and  C_9
REMARK    4  A    between atoms: N_21  and  C_22
REMARK    5  A    between atoms: C_22  and  C_23
REMARK    6  A    between atoms: N_25  and  C_26
REMARK    7  A    between atoms: C_30  and  C_31
REMARK                            x       y       z     vdW  Elec       q    Type
REMARK                         _______ _______ _______ _____ _____    ______ ____
ROOT
ATOM      1  C   UNL     1       3.675   6.074  18.662  0.00  0.00    +0.000 A 
ATOM      2  C   UNL     1       3.386   7.404  18.318  0.00  0.00    +0.000 A 
ATOM      3  C   UNL     1       4.417   7.783  17.430  0.00  0.00    +0.000 A 
ATOM      4  N   UNL     1       5.289   6.807  17.204  0.00  0.00    +0.000 NA
ATOM      5  N   UNL     1       4.860   5.800  17.997  0.00  0.00    +0.000 N 
ENDROOT
BRANCH   2   6
ATOM      6  C   UNL     1       2.248   8.216  18.752  0.00  0.00    +0.000 A 
ATOM      7  C   UNL     1       1.414   8.873  17.844  0.00  0.00    +0.000 A 
ATOM      8  C   UNL     1       0.378   9.702  18.286  0.00  0.00    +0.000 A 
ATOM      9  C   UNL     1       0.091   9.853  19.632  0.00  0.00    +0.000 A 
ATOM     10  N   UNL     1      -0.923  10.654  20.002  0.00  0.00    +0.000 NA
ATOM     11  C   UNL     1      -1.200  10.755  21.319  0.00  0.00    +0.000 A 
ATOM     12  C   UNL     1      -0.508  10.079  22.305  0.00  0.00    +0.000 A 
ATOM     13  C   UNL     1       0.548   9.262  21.918  0.00  0.00    +0.000 A 
ATOM     14  C   UNL     1       0.875   9.139  20.560  0.00  0.00    +0.000 A 
ATOM     15  C   UNL     1       1.950   8.339  20.117  0.00  0.00    +0.000 A 
ENDBRANCH   2   6
BRANCH   1  21
ATOM     16  C   UNL     1       0.619   2.403  18.536  0.00  0.00    +0.000 C 
ATOM     17  C   UNL     1       1.441   3.309  19.404  0.00  0.00    +0.000 A 
ATOM     18  C   UNL     1       1.224   3.364  20.772  0.00  0.00    +0.000 A 
ATOM     19  C   UNL     1       1.880   4.343  21.506  0.00  0.00    +0.000 A 
ATOM     20  C   UNL     1       2.701   5.259  20.851  0.00  0.00    +0.000 A 
ATOM     21  C   UNL     1       2.914   5.118  19.487  0.00  0.00    +0.000 A 
ATOM     22  N   UNL     1       2.312   4.136  18.775  0.00  0.00    +0.000 NA
ENDBRANCH   1  21
BRANCH   5  23
ATOM     23  C   UNL     1       5.688   4.609  17.986  0.00  0.00    +0.000 C 
BRANCH  23  24
ATOM     24  C   UNL     1       6.506   4.443  16.731  0.00  0.00    +0.000 C 
ATOM     25  O   UNL     1       7.716   4.244  16.836  0.00  0.00    +0.000 OA
ATOM     26  N   UNL     1       5.820   4.638  15.543  0.00  0.00    +0.000 N 
ATOM     27  H   UNL     1       4.849   4.946  15.615  0.00  0.00    +0.000 HD
BRANCH  26  28
ATOM     28  C   UNL     1       6.337   4.478  14.238  0.00  0.00    +0.000 A 
ATOM     29  C   UNL     1       7.374   5.259  13.725  0.00  0.00    +0.000 A 
ATOM     30  C   UNL     1       7.860   5.042  12.434  0.00  0.00    +0.000 A 
ATOM     31  C   UNL     1       7.315   4.037  11.638  0.00  0.00    +0.000 A 
ATOM     32  C   UNL     1       6.278   3.240  12.132  0.00  0.00    +0.000 A 
ATOM     33  C   UNL     1       5.796   3.464  13.435  0.00  0.00    +0.000 A 
BRANCH  32  34
ATOM     34  C   UNL     1       5.651   2.148  11.331  0.00  0.00    +0.000 C 
ATOM     35  N   UNL     1       6.372   1.009  11.098  0.00  0.00    +0.000 N 
ATOM     36  O   UNL     1       4.513   2.253  10.889  0.00  0.00    +0.000 OA
ATOM     37  H   UNL     1       7.297   0.819  11.435  0.00  0.00    +0.000 HD
ATOM     38  H   UNL     1       5.907   0.285  10.564  0.00  0.00    +0.000 HD
ENDBRANCH  32  34
ENDBRANCH  26  28
ENDBRANCH  23  24
ENDBRANCH   5  23
TORSDOF 6
ENDMDL
MODEL 3
REMARK VINA RESULT:      -8.7      0.813      1.715
REMARK  Name = 
REMARK  7 active torsions:
REMARK  status: ('A' for Active; 'I' for Inactive)
REMARK    1  A    between atoms: C_1  and  C_2
REMARK    2  A    between atoms: C_6  and  C_7
REMARK    3  A    between atoms: C_8  and  C_9
REMARK    4  A    between atoms: N_21  and  C_22
REMARK    5  A    between atoms: C_22  and  C_23
REMARK    6  A    between atoms: N_25  and  C_26
REMARK    7  A    between atoms: C_30  and  C_31
REMARK                            x       y       z     vdW  Elec       q    Type
REMARK                         _______ _______ _______ _____ _____    ______ ____
ROOT
ATOM      1  C   UNL     1       3.646   5.950  18.825  0.00  0.00    +0.000 A 
ATOM      2  C   UNL     1       3.347   7.291  18.536  0.00  0.00    +0.000 A 
ATOM      3  C   UNL     1       4.371   7.712  17.659  0.00  0.00    +0.000 A 
ATOM      4  N   UNL     1       5.248   6.752  17.390  0.00  0.00    +0.000 NA
ATOM      5  N   UNL     1       4.830   5.711  18.144  0.00  0.00    +0.000 N 
ENDROOT
BRANCH   2   6
ATOM      6  C   UNL     1       2.206   8.076  19.007  0.00  0.00    +0.000 A 
ATOM      7  C   UNL     1       1.820   8.094  20.350  0.00  0.00    +0.000 A 
ATOM      8  C   UNL     1       0.682   8.795  20.764  0.00  0.00    +0.000 A 
ATOM      9  C   UNL     1      -0.068   9.551  19.881  0.00  0.00    +0.000 A 
ATOM     10  N   UNL     1      -1.147  10.213  20.334  0.00  0.00    +0.000 NA
ATOM     11  C   UNL     1      -1.839  10.969  19.455  0.00  0.00    +0.000 A 
ATOM     12  C   UNL     1      -1.499  11.106  18.123  0.00  0.00    +0.000 A 
ATOM     13  C   UNL     1      -0.391  10.410  17.657  0.00  0.00    +0.000 A 
ATOM     14  C   UNL     1       0.349   9.605  18.536  0.00  0.00    +0.000 A 
ATOM     15  C   UNL     1       1.470   8.862  18.108  0.00  0.00    +0.000 A 
ENDBRANCH   2   6
BRANCH   1  21
ATOM     16  C   UNL     1       0.510   2.353  18.574  0.00  0.00    +0.000 C 
ATOM     17  C   UNL     1       1.382   3.184  19.468  0.00  0.00    +0.000 A 
ATOM     18  C   UNL     1       1.215   3.154  20.844  0.00  0.00    +0.000 A 
ATOM     19  C   UNL     1       1.917   4.070  21.615  0.00  0.00    +0.000 A 
ATOM     20  C   UNL     1       2.734   5.011  20.991  0.00  0.00    +0.000 A 
ATOM     21  C   UNL     1       2.894   4.956  19.614  0.00  0.00    +0.000 A 
ATOM     22  N   UNL     1       2.247   4.035  18.862  0.00  0.00    +0.000 NA
ENDBRANCH   1  21
BRANCH   5  23
ATOM     23  C   UNL     1       5.665   4.526  18.081  0.00  0.00    +0.000 C 
BRANCH  23  24
ATOM     24  C   UNL     1       6.488   4.424  16.823  0.00  0.00    +0.000 C 
ATOM     25  O   UNL     1       7.711   4.319  16.923  0.00  0.00    +0.000 OA
ATOM     26  N   UNL     1       5.785   4.564  15.638  0.00  0.00    +0.000 N 
ATOM     27  H   UNL     1       4.794   4.796  15.713  0.00  0.00    +0.000 HD
BRANCH  26  28
ATOM     28  C   UNL     1       6.308   4.444  14.330  0.00  0.00    +0.000 A 
ATOM     29  C   UNL     1       7.328   5.258  13.837  0.00  0.00    +0.000 A 
ATOM     30  C   UNL     1       7.821   5.080  12.543  0.00  0.00    +0.000 A 
ATOM     31  C   UNL     1       7.300   4.081  11.724  0.00  0.00    +0.000 A 
ATOM     32  C   UNL     1       6.280   3.251  12.197  0.00  0.00    +0.000 A 
ATOM     33  C   UNL     1       5.790   3.437  13.504  0.00  0.00    +0.000 A 
BRANCH  32  34
ATOM     34  C   UNL     1       5.678   2.163  11.372  0.00  0.00    +0.000 C 
ATOM     35  N   UNL     1       6.430   1.053  11.102  0.00  0.00    +0.000 N 
ATOM     36  O   UNL     1       4.534   2.247  10.941  0.00  0.00    +0.000 OA
ATOM     37  H   UNL     1       7.362   0.880  11.428  0.00  0.00    +0.000 HD
ATOM     38  H   UNL     1       5.981   0.331  10.552  0.00  0.00    +0.000 HD
ENDBRANCH  32  34
ENDBRANCH  26  28
ENDBRANCH  23  24
ENDBRANCH   5  23
TORSDOF 6
ENDMDL
MODEL 4
REMARK VINA RESULT:      -8.6      0.629      1.426
REMARK  Name = 
REMARK  7 active torsions:
REMARK  status: ('A' for Active; 'I' for Inactive)
REMARK    1  A    between atoms: C_1  and  C_2
REMARK    2  A    between atoms: C_6  and  C_7
REMARK    3  A    between atoms: C_8  and  C_9
REMARK    4  A    between atoms: N_21  and  C_22
REMARK    5  A    between atoms: C_22  and  C_23
REMARK    6  A    between atoms: N_25  and  C_26
REMARK    7  A    between atoms: C_30  and  C_31
REMARK                            x       y       z     vdW  Elec       q    Type
REMARK                         _______ _______ _______ _____ _____    ______ ____
ROOT
ATOM      1  C   UNL     1       3.389   6.029  18.545  0.00  0.00    +0.000 A 
ATOM      2  C   UNL     1       3.247   7.421  18.429  0.00  0.00    +0.000 A 
ATOM      3  C   UNL     1       4.469   7.867  17.877  0.00  0.00    +0.000 A 
ATOM      4  N   UNL     1       5.323   6.876  17.644  0.00  0.00    +0.000 NA
ATOM      5  N   UNL     1       4.679   5.780  18.104  0.00  0.00    +0.000 N 
ENDROOT
BRANCH   2   6
ATOM      6  C   UNL     1       2.081   8.236  18.771  0.00  0.00    +0.000 A 
ATOM      7  C   UNL     1       1.790   8.601  20.087  0.00  0.00    +0.000 A 
ATOM      8  C   UNL     1       0.629   9.318  20.397  0.00  0.00    +0.000 A 
ATOM      9  C   UNL     1      -0.242   9.753  19.412  0.00  0.00    +0.000 A 
ATOM     10  N   UNL     1      -1.339  10.446  19.764  0.00  0.00    +0.000 NA
ATOM     11  C   UNL     1      -2.151  10.886  18.779  0.00  0.00    +0.000 A 
ATOM     12  C   UNL     1      -1.917  10.669  17.435  0.00  0.00    +0.000 A 
ATOM     13  C   UNL     1      -0.790   9.940  17.077  0.00  0.00    +0.000 A 
ATOM     14  C   UNL     1       0.074   9.457  18.071  0.00  0.00    +0.000 A 
ATOM     15  C   UNL     1       1.221   8.694  17.762  0.00  0.00    +0.000 A 
ENDBRANCH   2   6
BRANCH   1  21
ATOM     16  C   UNL     1       2.136   3.114  22.118  0.00  0.00    +0.000 C 
ATOM     17  C   UNL     1       1.805   3.609  20.742  0.00  0.00    +0.000 A 
ATOM     18  C   UNL     1       0.886   2.937  19.951  0.00  0.00    +0.000 A 
ATOM     19  C   UNL     1       0.746   3.324  18.625  0.00  0.00    +0.000 A 
ATOM     20  C   UNL     1       1.551   4.342  18.118  0.00  0.00    +0.000 A 
ATOM     21  C   UNL     1       2.417   5.007  18.975  0.00  0.00    +0.000 A 
ATOM     22  N   UNL     1       2.523   4.664  20.280  0.00  0.00    +0.000 NA
ENDBRANCH   1  21
BRANCH   5  23
ATOM     23  C   UNL     1       5.431   4.542  18.022  0.00  0.00    +0.000 C 
BRANCH  23  24
ATOM     24  C   UNL     1       6.296   4.431  16.794  0.00  0.00    +0.000 C 
ATOM     25  O   UNL     1       7.513   4.304  16.937  0.00  0.00    +0.000 OA
ATOM     26  N   UNL     1       5.638   4.589  15.585  0.00  0.00    +0.000 N 
ATOM     27  H   UNL     1       4.649   4.838  15.627  0.00  0.00    +0.000 HD
BRANCH  26  28
ATOM     28  C   UNL     1       6.205   4.466  14.297  0.00  0.00    +0.000 A 
ATOM     29  C   UNL     1       7.234   5.285  13.832  0.00  0.00    +0.000 A 
ATOM     30  C   UNL     1       7.771   5.104  12.556  0.00  0.00    +0.000 A 
ATOM     31  C   UNL     1       7.285   4.096  11.726  0.00  0.00    +0.000 A 
ATOM     32  C   UNL     1       6.256   3.260  12.171  0.00  0.00    +0.000 A 
ATOM     33  C   UNL     1       5.722   3.449  13.460  0.00  0.00    +0.000 A 
BRANCH  32  34
ATOM     34  C   UNL     1       5.690   2.164  11.333  0.00  0.00    +0.000 C 
ATOM     35  N   UNL     1       6.471   1.073  11.066  0.00  0.00    +0.000 N 
ATOM     36  O   UNL     1       4.550   2.223  10.889  0.00  0.00    +0.000 OA
ATOM     37  H   UNL     1       7.404   0.921  11.401  0.00  0.00    +0.000 HD
ATOM     38  H   UNL     1       6.047   0.343  10.506  0.00  0.00    +0.000 HD
ENDBRANCH  32  34
ENDBRANCH  26  28
ENDBRANCH  23  24
ENDBRANCH   5  23
TORSDOF 6
ENDMDL
MODEL 5
REMARK VINA RESULT:      -8.4      5.120     11.052
REMARK  Name = 
REMARK  7 active torsions:
REMARK  status: ('A' for Active; 'I' for Inactive)
REMARK    1  A    between atoms: C_1  and  C_2
REMARK    2  A    between atoms: C_6  and  C_7
REMARK    3  A    between atoms: C_8  and  C_9
REMARK    4  A    between atoms: N_21  and  C_22
REMARK    5  A    between atoms: C_22  and  C_23
REMARK    6  A    between atoms: N_25  and  C_26
REMARK    7  A    between atoms: C_30  and  C_31
REMARK                            x       y       z     vdW  Elec       q    Type
REMARK                         _______ _______ _______ _____ _____    ______ ____
ROOT
ATOM      1  C   UNL     1       0.044  10.456  21.235  0.00  0.00    +0.000 A 
ATOM      2  C   UNL     1       0.759   9.283  21.525  0.00  0.00    +0.000 A 
ATOM      3  C   UNL     1       0.749   9.189  22.934  0.00  0.00    +0.000 A 
ATOM      4  N   UNL     1       0.091  10.186  23.514  0.00  0.00    +0.000 NA
ATOM      5  N   UNL     1      -0.281  10.973  22.480  0.00  0.00    +0.000 N 
ENDROOT
BRANCH   2   6
ATOM      6  C   UNL     1       1.357   8.341  20.578  0.00  0.00    +0.000 A 
ATOM      7  C   UNL     1       1.818   8.742  19.322  0.00  0.00    +0.000 A 
ATOM      8  C   UNL     1       2.318   7.810  18.406  0.00  0.00    +0.000 A 
ATOM      9  C   UNL     1       2.442   6.469  18.727  0.00  0.00    +0.000 A 
ATOM     10  N   UNL     1       2.938   5.617  17.813  0.00  0.00    +0.000 NA
ATOM     11  C   UNL     1       3.079   4.322  18.167  0.00  0.00    +0.000 A 
ATOM     12  C   UNL     1       2.748   3.825  19.412  0.00  0.00    +0.000 A 
ATOM     13  C   UNL     1       2.222   4.706  20.349  0.00  0.00    +0.000 A 
ATOM     14  C   UNL     1       2.051   6.058  20.017  0.00  0.00    +0.000 A 
ATOM     15  C   UNL     1       1.503   6.990  20.925  0.00  0.00    +0.000 A 
ENDBRANCH   2   6
BRANCH   1  21
ATOM     16  C   UNL     1      -0.130  14.476  18.658  0.00  0.00    +0.000 C 
ATOM     17  C   UNL     1      -0.404  13.002  18.684  0.00  0.00    +0.000 A 
ATOM     18  C   UNL     1      -1.188  12.411  17.704  0.00  0.00    +0.000 A 
ATOM     19  C   UNL     1      -1.562  11.085  17.869  0.00  0.00    +0.000 A 
ATOM     20  C   UNL     1      -1.176  10.399  19.019  0.00  0.00    +0.000 A 
ATOM     21  C   UNL     1      -0.351  11.033  19.937  0.00  0.00    +0.000 A 
ATOM     22  N   UNL     1       0.054  12.312  19.758  0.00  0.00    +0.000 NA
ENDBRANCH   1  21
BRANCH   5  23
ATOM     23  C   UNL     1      -0.980  12.189  22.848  0.00  0.00    +0.000 C 
BRANCH  23  24
ATOM     24  C   UNL     1      -2.461  12.152  22.574  0.00  0.00    +0.000 C 
ATOM     25  O   UNL     1      -3.204  11.630  23.407  0.00  0.00    +0.000 OA
ATOM     26  N   UNL     1      -2.849  12.627  21.332  0.00  0.00    +0.000 N 
ATOM     27  H   UNL     1      -2.105  12.891  20.685  0.00  0.00    +0.000 HD
BRANCH  26  28
ATOM     28  C   UNL     1      -4.174  12.760  20.859  0.00  0.00    +0.000 A 
ATOM     29  C   UNL     1      -5.231  13.200  21.657  0.00  0.00    +0.000 A 
ATOM     30  C   UNL     1      -6.517  13.333  21.130  0.00  0.00    +0.000 A 
ATOM     31  C   UNL     1      -6.763  13.028  19.793  0.00  0.00    +0.000 A 
ATOM     32  C   UNL     1      -5.719  12.589  18.973  0.00  0.00    +0.000 A 
ATOM     33  C   UNL     1      -4.425  12.460  19.513  0.00  0.00    +0.000 A 
BRANCH  32  34
ATOM     34  C   UNL     1      -5.915  12.246  17.534  0.00  0.00    +0.000 C 
ATOM     35  N   UNL     1      -7.117  12.537  16.949  0.00  0.00    +0.000 N 
ATOM     36  O   UNL     1      -5.026  11.718  16.877  0.00  0.00    +0.000 OA
ATOM     37  H   UNL     1      -7.893  12.988  17.393  0.00  0.00    +0.000 HD
ATOM     38  H   UNL     1      -7.205  12.304  15.967  0.00  0.00    +0.000 HD
ENDBRANCH  32  34
ENDBRANCH  26  28
ENDBRANCH  23  24
ENDBRANCH   5  23
TORSDOF 6
ENDMDL
MODEL 6
REMARK VINA RESULT:      -8.2      5.263     11.481
REMARK  Name = 
REMARK  7 active torsions:
REMARK  status: ('A' for Active; 'I' for Inactive)
REMARK    1  A    between atoms: C_1  and  C_2
REMARK    2  A    between atoms: C_6  and  C_7
REMARK    3  A    between atoms: C_8  and  C_9
REMARK    4  A    between atoms: N_21  and  C_22
REMARK    5  A    between atoms: C_22  and  C_23
REMARK    6  A    between atoms: N_25  and  C_26
REMARK    7  A    between atoms: C_30  and  C_31
REMARK                            x       y       z     vdW  Elec       q    Type
REMARK                         _______ _______ _______ _____ _____    ______ ____
ROOT
ATOM      1  C   UNL     1       0.071  10.877  21.297  0.00  0.00    +0.000 A 
ATOM      2  C   UNL     1       0.349   9.501  21.264  0.00  0.00    +0.000 A 
ATOM      3  C   UNL     1      -0.351   8.962  22.366  0.00  0.00    +0.000 A 
ATOM      4  N   UNL     1      -1.026   9.880  23.049  0.00  0.00    +0.000 NA
ATOM      5  N   UNL     1      -0.718  11.039  22.425  0.00  0.00    +0.000 N 
ENDROOT
BRANCH   2   6
ATOM      6  C   UNL     1       1.157   8.773  20.286  0.00  0.00    +0.000 A 
ATOM      7  C   UNL     1       1.440   9.293  19.020  0.00  0.00    +0.000 A 
ATOM      8  C   UNL     1       2.153   8.546  18.077  0.00  0.00    +0.000 A 
ATOM      9  C   UNL     1       2.665   7.296  18.375  0.00  0.00    +0.000 A 
ATOM     10  N   UNL     1       3.352   6.625  17.433  0.00  0.00    +0.000 NA
ATOM     11  C   UNL     1       3.868   5.422  17.765  0.00  0.00    +0.000 A 
ATOM     12  C   UNL     1       3.737   4.846  19.014  0.00  0.00    +0.000 A 
ATOM     13  C   UNL     1       3.015   5.538  19.979  0.00  0.00    +0.000 A 
ATOM     14  C   UNL     1       2.453   6.786  19.671  0.00  0.00    +0.000 A 
ATOM     15  C   UNL     1       1.695   7.518  20.609  0.00  0.00    +0.000 A 
ENDBRANCH   2   6
BRANCH   1  21
ATOM     16  C   UNL     1       3.165  14.426  20.484  0.00  0.00    +0.000 C 
ATOM     17  C   UNL     1       1.987  13.659  19.963  0.00  0.00    +0.000 A 
ATOM     18  C   UNL     1       1.245  14.142  18.896  0.00  0.00    +0.000 A 
ATOM     19  C   UNL     1       0.063  13.495  18.566  0.00  0.00    +0.000 A 
ATOM     20  C   UNL     1      -0.363  12.410  19.330  0.00  0.00    +0.000 A 
ATOM     21  C   UNL     1       0.450  11.947  20.355  0.00  0.00    +0.000 A 
ATOM     22  N   UNL     1       1.627  12.547  20.651  0.00  0.00    +0.000 NA
ENDBRANCH   1  21
BRANCH   5  23
ATOM     23  C   UNL     1      -1.290  12.232  23.020  0.00  0.00    +0.000 C 
BRANCH  23  24
ATOM     24  C   UNL     1      -2.785  12.337  22.866  0.00  0.00    +0.000 C 
ATOM     25  O   UNL     1      -3.503  11.943  23.786  0.00  0.00    +0.000 OA
ATOM     26  N   UNL     1      -3.227  12.781  21.631  0.00  0.00    +0.000 N 
ATOM     27  H   UNL     1      -2.518  12.929  20.912  0.00  0.00    +0.000 HD
BRANCH  26  28
ATOM     28  C   UNL     1      -4.567  13.027  21.256  0.00  0.00    +0.000 A 
ATOM     29  C   UNL     1      -5.369  13.990  21.871  0.00  0.00    +0.000 A 
ATOM     30  C   UNL     1      -6.681  14.206  21.444  0.00  0.00    +0.000 A 
ATOM     31  C   UNL     1      -7.209  13.458  20.394  0.00  0.00    +0.000 A 
ATOM     32  C   UNL     1      -6.425  12.490  19.761  0.00  0.00    +0.000 A 
ATOM     33  C   UNL     1      -5.102  12.281  20.196  0.00  0.00    +0.000 A 
BRANCH  32  34
ATOM     34  C   UNL     1      -6.930  11.657  18.631  0.00  0.00    +0.000 C 
ATOM     35  N   UNL     1      -7.064  10.309  18.820  0.00  0.00    +0.000 N 
ATOM     36  O   UNL     1      -7.226  12.156  17.552  0.00  0.00    +0.000 OA
ATOM     37  H   UNL     1      -6.872   9.812  19.669  0.00  0.00    +0.000 HD
ATOM     38  H   UNL     1      -7.424   9.780  18.035  0.00  0.00    +0.000 HD
ENDBRANCH  32  34
ENDBRANCH  26  28
ENDBRANCH  23  24
ENDBRANCH   5  23
TORSDOF 6
ENDMDL
MODEL 7
REMARK VINA RESULT:      -8.2      1.148      1.215
REMARK  Name = 
REMARK  7 active torsions:
REMARK  status: ('A' for Active; 'I' for Inactive)
REMARK    1  A    between atoms: C_1  and  C_2
REMARK    2  A    between atoms: C_6  and  C_7
REMARK    3  A    between atoms: C_8  and  C_9
REMARK    4  A    between atoms: N_21  and  C_22
REMARK    5  A    between atoms: C_22  and  C_23
REMARK    6  A    between atoms: N_25  and  C_26
REMARK    7  A    between atoms: C_30  and  C_31
REMARK                            x       y       z     vdW  Elec       q    Type
REMARK                         _______ _______ _______ _____ _____    ______ ____
ROOT
ATOM      1  C   UNL     1       3.561   5.903  18.288  0.00  0.00    +0.000 A 
ATOM      2  C   UNL     1       3.461   7.302  18.226  0.00  0.00    +0.000 A 
ATOM      3  C   UNL     1       4.664   7.727  17.619  0.00  0.00    +0.000 A 
ATOM      4  N   UNL     1       5.468   6.718  17.305  0.00  0.00    +0.000 NA
ATOM      5  N   UNL     1       4.815   5.628  17.766  0.00  0.00    +0.000 N 
ENDROOT
BRANCH   2   6
ATOM      6  C   UNL     1       2.343   8.142  18.660  0.00  0.00    +0.000 A 
ATOM      7  C   UNL     1       1.584   8.893  17.760  0.00  0.00    +0.000 A 
ATOM      8  C   UNL     1       0.568   9.744  18.208  0.00  0.00    +0.000 A 
ATOM      9  C   UNL     1       0.227   9.828  19.546  0.00  0.00    +0.000 A 
ATOM     10  N   UNL     1      -0.764  10.655  19.922  0.00  0.00    +0.000 NA
ATOM     11  C   UNL     1      -1.096  10.690  21.230  0.00  0.00    +0.000 A 
ATOM     12  C   UNL     1      -0.482   9.923  22.201  0.00  0.00    +0.000 A 
ATOM     13  C   UNL     1       0.551   9.080  21.810  0.00  0.00    +0.000 A 
ATOM     14  C   UNL     1       0.934   9.022  20.461  0.00  0.00    +0.000 A 
ATOM     15  C   UNL     1       1.989   8.198  20.017  0.00  0.00    +0.000 A 
ENDBRANCH   2   6
BRANCH   1  21
ATOM     16  C   UNL     1       2.248   3.121  21.944  0.00  0.00    +0.000 C 
ATOM     17  C   UNL     1       1.939   3.567  20.546  0.00  0.00    +0.000 A 
ATOM     18  C   UNL     1       1.031   2.867  19.766  0.00  0.00    +0.000 A 
ATOM     19  C   UNL     1       0.912   3.206  18.426  0.00  0.00    +0.000 A 
ATOM     20  C   UNL     1       1.727   4.205  17.895  0.00  0.00    +0.000 A 
ATOM     21  C   UNL     1       2.580   4.899  18.740  0.00  0.00    +0.000 A 
ATOM     22  N   UNL     1       2.666   4.602  20.058  0.00  0.00    +0.000 NA
ENDBRANCH   1  21
BRANCH   5  23
ATOM     23  C   UNL     1       5.518   4.370  17.600  0.00  0.00    +0.000 C 
BRANCH  23  24
ATOM     24  C   UNL     1       6.125   4.182  16.234  0.00  0.00    +0.000 C 
ATOM     25  O   UNL     1       7.351   4.128  16.134  0.00  0.00    +0.000 OA
ATOM     26  N   UNL     1       5.228   4.191  15.178  0.00  0.00    +0.000 N 
ATOM     27  H   UNL     1       4.253   4.395  15.401  0.00  0.00    +0.000 HD
BRANCH  26  28
ATOM     28  C   UNL     1       5.532   3.971  13.816  0.00  0.00    +0.000 A 
ATOM     29  C   UNL     1       6.835   3.921  13.321  0.00  0.00    +0.000 A 
ATOM     30  C   UNL     1       7.077   3.678  11.967  0.00  0.00    +0.000 A 
ATOM     31  C   UNL     1       6.014   3.481  11.088  0.00  0.00    +0.000 A 
ATOM     32  C   UNL     1       4.699   3.523  11.562  0.00  0.00    +0.000 A 
ATOM     33  C   UNL     1       4.465   3.766  12.929  0.00  0.00    +0.000 A 
BRANCH  32  34
ATOM     34  C   UNL     1       3.517   3.320  10.674  0.00  0.00    +0.000 C 
ATOM     35  N   UNL     1       3.232   4.271   9.733  0.00  0.00    +0.000 N 
ATOM     36  O   UNL     1       2.809   2.325  10.772  0.00  0.00    +0.000 OA
ATOM     37  H   UNL     1       3.762   5.103   9.560  0.00  0.00    +0.000 HD
ATOM     38  H   UNL     1       2.431   4.089   9.141  0.00  0.00    +0.000 HD
ENDBRANCH  32  34
ENDBRANCH  26  28
ENDBRANCH  23  24
ENDBRANCH   5  23
TORSDOF 6
ENDMDL
MODEL 8
REMARK VINA RESULT:      -8.2      4.873      8.954
REMARK  Name = 
REMARK  7 active torsions:
REMARK  status: ('A' for Active; 'I' for Inactive)
REMARK    1  A    between atoms: C_1  and  C_2
REMARK    2  A    between atoms: C_6  and  C_7
REMARK    3  A    between atoms: C_8  and  C_9
REMARK    4  A    between atoms: N_21  and  C_22
REMARK    5  A    between atoms: C_22  and  C_23
REMARK    6  A    between atoms: N_25  and  C_26
REMARK    7  A    between atoms: C_30  and  C_31
REMARK                            x       y       z     vdW  Elec       q    Type
REMARK                         _______ _______ _______ _____ _____    ______ ____
ROOT
ATOM      1  C   UNL     1       1.470   9.384  19.504  0.00  0.00    +0.000 A 
ATOM      2  C   UNL     1       2.022   8.307  18.791  0.00  0.00    +0.000 A 
ATOM      3  C   UNL     1       2.560   8.885  17.619  0.00  0.00    +0.000 A 
ATOM      4  N   UNL     1       2.390  10.201  17.567  0.00  0.00    +0.000 NA
ATOM      5  N   UNL     1       1.683  10.481  18.684  0.00  0.00    +0.000 N 
ENDROOT
BRANCH   2   6
ATOM      6  C   UNL     1       2.066   6.899  19.184  0.00  0.00    +0.000 A 
ATOM      7  C   UNL     1       1.949   6.496  20.517  0.00  0.00    +0.000 A 
ATOM      8  C   UNL     1       2.067   5.149  20.876  0.00  0.00    +0.000 A 
ATOM      9  C   UNL     1       2.235   4.156  19.927  0.00  0.00    +0.000 A 
ATOM     10  N   UNL     1       2.334   2.875  20.326  0.00  0.00    +0.000 NA
ATOM     11  C   UNL     1       2.463   1.926  19.375  0.00  0.00    +0.000 A 
ATOM     12  C   UNL     1       2.495   2.193  18.020  0.00  0.00    +0.000 A 
ATOM     13  C   UNL     1       2.406   3.518  17.614  0.00  0.00    +0.000 A 
ATOM     14  C   UNL     1       2.281   4.536  18.571  0.00  0.00    +0.000 A 
ATOM     15  C   UNL     1       2.209   5.898  18.211  0.00  0.00    +0.000 A 
ENDBRANCH   2   6
BRANCH   1  21
ATOM     16  C   UNL     1      -1.869  11.509  22.180  0.00  0.00    +0.000 C 
ATOM     17  C   UNL     1      -0.808  10.451  22.123  0.00  0.00    +0.000 A 
ATOM     18  C   UNL     1      -0.345   9.851  23.284  0.00  0.00    +0.000 A 
ATOM     19  C   UNL     1       0.758   9.014  23.200  0.00  0.00    +0.000 A 
ATOM     20  C   UNL     1       1.389   8.828  21.972  0.00  0.00    +0.000 A 
ATOM     21  C   UNL     1       0.846   9.419  20.840  0.00  0.00    +0.000 A 
ATOM     22  N   UNL     1      -0.257  10.200  20.909  0.00  0.00    +0.000 NA
ENDBRANCH   1  21
BRANCH   5  23
ATOM     23  C   UNL     1       1.304  11.872  18.844  0.00  0.00    +0.000 C 
BRANCH  23  24
ATOM     24  C   UNL     1      -0.062  12.202  18.300  0.00  0.00    +0.000 C 
ATOM     25  O   UNL     1      -0.401  13.384  18.231  0.00  0.00    +0.000 OA
ATOM     26  N   UNL     1      -0.869  11.113  18.018  0.00  0.00    +0.000 N 
ATOM     27  H   UNL     1      -0.507  10.192  18.268  0.00  0.00    +0.000 HD
BRANCH  26  28
ATOM     28  C   UNL     1      -2.159  11.150  17.442  0.00  0.00    +0.000 A 
ATOM     29  C   UNL     1      -3.269  11.698  18.086  0.00  0.00    +0.000 A 
ATOM     30  C   UNL     1      -4.517  11.727  17.459  0.00  0.00    +0.000 A 
ATOM     31  C   UNL     1      -4.670  11.206  16.176  0.00  0.00    +0.000 A 
ATOM     32  C   UNL     1      -3.572  10.655  15.510  0.00  0.00    +0.000 A 
ATOM     33  C   UNL     1      -2.317  10.632  16.149  0.00  0.00    +0.000 A 
BRANCH  32  34
ATOM     34  C   UNL     1      -3.668  10.081  14.136  0.00  0.00    +0.000 C 
ATOM     35  N   UNL     1      -4.904   9.767  13.642  0.00  0.00    +0.000 N 
ATOM     36  O   UNL     1      -2.670   9.894  13.451  0.00  0.00    +0.000 OA
ATOM     37  H   UNL     1      -5.778   9.904  14.113  0.00  0.00    +0.000 HD
ATOM     38  H   UNL     1      -4.930   9.394  12.701  0.00  0.00    +0.000 HD
ENDBRANCH  32  34
ENDBRANCH  26  28
ENDBRANCH  23  24
ENDBRANCH   5  23
TORSDOF 6
ENDMDL
MODEL 9
REMARK VINA RESULT:      -8.1      5.171      9.751
REMARK  Name = 
REMARK  7 active torsions:
REMARK  status: ('A' for Active; 'I' for Inactive)
REMARK    1  A    between atoms: C_1  and  C_2
REMARK    2  A    between atoms: C_6  and  C_7
REMARK    3  A    between atoms: C_8  and  C_9
REMARK    4  A    between atoms: N_21  and  C_22
REMARK    5  A    between atoms: C_22  and  C_23
REMARK    6  A    between atoms: N_25  and  C_26
REMARK    7  A    between atoms: C_30  and  C_31
REMARK                            x       y       z     vdW  Elec       q    Type
REMARK                         _______ _______ _______ _____ _____    ______ ____
ROOT
ATOM      1  C   UNL     1       1.418   9.484  19.483  0.00  0.00    +0.000 A 
ATOM      2  C   UNL     1       1.938   8.395  18.765  0.00  0.00    +0.000 A 
ATOM      3  C   UNL     1       2.490   8.962  17.595  0.00  0.00    +0.000 A 
ATOM      4  N   UNL     1       2.359  10.283  17.548  0.00  0.00    +0.000 NA
ATOM      5  N   UNL     1       1.660  10.578  18.667  0.00  0.00    +0.000 N 
ENDROOT
BRANCH   2   6
ATOM      6  C   UNL     1       1.941   6.984  19.153  0.00  0.00    +0.000 A 
ATOM      7  C   UNL     1       1.793   6.579  20.482  0.00  0.00    +0.000 A 
ATOM      8  C   UNL     1       1.873   5.228  20.836  0.00  0.00    +0.000 A 
ATOM      9  C   UNL     1       2.033   4.235  19.886  0.00  0.00    +0.000 A 
ATOM     10  N   UNL     1       2.095   2.951  20.281  0.00  0.00    +0.000 NA
ATOM     11  C   UNL     1       2.217   2.002  19.328  0.00  0.00    +0.000 A 
ATOM     12  C   UNL     1       2.277   2.274  17.975  0.00  0.00    +0.000 A 
ATOM     13  C   UNL     1       2.227   3.603  17.573  0.00  0.00    +0.000 A 
ATOM     14  C   UNL     1       2.111   4.619  18.533  0.00  0.00    +0.000 A 
ATOM     15  C   UNL     1       2.076   5.985  18.178  0.00  0.00    +0.000 A 
ENDBRANCH   2   6
BRANCH   1  21
ATOM     16  C   UNL     1      -1.928  11.622  22.142  0.00  0.00    +0.000 C 
ATOM     17  C   UNL     1      -0.861  10.569  22.095  0.00  0.00    +0.000 A 
ATOM     18  C   UNL     1      -0.392   9.986  23.262  0.00  0.00    +0.000 A 
ATOM     19  C   UNL     1       0.716   9.154  23.186  0.00  0.00    +0.000 A 
ATOM     20  C   UNL     1       1.345   8.958  21.958  0.00  0.00    +0.000 A 
ATOM     21  C   UNL     1       0.797   9.532  20.820  0.00  0.00    +0.000 A 
ATOM     22  N   UNL     1      -0.311  10.307  20.883  0.00  0.00    +0.000 NA
ENDBRANCH   1  21
BRANCH   5  23
ATOM     23  C   UNL     1       1.323  11.979  18.834  0.00  0.00    +0.000 C 
BRANCH  23  24
ATOM     24  C   UNL     1      -0.061  12.336  18.356  0.00  0.00    +0.000 C 
ATOM     25  O   UNL     1      -0.374  13.525  18.287  0.00  0.00    +0.000 OA
ATOM     26  N   UNL     1      -0.908  11.264  18.130  0.00  0.00    +0.000 N 
ATOM     27  H   UNL     1      -0.556  10.338  18.373  0.00  0.00    +0.000 HD
BRANCH  26  28
ATOM     28  C   UNL     1      -2.225  11.326  17.620  0.00  0.00    +0.000 A 
ATOM     29  C   UNL     1      -2.559  10.950  16.318  0.00  0.00    +0.000 A 
ATOM     30  C   UNL     1      -3.882  11.011  15.874  0.00  0.00    +0.000 A 
ATOM     31  C   UNL     1      -4.890  11.450  16.730  0.00  0.00    +0.000 A 
ATOM     32  C   UNL     1      -4.580  11.829  18.039  0.00  0.00    +0.000 A 
ATOM     33  C   UNL     1      -3.244  11.762  18.479  0.00  0.00    +0.000 A 
BRANCH  32  34
ATOM     34  C   UNL     1      -5.611  12.308  19.005  0.00  0.00    +0.000 C 
ATOM     35  N   UNL     1      -5.479  13.560  19.538  0.00  0.00    +0.000 N 
ATOM     36  O   UNL     1      -6.565  11.606  19.320  0.00  0.00    +0.000 OA
ATOM     37  H   UNL     1      -4.751  14.216  19.326  0.00  0.00    +0.000 HD
ATOM     38  H   UNL     1      -6.207  13.854  20.178  0.00  0.00    +0.000 HD
ENDBRANCH  32  34
ENDBRANCH  26  28
ENDBRANCH  23  24
ENDBRANCH   5  23
TORSDOF 6
ENDMDL
