MODEL 1
REMARK VINA RESULT:      -8.3      0.000      0.000
REMARK  Name = 
REMARK  6 active torsions:
REMARK  status: ('A' for Active; 'I' for Inactive)
REMARK    1  A    between atoms: C_2  and  C_3
REMARK    2  A    between atoms: C_3  and  C_4
REMARK    3  A    between atoms: C_4  and  C_5
REMARK    4  A    between atoms: N_11  and  C_12
REMARK    5  A    between atoms: C_12  and  N_14
REMARK    6  A    between atoms: N_14  and  C_15
REMARK                            x       y       z     vdW  Elec       q    Type
REMARK                         _______ _______ _______ _____ _____    ______ ____
ROOT
ATOM      1  C   UNL     1       6.703   5.119  18.062  0.00  0.00    +0.000 C 
ATOM      2  S   UNL     1       7.882   5.806  19.016  0.00  0.00    +0.000 S 
ENDROOT
BRANCH   1   5
ATOM      3  O   UNL     1       5.376   6.851  15.181  0.00  0.00    +0.000 OA
ATOM      4  C   UNL     1       5.403   6.581  16.380  0.00  0.00    +0.000 C 
ATOM      5  N   UNL     1       6.226   5.565  16.828  0.00  0.00    +0.000 N 
ATOM      6  H   UNL     1       6.666   5.101  16.043  0.00  0.00    +0.000 HD
BRANCH   4   7
ATOM      7  C   UNL     1       4.548   7.280  17.401  0.00  0.00    +0.000 C 
BRANCH   7   8
ATOM      8  C   UNL     1       3.149   6.677  17.488  0.00  0.00    +0.000 C 
BRANCH   8   9
ATOM      9  C   UNL     1       2.320   7.532  18.414  0.00  0.00    +0.000 A 
ATOM     10  C   UNL     1       1.772   8.733  17.949  0.00  0.00    +0.000 A 
ATOM     11  C   UNL     1       1.113   9.593  18.826  0.00  0.00    +0.000 A 
ATOM     12  C   UNL     1       0.999   9.260  20.174  0.00  0.00    +0.000 A 
ATOM     13  C   UNL     1       1.537   8.064  20.646  0.00  0.00    +0.000 A 
ATOM     14  C   UNL     1       2.195   7.201  19.771  0.00  0.00    +0.000 A 
ENDBRANCH   8   9
ENDBRANCH   7   8
ENDBRANCH   4   7
ENDBRANCH   1   5
BRANCH   1  15
ATOM     15  N   UNL     1       6.142   3.920  18.451  0.00  0.00    +0.000 N 
ATOM     16  H   UNL     1       6.756   3.292  18.965  0.00  0.00    +0.000 HD
BRANCH  15  17
ATOM     17  C   UNL     1       4.761   3.654  18.554  0.00  0.00    +0.000 A 
ATOM     18  C   UNL     1       4.064   3.290  17.390  0.00  0.00    +0.000 A 
ATOM     19  C   UNL     1       2.706   2.951  17.447  0.00  0.00    +0.000 A 
ATOM     20  C   UNL     1       2.084   2.933  18.684  0.00  0.00    +0.000 A 
ATOM     21  C   UNL     1       2.776   3.300  19.817  0.00  0.00    +0.000 A 
ATOM     22  C   UNL     1       4.104   3.675  19.790  0.00  0.00    +0.000 A 
ATOM     23  C   UNL     1       1.910   3.161  20.978  0.00  0.00    +0.000 C 
ATOM     24  O   UNL     1       2.202   3.397  22.133  0.00  0.00    +0.000 OA
ATOM     25  O   UNL     1       0.715   2.695  20.508  0.00  0.00    +0.000 OA
ATOM     26  C   UNL     1       0.723   2.517  19.072  0.00  0.00    +0.000 C 
ENDBRANCH  15  17
ENDBRANCH   1  15
TORSDOF 6
ENDMDL
MODEL 2
REMARK VINA RESULT:      -7.8      0.464      1.078
REMARK  Name = 
REMARK  6 active torsions:
REMARK  status: ('A' for Active; 'I' for Inactive)
REMARK    1  A    between atoms: C_2  and  C_3
REMARK    2  A    between atoms: C_3  and  C_4
REMARK    3  A    between atoms: C_4  and  C_5
REMARK    4  A    between atoms: N_11  and  C_12
REMARK    5  A    between atoms: C_12  and  N_14
REMARK    6  A    between atoms: N_14  and  C_15
REMARK                            x       y       z     vdW  Elec       q    Type
REMARK                         _______ _______ _______ _____ _____    ______ ____
ROOT
ATOM      1  C   UNL     1       6.610   5.155  18.087  0.00  0.00    +0.000 C 
ATOM      2  S   UNL     1       7.820   5.732  19.075  0.00  0.00    +0.000 S 
ENDROOT
BRANCH   1   5
ATOM      3  O   UNL     1       4.987   7.134  15.536  0.00  0.00    +0.000 OA
ATOM      4  C   UNL     1       5.038   6.607  16.646  0.00  0.00    +0.000 C 
ATOM      5  N   UNL     1       6.079   5.746  16.939  0.00  0.00    +0.000 N 
ATOM      6  H   UNL     1       6.653   5.600  16.118  0.00  0.00    +0.000 HD
BRANCH   4   7
ATOM      7  C   UNL     1       3.995   6.818  17.707  0.00  0.00    +0.000 C 
BRANCH   7   8
ATOM      8  C   UNL     1       2.966   7.868  17.300  0.00  0.00    +0.000 C 
BRANCH   8   9
ATOM      9  C   UNL     1       2.217   8.304  18.536  0.00  0.00    +0.000 A 
ATOM     10  C   UNL     1       2.208   7.484  19.670  0.00  0.00    +0.000 A 
ATOM     11  C   UNL     1       1.419   7.812  20.770  0.00  0.00    +0.000 A 
ATOM     12  C   UNL     1       0.629   8.960  20.744  0.00  0.00    +0.000 A 
ATOM     13  C   UNL     1       0.634   9.785  19.621  0.00  0.00    +0.000 A 
ATOM     14  C   UNL     1       1.425   9.460  18.519  0.00  0.00    +0.000 A 
ENDBRANCH   8   9
ENDBRANCH   7   8
ENDBRANCH   4   7
ENDBRANCH   1   5
BRANCH   1  15
ATOM     15  N   UNL     1       6.077   3.907  18.341  0.00  0.00    +0.000 N 
ATOM     16  H   UNL     1       6.723   3.220  18.722  0.00  0.00    +0.000 HD
BRANCH  15  17
ATOM     17  C   UNL     1       4.705   3.617  18.499  0.00  0.00    +0.000 A 
ATOM     18  C   UNL     1       3.983   3.190  17.372  0.00  0.00    +0.000 A 
ATOM     19  C   UNL     1       2.635   2.824  17.484  0.00  0.00    +0.000 A 
ATOM     20  C   UNL     1       2.051   2.844  18.740  0.00  0.00    +0.000 A 
ATOM     21  C   UNL     1       2.768   3.273  19.835  0.00  0.00    +0.000 A 
ATOM     22  C   UNL     1       4.086   3.674  19.752  0.00  0.00    +0.000 A 
ATOM     23  C   UNL     1       1.940   3.163  21.027  0.00  0.00    +0.000 C 
ATOM     24  O   UNL     1       2.261   3.453  22.162  0.00  0.00    +0.000 OA
ATOM     25  O   UNL     1       0.743   2.653  20.614  0.00  0.00    +0.000 OA
ATOM     26  C   UNL     1       0.712   2.415  19.187  0.00  0.00    +0.000 C 
ENDBRANCH  15  17
ENDBRANCH   1  15
TORSDOF 6
ENDMDL
MODEL 3
REMARK VINA RESULT:      -7.8      3.099      5.733
REMARK  Name = 
REMARK  6 active torsions:
REMARK  status: ('A' for Active; 'I' for Inactive)
REMARK    1  A    between atoms: C_2  and  C_3
REMARK    2  A    between atoms: C_3  and  C_4
REMARK    3  A    between atoms: C_4  and  C_5
REMARK    4  A    between atoms: N_11  and  C_12
REMARK    5  A    between atoms: C_12  and  N_14
REMARK    6  A    between atoms: N_14  and  C_15
REMARK                            x       y       z     vdW  Elec       q    Type
REMARK                         _______ _______ _______ _____ _____    ______ ____
ROOT
ATOM      1  C   UNL     1       2.498   4.823  19.947  0.00  0.00    +0.000 C 
ATOM      2  S   UNL     1       2.273   4.091  21.426  0.00  0.00    +0.000 S 
ENDROOT
BRANCH   1   5
ATOM      3  O   UNL     1       2.018   3.281  16.714  0.00  0.00    +0.000 OA
ATOM      4  C   UNL     1       2.710   3.799  17.589  0.00  0.00    +0.000 C 
ATOM      5  N   UNL     1       2.097   4.367  18.690  0.00  0.00    +0.000 N 
ATOM      6  H   UNL     1       1.091   4.342  18.580  0.00  0.00    +0.000 HD
BRANCH   4   7
ATOM      7  C   UNL     1       4.209   3.888  17.508  0.00  0.00    +0.000 C 
BRANCH   7   8
ATOM      8  C   UNL     1       4.671   5.103  16.710  0.00  0.00    +0.000 C 
BRANCH   8   9
ATOM      9  C   UNL     1       5.810   5.755  17.453  0.00  0.00    +0.000 A 
ATOM     10  C   UNL     1       6.349   6.959  16.984  0.00  0.00    +0.000 A 
ATOM     11  C   UNL     1       7.482   7.505  17.585  0.00  0.00    +0.000 A 
ATOM     12  C   UNL     1       8.086   6.851  18.657  0.00  0.00    +0.000 A 
ATOM     13  C   UNL     1       7.554   5.655  19.134  0.00  0.00    +0.000 A 
ATOM     14  C   UNL     1       6.420   5.107  18.536  0.00  0.00    +0.000 A 
ENDBRANCH   8   9
ENDBRANCH   7   8
ENDBRANCH   4   7
ENDBRANCH   1   5
BRANCH   1  15
ATOM     15  N   UNL     1       3.081   6.073  19.901  0.00  0.00    +0.000 N 
ATOM     16  H   UNL     1       4.094   6.084  19.807  0.00  0.00    +0.000 HD
BRANCH  15  17
ATOM     17  C   UNL     1       2.420   7.278  19.582  0.00  0.00    +0.000 A 
ATOM     18  C   UNL     1       2.519   7.763  18.268  0.00  0.00    +0.000 A 
ATOM     19  C   UNL     1       1.829   8.918  17.879  0.00  0.00    +0.000 A 
ATOM     20  C   UNL     1       1.006   9.536  18.806  0.00  0.00    +0.000 A 
ATOM     21  C   UNL     1       0.924   9.055  20.094  0.00  0.00    +0.000 A 
ATOM     22  C   UNL     1       1.620   7.941  20.519  0.00  0.00    +0.000 A 
ATOM     23  C   UNL     1      -0.028   9.856  20.849  0.00  0.00    +0.000 C 
ATOM     24  O   UNL     1      -0.342   9.704  22.012  0.00  0.00    +0.000 OA
ATOM     25  O   UNL     1      -0.507  10.796  19.982  0.00  0.00    +0.000 OA
ATOM     26  C   UNL     1       0.083  10.678  18.666  0.00  0.00    +0.000 C 
ENDBRANCH  15  17
ENDBRANCH   1  15
TORSDOF 6
ENDMDL
MODEL 4
REMARK VINA RESULT:      -7.8      2.554      4.582
REMARK  Name = 
REMARK  6 active torsions:
REMARK  status: ('A' for Active; 'I' for Inactive)
REMARK    1  A    between atoms: C_2  and  C_3
REMARK    2  A    between atoms: C_3  and  C_4
REMARK    3  A    between atoms: C_4  and  C_5
REMARK    4  A    between atoms: N_11  and  C_12
REMARK    5  A    between atoms: C_12  and  N_14
REMARK    6  A    between atoms: N_14  and  C_15
REMARK                            x       y       z     vdW  Elec       q    Type
REMARK                         _______ _______ _______ _____ _____    ______ ____
ROOT
ATOM      1  C   UNL     1       3.621   2.491  17.939  0.00  0.00    +0.000 C 
ATOM      2  S   UNL     1       3.943   1.512  19.247  0.00  0.00    +0.000 S 
ENDROOT
BRANCH   1   5
ATOM      3  O   UNL     1       0.901   4.759  17.220  0.00  0.00    +0.000 OA
ATOM      4  C   UNL     1       1.902   4.413  17.844  0.00  0.00    +0.000 C 
ATOM      5  N   UNL     1       2.431   3.154  17.631  0.00  0.00    +0.000 N 
ATOM      6  H   UNL     1       1.837   2.627  17.004  0.00  0.00    +0.000 HD
BRANCH   4   7
ATOM      7  C   UNL     1       2.573   5.281  18.873  0.00  0.00    +0.000 C 
BRANCH   7   8
ATOM      8  C   UNL     1       3.175   6.540  18.257  0.00  0.00    +0.000 C 
BRANCH   8   9
ATOM      9  C   UNL     1       2.355   7.726  18.701  0.00  0.00    +0.000 A 
ATOM     10  C   UNL     1       1.857   7.778  20.008  0.00  0.00    +0.000 A 
ATOM     11  C   UNL     1       0.994   8.802  20.393  0.00  0.00    +0.000 A 
ATOM     12  C   UNL     1       0.620   9.780  19.473  0.00  0.00    +0.000 A 
ATOM     13  C   UNL     1       1.113   9.739  18.171  0.00  0.00    +0.000 A 
ATOM     14  C   UNL     1       1.979   8.717  17.783  0.00  0.00    +0.000 A 
ENDBRANCH   8   9
ENDBRANCH   7   8
ENDBRANCH   4   7
ENDBRANCH   1   5
BRANCH   1  15
ATOM     15  N   UNL     1       4.639   2.780  17.053  0.00  0.00    +0.000 N 
ATOM     16  H   UNL     1       4.614   2.273  16.172  0.00  0.00    +0.000 HD
BRANCH  15  17
ATOM     17  C   UNL     1       5.443   3.939  17.075  0.00  0.00    +0.000 A 
ATOM     18  C   UNL     1       5.327   4.849  16.011  0.00  0.00    +0.000 A 
ATOM     19  C   UNL     1       6.051   6.048  16.014  0.00  0.00    +0.000 A 
ATOM     20  C   UNL     1       6.840   6.336  17.114  0.00  0.00    +0.000 A 
ATOM     21  C   UNL     1       6.952   5.433  18.148  0.00  0.00    +0.000 A 
ATOM     22  C   UNL     1       6.281   4.227  18.159  0.00  0.00    +0.000 A 
ATOM     23  C   UNL     1       7.805   5.990  19.187  0.00  0.00    +0.000 C 
ATOM     24  O   UNL     1       8.111   5.460  20.236  0.00  0.00    +0.000 OA
ATOM     25  O   UNL     1       8.174   7.231  18.752  0.00  0.00    +0.000 OA
ATOM     26  C   UNL     1       7.616   7.545  17.454  0.00  0.00    +0.000 C 
ENDBRANCH  15  17
ENDBRANCH   1  15
TORSDOF 6
ENDMDL
MODEL 5
REMARK VINA RESULT:      -7.6      1.772      1.964
REMARK  Name = 
REMARK  6 active torsions:
REMARK  status: ('A' for Active; 'I' for Inactive)
REMARK    1  A    between atoms: C_2  and  C_3
REMARK    2  A    between atoms: C_3  and  C_4
REMARK    3  A    between atoms: C_4  and  C_5
REMARK    4  A    between atoms: N_11  and  C_12
REMARK    5  A    between atoms: C_12  and  N_14
REMARK    6  A    between atoms: N_14  and  C_15
REMARK                            x       y       z     vdW  Elec       q    Type
REMARK                         _______ _______ _______ _____ _____    ______ ____
ROOT
ATOM      1  C   UNL     1       5.812   3.864  16.519  0.00  0.00    +0.000 C 
ATOM      2  S   UNL     1       6.005   4.223  14.905  0.00  0.00    +0.000 S 
ENDROOT
BRANCH   1   5
ATOM      3  O   UNL     1       6.718   5.614  19.548  0.00  0.00    +0.000 OA
ATOM      4  C   UNL     1       6.038   5.457  18.536  0.00  0.00    +0.000 C 
ATOM      5  N   UNL     1       6.403   4.490  17.618  0.00  0.00    +0.000 N 
ATOM      6  H   UNL     1       7.282   4.067  17.888  0.00  0.00    +0.000 HD
BRANCH   4   7
ATOM      7  C   UNL     1       4.834   6.298  18.214  0.00  0.00    +0.000 C 
BRANCH   7   8
ATOM      8  C   UNL     1       3.759   6.199  19.292  0.00  0.00    +0.000 C 
BRANCH   8   9
ATOM      9  C   UNL     1       2.770   7.319  19.082  0.00  0.00    +0.000 A 
ATOM     10  C   UNL     1       2.783   8.044  17.884  0.00  0.00    +0.000 A 
ATOM     11  C   UNL     1       1.963   9.159  17.727  0.00  0.00    +0.000 A 
ATOM     12  C   UNL     1       1.127   9.562  18.766  0.00  0.00    +0.000 A 
ATOM     13  C   UNL     1       1.104   8.845  19.961  0.00  0.00    +0.000 A 
ATOM     14  C   UNL     1       1.922   7.726  20.120  0.00  0.00    +0.000 A 
ENDBRANCH   8   9
ENDBRANCH   7   8
ENDBRANCH   4   7
ENDBRANCH   1   5
BRANCH   1  15
ATOM     15  N   UNL     1       4.912   2.882  16.883  0.00  0.00    +0.000 N 
ATOM     16  H   UNL     1       5.239   1.925  16.780  0.00  0.00    +0.000 HD
BRANCH  15  17
ATOM     17  C   UNL     1       3.790   3.065  17.718  0.00  0.00    +0.000 A 
ATOM     18  C   UNL     1       2.590   3.502  17.134  0.00  0.00    +0.000 A 
ATOM     19  C   UNL     1       1.428   3.637  17.903  0.00  0.00    +0.000 A 
ATOM     20  C   UNL     1       1.480   3.278  19.240  0.00  0.00    +0.000 A 
ATOM     21  C   UNL     1       2.664   2.858  19.804  0.00  0.00    +0.000 A 
ATOM     22  C   UNL     1       3.835   2.750  19.081  0.00  0.00    +0.000 A 
ATOM     23  C   UNL     1       2.439   2.511  21.198  0.00  0.00    +0.000 C 
ATOM     24  O   UNL     1       3.268   2.102  21.987  0.00  0.00    +0.000 OA
ATOM     25  O   UNL     1       1.110   2.718  21.433  0.00  0.00    +0.000 OA
ATOM     26  C   UNL     1       0.415   3.202  20.260  0.00  0.00    +0.000 C 
ENDBRANCH  15  17
ENDBRANCH   1  15
TORSDOF 6
ENDMDL
MODEL 6
REMARK VINA RESULT:      -7.5      1.883      2.417
REMARK  Name = 
REMARK  6 active torsions:
REMARK  status: ('A' for Active; 'I' for Inactive)
REMARK    1  A    between atoms: C_2  and  C_3
REMARK    2  A    between atoms: C_3  and  C_4
REMARK    3  A    between atoms: C_4  and  C_5
REMARK    4  A    between atoms: N_11  and  C_12
REMARK    5  A    between atoms: C_12  and  N_14
REMARK    6  A    between atoms: N_14  and  C_15
REMARK                            x       y       z     vdW  Elec       q    Type
REMARK                         _______ _______ _______ _____ _____    ______ ____
ROOT
ATOM      1  C   UNL     1       5.797   3.798  16.148  0.00  0.00    +0.000 C 
ATOM      2  S   UNL     1       5.365   4.401  14.658  0.00  0.00    +0.000 S 
ENDROOT
BRANCH   1   5
ATOM      3  O   UNL     1       8.158   4.788  18.699  0.00  0.00    +0.000 OA
ATOM      4  C   UNL     1       7.065   4.843  18.138  0.00  0.00    +0.000 C 
ATOM      5  N   UNL     1       6.883   4.168  16.945  0.00  0.00    +0.000 N 
ATOM      6  H   UNL     1       7.755   3.755  16.640  0.00  0.00    +0.000 HD
BRANCH   4   7
ATOM      7  C   UNL     1       5.909   5.648  18.662  0.00  0.00    +0.000 C 
BRANCH   7   8
ATOM      8  C   UNL     1       5.284   6.525  17.583  0.00  0.00    +0.000 C 
BRANCH   8   9
ATOM      9  C   UNL     1       4.013   7.123  18.134  0.00  0.00    +0.000 A 
ATOM     10  C   UNL     1       3.477   6.638  19.333  0.00  0.00    +0.000 A 
ATOM     11  C   UNL     1       2.240   7.091  19.786  0.00  0.00    +0.000 A 
ATOM     12  C   UNL     1       1.527   8.031  19.044  0.00  0.00    +0.000 A 
ATOM     13  C   UNL     1       2.054   8.524  17.852  0.00  0.00    +0.000 A 
ATOM     14  C   UNL     1       3.293   8.074  17.396  0.00  0.00    +0.000 A 
ENDBRANCH   8   9
ENDBRANCH   7   8
ENDBRANCH   4   7
ENDBRANCH   1   5
BRANCH   1  15
ATOM     15  N   UNL     1       4.979   2.867  16.756  0.00  0.00    +0.000 N 
ATOM     16  H   UNL     1       5.364   1.930  16.840  0.00  0.00    +0.000 HD
BRANCH  15  17
ATOM     17  C   UNL     1       3.881   3.160  17.592  0.00  0.00    +0.000 A 
ATOM     18  C   UNL     1       2.734   3.723  17.010  0.00  0.00    +0.000 A 
ATOM     19  C   UNL     1       1.590   3.972  17.780  0.00  0.00    +0.000 A 
ATOM     20  C   UNL     1       1.603   3.601  19.114  0.00  0.00    +0.000 A 
ATOM     21  C   UNL     1       2.737   3.057  19.676  0.00  0.00    +0.000 A 
ATOM     22  C   UNL     1       3.892   2.833  18.953  0.00  0.00    +0.000 A 
ATOM     23  C   UNL     1       2.475   2.726  21.068  0.00  0.00    +0.000 C 
ATOM     24  O   UNL     1       3.256   2.229  21.854  0.00  0.00    +0.000 OA
ATOM     25  O   UNL     1       1.175   3.069  21.303  0.00  0.00    +0.000 OA
ATOM     26  C   UNL     1       0.535   3.629  20.133  0.00  0.00    +0.000 C 
ENDBRANCH  15  17
ENDBRANCH   1  15
TORSDOF 6
ENDMDL
MODEL 7
REMARK VINA RESULT:      -7.3      0.793      1.099
REMARK  Name = 
REMARK  6 active torsions:
REMARK  status: ('A' for Active; 'I' for Inactive)
REMARK    1  A    between atoms: C_2  and  C_3
REMARK    2  A    between atoms: C_3  and  C_4
REMARK    3  A    between atoms: C_4  and  C_5
REMARK    4  A    between atoms: N_11  and  C_12
REMARK    5  A    between atoms: C_12  and  N_14
REMARK    6  A    between atoms: N_14  and  C_15
REMARK                            x       y       z     vdW  Elec       q    Type
REMARK                         _______ _______ _______ _____ _____    ______ ____
ROOT
ATOM      1  C   UNL     1       6.820   4.788  18.124  0.00  0.00    +0.000 C 
ATOM      2  S   UNL     1       7.441   5.817  19.277  0.00  0.00    +0.000 S 
ENDROOT
BRANCH   1   5
ATOM      3  O   UNL     1       6.682   5.621  14.610  0.00  0.00    +0.000 OA
ATOM      4  C   UNL     1       6.190   5.523  15.732  0.00  0.00    +0.000 C 
ATOM      5  N   UNL     1       6.907   4.898  16.734  0.00  0.00    +0.000 N 
ATOM      6  H   UNL     1       7.766   4.514  16.361  0.00  0.00    +0.000 HD
BRANCH   4   7
ATOM      7  C   UNL     1       4.811   6.018  16.073  0.00  0.00    +0.000 C 
BRANCH   7   8
ATOM      8  C   UNL     1       4.839   7.404  16.709  0.00  0.00    +0.000 C 
BRANCH   8   9
ATOM      9  C   UNL     1       3.656   7.524  17.638  0.00  0.00    +0.000 A 
ATOM     10  C   UNL     1       2.809   8.635  17.547  0.00  0.00    +0.000 A 
ATOM     11  C   UNL     1       1.791   8.823  18.479  0.00  0.00    +0.000 A 
ATOM     12  C   UNL     1       1.613   7.904  19.511  0.00  0.00    +0.000 A 
ATOM     13  C   UNL     1       2.448   6.792  19.609  0.00  0.00    +0.000 A 
ATOM     14  C   UNL     1       3.467   6.601  18.676  0.00  0.00    +0.000 A 
ENDBRANCH   8   9
ENDBRANCH   7   8
ENDBRANCH   4   7
ENDBRANCH   1   5
BRANCH   1  15
ATOM     15  N   UNL     1       6.193   3.628  18.530  0.00  0.00    +0.000 N 
ATOM     16  H   UNL     1       6.772   2.972  19.049  0.00  0.00    +0.000 HD
BRANCH  15  17
ATOM     17  C   UNL     1       4.799   3.444  18.645  0.00  0.00    +0.000 A 
ATOM     18  C   UNL     1       4.068   3.156  17.480  0.00  0.00    +0.000 A 
ATOM     19  C   UNL     1       2.693   2.899  17.544  0.00  0.00    +0.000 A 
ATOM     20  C   UNL     1       2.085   2.883  18.789  0.00  0.00    +0.000 A 
ATOM     21  C   UNL     1       2.810   3.174  19.923  0.00  0.00    +0.000 A 
ATOM     22  C   UNL     1       4.159   3.468  19.889  0.00  0.00    +0.000 A 
ATOM     23  C   UNL     1       1.951   3.054  21.090  0.00  0.00    +0.000 C 
ATOM     24  O   UNL     1       2.270   3.239  22.247  0.00  0.00    +0.000 OA
ATOM     25  O   UNL     1       0.725   2.676  20.623  0.00  0.00    +0.000 OA
ATOM     26  C   UNL     1       0.705   2.539  19.183  0.00  0.00    +0.000 C 
ENDBRANCH  15  17
ENDBRANCH   1  15
TORSDOF 6
ENDMDL
MODEL 8
REMARK VINA RESULT:      -7.3      3.503      5.860
REMARK  Name = 
REMARK  6 active torsions:
REMARK  status: ('A' for Active; 'I' for Inactive)
REMARK    1  A    between atoms: C_2  and  C_3
REMARK    2  A    between atoms: C_3  and  C_4
REMARK    3  A    between atoms: C_4  and  C_5
REMARK    4  A    between atoms: N_11  and  C_12
REMARK    5  A    between atoms: C_12  and  N_14
REMARK    6  A    between atoms: N_14  and  C_15
REMARK                            x       y       z     vdW  Elec       q    Type
REMARK                         _______ _______ _______ _____ _____    ______ ____
ROOT
ATOM      1  C   UNL     1       6.712   4.871  17.711  0.00  0.00    +0.000 C 
ATOM      2  S   UNL     1       6.965   5.530  19.219  0.00  0.00    +0.000 S 
ENDROOT
BRANCH   1   5
ATOM      3  O   UNL     1       7.886   5.553  14.362  0.00  0.00    +0.000 OA
ATOM      4  C   UNL     1       7.168   4.973  15.174  0.00  0.00    +0.000 C 
ATOM      5  N   UNL     1       7.398   5.144  16.526  0.00  0.00    +0.000 N 
ATOM      6  H   UNL     1       8.230   5.701  16.670  0.00  0.00    +0.000 HD
BRANCH   4   7
ATOM      7  C   UNL     1       6.059   4.040  14.773  0.00  0.00    +0.000 C 
BRANCH   7   8
ATOM      8  C   UNL     1       5.462   4.406  13.418  0.00  0.00    +0.000 C 
BRANCH   8   9
ATOM      9  C   UNL     1       5.937   3.399  12.401  0.00  0.00    +0.000 A 
ATOM     10  C   UNL     1       5.074   2.385  11.969  0.00  0.00    +0.000 A 
ATOM     11  C   UNL     1       5.539   1.375  11.129  0.00  0.00    +0.000 A 
ATOM     12  C   UNL     1       6.870   1.369  10.716  0.00  0.00    +0.000 A 
ATOM     13  C   UNL     1       7.736   2.376  11.137  0.00  0.00    +0.000 A 
ATOM     14  C   UNL     1       7.273   3.389  11.976  0.00  0.00    +0.000 A 
ENDBRANCH   8   9
ENDBRANCH   7   8
ENDBRANCH   4   7
ENDBRANCH   1   5
BRANCH   1  15
ATOM     15  N   UNL     1       5.771   3.872  17.567  0.00  0.00    +0.000 N 
ATOM     16  H   UNL     1       6.131   2.963  17.288  0.00  0.00    +0.000 HD
BRANCH  15  17
ATOM     17  C   UNL     1       4.476   3.877  18.126  0.00  0.00    +0.000 A 
ATOM     18  C   UNL     1       3.412   4.342  17.335  0.00  0.00    +0.000 A 
ATOM     19  C   UNL     1       2.096   4.307  17.815  0.00  0.00    +0.000 A 
ATOM     20  C   UNL     1       1.867   3.756  19.065  0.00  0.00    +0.000 A 
ATOM     21  C   UNL     1       2.920   3.311  19.834  0.00  0.00    +0.000 A 
ATOM     22  C   UNL     1       4.230   3.365  19.405  0.00  0.00    +0.000 A 
ATOM     23  C   UNL     1       2.408   2.750  21.075  0.00  0.00    +0.000 C 
ATOM     24  O   UNL     1       3.062   2.267  21.977  0.00  0.00    +0.000 OA
ATOM     25  O   UNL     1       1.048   2.860  21.011  0.00  0.00    +0.000 OA
ATOM     26  C   UNL     1       0.606   3.480  19.780  0.00  0.00    +0.000 C 
ENDBRANCH  15  17
ENDBRANCH   1  15
TORSDOF 6
ENDMDL
MODEL 9
REMARK VINA RESULT:      -7.2      0.946      1.703
REMARK  Name = 
REMARK  6 active torsions:
REMARK  status: ('A' for Active; 'I' for Inactive)
REMARK    1  A    between atoms: C_2  and  C_3
REMARK    2  A    between atoms: C_3  and  C_4
REMARK    3  A    between atoms: C_4  and  C_5
REMARK    4  A    between atoms: N_11  and  C_12
REMARK    5  A    between atoms: C_12  and  N_14
REMARK    6  A    between atoms: N_14  and  C_15
REMARK                            x       y       z     vdW  Elec       q    Type
REMARK                         _______ _______ _______ _____ _____    ______ ____
ROOT
ATOM      1  C   UNL     1       6.195   4.447  16.854  0.00  0.00    +0.000 C 
ATOM      2  S   UNL     1       7.699   4.492  17.569  0.00  0.00    +0.000 S 
ENDROOT
BRANCH   1   5
ATOM      3  O   UNL     1       4.922   7.183  14.865  0.00  0.00    +0.000 OA
ATOM      4  C   UNL     1       5.057   6.566  15.921  0.00  0.00    +0.000 C 
ATOM      5  N   UNL     1       5.665   5.325  15.906  0.00  0.00    +0.000 N 
ATOM      6  H   UNL     1       5.860   5.043  14.954  0.00  0.00    +0.000 HD
BRANCH   4   7
ATOM      7  C   UNL     1       4.556   7.077  17.243  0.00  0.00    +0.000 C 
BRANCH   7   8
ATOM      8  C   UNL     1       3.243   6.418  17.652  0.00  0.00    +0.000 C 
BRANCH   8   9
ATOM      9  C   UNL     1       2.417   7.432  18.406  0.00  0.00    +0.000 A 
ATOM     10  C   UNL     1       2.045   8.629  17.783  0.00  0.00    +0.000 A 
ATOM     11  C   UNL     1       1.394   9.626  18.506  0.00  0.00    +0.000 A 
ATOM     12  C   UNL     1       1.112   9.437  19.858  0.00  0.00    +0.000 A 
ATOM     13  C   UNL     1       1.475   8.247  20.486  0.00  0.00    +0.000 A 
ATOM     14  C   UNL     1       2.125   7.246  19.764  0.00  0.00    +0.000 A 
ENDBRANCH   8   9
ENDBRANCH   7   8
ENDBRANCH   4   7
ENDBRANCH   1   5
BRANCH   1  15
ATOM     15  N   UNL     1       5.351   3.393  17.139  0.00  0.00    +0.000 N 
ATOM     16  H   UNL     1       5.619   2.494  16.746  0.00  0.00    +0.000 HD
BRANCH  15  17
ATOM     17  C   UNL     1       4.418   3.352  18.196  0.00  0.00    +0.000 A 
ATOM     18  C   UNL     1       4.780   3.924  19.426  0.00  0.00    +0.000 A 
ATOM     19  C   UNL     1       3.870   3.970  20.489  0.00  0.00    +0.000 A 
ATOM     20  C   UNL     1       2.589   3.486  20.279  0.00  0.00    +0.000 A 
ATOM     21  C   UNL     1       2.248   2.920  19.071  0.00  0.00    +0.000 A 
ATOM     22  C   UNL     1       3.133   2.826  18.016  0.00  0.00    +0.000 A 
ATOM     23  C   UNL     1       0.847   2.528  19.100  0.00  0.00    +0.000 C 
ATOM     24  O   UNL     1       0.222   2.002  18.200  0.00  0.00    +0.000 OA
ATOM     25  O   UNL     1       0.376   2.886  20.331  0.00  0.00    +0.000 OA
ATOM     26  C   UNL     1       1.398   3.500  21.150  0.00  0.00    +0.000 C 
ENDBRANCH  15  17
ENDBRANCH   1  15
TORSDOF 6
ENDMDL
