MODEL 1
REMARK VINA RESULT:      -9.4      0.000      0.000
REMARK  Name = 
REMARK  7 active torsions:
REMARK  status: ('A' for Active; 'I' for Inactive)
REMARK    1  A    between atoms: C_1  and  C_2
REMARK    2  A    between atoms: C_2  and  C_3
REMARK    3  A    between atoms: C_8  and  C_9
REMARK    4  A    between atoms: C_13  and  N_14
REMARK    5  A    between atoms: N_16  and  C_17
REMARK    6  A    between atoms: N_19  and  C_20
REMARK    7  A    between atoms: C_29  and  O_30
REMARK                            x       y       z     vdW  Elec       q    Type
REMARK                         _______ _______ _______ _____ _____    ______ ____
ROOT
ATOM      1  N   UNL     1       4.207   4.188  17.522  0.00  0.00    +0.000 NA
ATOM      2  C   UNL     1       5.400   4.364  17.990  0.00  0.00    +0.000 C 
ATOM      3  N   UNL     1       5.741   4.459  19.318  0.00  0.00    +0.000 N 
ATOM      4  N   UNL     1       6.514   4.386  17.167  0.00  0.00    +0.000 N 
ATOM      5  H   UNL     1       5.017   4.436  20.013  0.00  0.00    +0.000 HD
ATOM      6  H   UNL     1       7.264   3.774  17.457  0.00  0.00    +0.000 HD
ENDROOT
BRANCH   1  17
ATOM      7  C   UNL     1       2.131   2.142  21.573  0.00  0.00    +0.000 C 
ATOM      8  C   UNL     1       1.964   3.159  20.432  0.00  0.00    +0.000 C 
ATOM      9  C   UNL     1       0.633   2.827  19.723  0.00  0.00    +0.000 C 
ATOM     10  O   UNL     1       1.833   4.456  21.045  0.00  0.00    +0.000 OA
ATOM     11  C   UNL     1       2.023   5.537  20.225  0.00  0.00    +0.000 A 
ATOM     12  C   UNL     1       1.601   6.761  20.752  0.00  0.00    +0.000 A 
ATOM     13  C   UNL     1       1.715   7.929  19.996  0.00  0.00    +0.000 A 
ATOM     14  C   UNL     1       2.273   7.877  18.720  0.00  0.00    +0.000 A 
ATOM     15  C   UNL     1       2.716   6.649  18.200  0.00  0.00    +0.000 A 
ATOM     16  C   UNL     1       2.600   5.467  18.948  0.00  0.00    +0.000 A 
ATOM     17  C   UNL     1       3.000   4.133  18.354  0.00  0.00    +0.000 C 
ATOM     18  C   UNL     1       3.203   3.112  19.498  0.00  0.00    +0.000 C 
BRANCH  14  19
ATOM     19  C   UNL     1       2.377   9.068  17.931  0.00  0.00    +0.000 C 
ATOM     20  N   UNL     1       2.460  10.048  17.313  0.00  0.00    +0.000 NA
ENDBRANCH  14  19
BRANCH  18  21
ATOM     21  O   UNL     1       3.430   1.787  18.998  0.00  0.00    +0.000 OA
ATOM     22  H   UNL     1       2.777   1.594  18.308  0.00  0.00    +0.000 HD
ENDBRANCH  18  21
ENDBRANCH   1  17
BRANCH   4  23
ATOM     23  C   UNL     1       6.472   4.562  15.767  0.00  0.00    +0.000 A 
ATOM     24  C   UNL     1       7.528   5.242  15.122  0.00  0.00    +0.000 A 
ATOM     25  C   UNL     1       7.672   5.187  13.734  0.00  0.00    +0.000 A 
ATOM     26  C   UNL     1       6.739   4.454  13.026  0.00  0.00    +0.000 A 
ATOM     27  C   UNL     1       5.587   3.947  13.641  0.00  0.00    +0.000 A 
ATOM     28  C   UNL     1       5.457   3.967  15.014  0.00  0.00    +0.000 A 
ATOM     29  C   UNL     1       4.763   3.193  12.644  0.00  0.00    +0.000 C 
ATOM     30  C   UNL     1       5.926   2.652  11.812  0.00  0.00    +0.000 C 
ATOM     31  C   UNL     1       6.871   3.864  11.651  0.00  0.00    +0.000 C 
ENDBRANCH   4  23
BRANCH   3  32
ATOM     32  C   UNL     1       6.952   5.143  19.714  0.00  0.00    +0.000 C 
ATOM     33  N   UNL     1       7.940   5.665  19.999  0.00  0.00    +0.000 NA
ENDBRANCH   3  32
TORSDOF 5
ENDMDL
MODEL 2
REMARK VINA RESULT:      -8.3      3.382      5.142
REMARK  Name = 
REMARK  7 active torsions:
REMARK  status: ('A' for Active; 'I' for Inactive)
REMARK    1  A    between atoms: C_1  and  C_2
REMARK    2  A    between atoms: C_2  and  C_3
REMARK    3  A    between atoms: C_8  and  C_9
REMARK    4  A    between atoms: C_13  and  N_14
REMARK    5  A    between atoms: N_16  and  C_17
REMARK    6  A    between atoms: N_19  and  C_20
REMARK    7  A    between atoms: C_29  and  O_30
REMARK                            x       y       z     vdW  Elec       q    Type
REMARK                         _______ _______ _______ _____ _____    ______ ____
ROOT
ATOM      1  N   UNL     1       5.324   6.492  17.947  0.00  0.00    +0.000 NA
ATOM      2  C   UNL     1       6.000   6.451  16.844  0.00  0.00    +0.000 C 
ATOM      3  N   UNL     1       5.818   5.556  15.817  0.00  0.00    +0.000 N 
ATOM      4  N   UNL     1       6.961   7.401  16.538  0.00  0.00    +0.000 N 
ATOM      5  H   UNL     1       5.132   4.830  15.916  0.00  0.00    +0.000 HD
ATOM      6  H   UNL     1       6.862   7.819  15.624  0.00  0.00    +0.000 HD
ENDROOT
BRANCH   1  17
ATOM      7  C   UNL     1       4.400   2.114  20.158  0.00  0.00    +0.000 C 
ATOM      8  C   UNL     1       3.791   3.349  19.475  0.00  0.00    +0.000 C 
ATOM      9  C   UNL     1       2.887   2.835  18.334  0.00  0.00    +0.000 C 
ATOM     10  O   UNL     1       2.954   3.997  20.452  0.00  0.00    +0.000 OA
ATOM     11  C   UNL     1       2.593   5.291  20.181  0.00  0.00    +0.000 A 
ATOM     12  C   UNL     1       1.554   5.793  20.969  0.00  0.00    +0.000 A 
ATOM     13  C   UNL     1       1.077   7.089  20.763  0.00  0.00    +0.000 A 
ATOM     14  C   UNL     1       1.657   7.893  19.783  0.00  0.00    +0.000 A 
ATOM     15  C   UNL     1       2.716   7.394  19.006  0.00  0.00    +0.000 A 
ATOM     16  C   UNL     1       3.198   6.089  19.198  0.00  0.00    +0.000 A 
ATOM     17  C   UNL     1       4.281   5.525  18.304  0.00  0.00    +0.000 C 
ATOM     18  C   UNL     1       4.922   4.301  19.000  0.00  0.00    +0.000 C 
BRANCH  14  19
ATOM     19  C   UNL     1       1.163   9.218  19.553  0.00  0.00    +0.000 C 
ATOM     20  N   UNL     1       0.744  10.282  19.351  0.00  0.00    +0.000 NA
ENDBRANCH  14  19
BRANCH  18  21
ATOM     21  O   UNL     1       5.849   3.622  18.140  0.00  0.00    +0.000 OA
ATOM     22  H   UNL     1       6.320   2.949  18.654  0.00  0.00    +0.000 HD
ENDBRANCH  18  21
ENDBRANCH   1  17
BRANCH   4  23
ATOM     23  C   UNL     1       7.544   8.281  17.475  0.00  0.00    +0.000 A 
ATOM     24  C   UNL     1       8.261   7.753  18.570  0.00  0.00    +0.000 A 
ATOM     25  C   UNL     1       9.085   8.569  19.346  0.00  0.00    +0.000 A 
ATOM     26  C   UNL     1       9.161   9.906  19.005  0.00  0.00    +0.000 A 
ATOM     27  C   UNL     1       8.304  10.466  18.048  0.00  0.00    +0.000 A 
ATOM     28  C   UNL     1       7.515   9.661  17.254  0.00  0.00    +0.000 A 
ATOM     29  C   UNL     1       8.613  11.921  17.874  0.00  0.00    +0.000 C 
ATOM     30  C   UNL     1      10.119  11.823  18.117  0.00  0.00    +0.000 C 
ATOM     31  C   UNL     1      10.244  10.891  19.343  0.00  0.00    +0.000 C 
ENDBRANCH   4  23
BRANCH   3  32
ATOM     32  C   UNL     1       6.898   5.261  14.904  0.00  0.00    +0.000 C 
ATOM     33  N   UNL     1       7.768   5.069  14.171  0.00  0.00    +0.000 NA
ENDBRANCH   3  32
TORSDOF 5
ENDMDL
MODEL 3
REMARK VINA RESULT:      -8.1      5.303      9.180
REMARK  Name = 
REMARK  7 active torsions:
REMARK  status: ('A' for Active; 'I' for Inactive)
REMARK    1  A    between atoms: C_1  and  C_2
REMARK    2  A    between atoms: C_2  and  C_3
REMARK    3  A    between atoms: C_8  and  C_9
REMARK    4  A    between atoms: C_13  and  N_14
REMARK    5  A    between atoms: N_16  and  C_17
REMARK    6  A    between atoms: N_19  and  C_20
REMARK    7  A    between atoms: C_29  and  O_30
REMARK                            x       y       z     vdW  Elec       q    Type
REMARK                         _______ _______ _______ _____ _____    ______ ____
ROOT
ATOM      1  N   UNL     1       0.772  11.823  19.504  0.00  0.00    +0.000 NA
ATOM      2  C   UNL     1       0.044  11.292  18.575  0.00  0.00    +0.000 C 
ATOM      3  N   UNL     1      -1.048  11.870  17.975  0.00  0.00    +0.000 N 
ATOM      4  N   UNL     1       0.360  10.069  18.007  0.00  0.00    +0.000 N 
ATOM      5  H   UNL     1      -1.362  12.770  18.289  0.00  0.00    +0.000 HD
ATOM      6  H   UNL     1       0.381  10.067  16.997  0.00  0.00    +0.000 HD
ENDROOT
BRANCH   1  17
ATOM      7  C   UNL     1      -1.167  14.131  23.483  0.00  0.00    +0.000 C 
ATOM      8  C   UNL     1      -0.422  14.301  22.149  0.00  0.00    +0.000 C 
ATOM      9  C   UNL     1      -1.226  15.318  21.310  0.00  0.00    +0.000 C 
ATOM     10  O   UNL     1       0.857  14.888  22.457  0.00  0.00    +0.000 OA
ATOM     11  C   UNL     1       1.813  14.808  21.479  0.00  0.00    +0.000 A 
ATOM     12  C   UNL     1       2.926  15.631  21.671  0.00  0.00    +0.000 A 
ATOM     13  C   UNL     1       3.952  15.660  20.724  0.00  0.00    +0.000 A 
ATOM     14  C   UNL     1       3.876  14.845  19.595  0.00  0.00    +0.000 A 
ATOM     15  C   UNL     1       2.767  14.002  19.415  0.00  0.00    +0.000 A 
ATOM     16  C   UNL     1       1.725  13.971  20.356  0.00  0.00    +0.000 A 
ATOM     17  C   UNL     1       0.493  13.125  20.119  0.00  0.00    +0.000 C 
ATOM     18  C   UNL     1      -0.245  12.920  21.463  0.00  0.00    +0.000 C 
BRANCH  14  19
ATOM     19  C   UNL     1       4.916  14.881  18.611  0.00  0.00    +0.000 C 
ATOM     20  N   UNL     1       5.771  14.890  17.825  0.00  0.00    +0.000 NA
ENDBRANCH  14  19
BRANCH  18  21
ATOM     21  O   UNL     1      -1.507  12.260  21.285  0.00  0.00    +0.000 OA
ATOM     22  H   UNL     1      -1.525  11.845  20.409  0.00  0.00    +0.000 HD
ENDBRANCH  18  21
ENDBRANCH   1  17
BRANCH   4  23
ATOM     23  C   UNL     1       1.255   9.132  18.568  0.00  0.00    +0.000 A 
ATOM     24  C   UNL     1       1.102   8.749  19.918  0.00  0.00    +0.000 A 
ATOM     25  C   UNL     1       1.768   7.631  20.424  0.00  0.00    +0.000 A 
ATOM     26  C   UNL     1       2.583   6.929  19.558  0.00  0.00    +0.000 A 
ATOM     27  C   UNL     1       2.888   7.420  18.281  0.00  0.00    +0.000 A 
ATOM     28  C   UNL     1       2.207   8.501  17.763  0.00  0.00    +0.000 A 
ATOM     29  C   UNL     1       3.780   6.456  17.561  0.00  0.00    +0.000 C 
ATOM     30  C   UNL     1       3.202   5.178  18.168  0.00  0.00    +0.000 C 
ATOM     31  C   UNL     1       3.052   5.506  19.670  0.00  0.00    +0.000 C 
ENDBRANCH   4  23
BRANCH   3  32
ATOM     32  C   UNL     1      -2.063  11.048  17.355  0.00  0.00    +0.000 C 
ATOM     33  N   UNL     1      -2.840  10.369  16.840  0.00  0.00    +0.000 NA
ENDBRANCH   3  32
TORSDOF 5
ENDMDL
MODEL 4
REMARK VINA RESULT:      -8.0      5.881     10.012
REMARK  Name = 
REMARK  7 active torsions:
REMARK  status: ('A' for Active; 'I' for Inactive)
REMARK    1  A    between atoms: C_1  and  C_2
REMARK    2  A    between atoms: C_2  and  C_3
REMARK    3  A    between atoms: C_8  and  C_9
REMARK    4  A    between atoms: C_13  and  N_14
REMARK    5  A    between atoms: N_16  and  C_17
REMARK    6  A    between atoms: N_19  and  C_20
REMARK    7  A    between atoms: C_29  and  O_30
REMARK                            x       y       z     vdW  Elec       q    Type
REMARK                         _______ _______ _______ _____ _____    ______ ____
ROOT
ATOM      1  N   UNL     1       0.439  12.593  18.786  0.00  0.00    +0.000 NA
ATOM      2  C   UNL     1      -0.423  11.905  18.109  0.00  0.00    +0.000 C 
ATOM      3  N   UNL     1      -1.546  12.399  17.492  0.00  0.00    +0.000 N 
ATOM      4  N   UNL     1      -0.244  10.555  17.853  0.00  0.00    +0.000 N 
ATOM      5  H   UNL     1      -1.771  13.373  17.589  0.00  0.00    +0.000 HD
ATOM      6  H   UNL     1      -0.345  10.293  16.883  0.00  0.00    +0.000 HD
ENDROOT
BRANCH   1  17
ATOM      7  C   UNL     1      -1.684  16.006  21.745  0.00  0.00    +0.000 C 
ATOM      8  C   UNL     1      -0.705  15.757  20.586  0.00  0.00    +0.000 C 
ATOM      9  C   UNL     1      -1.151  16.660  19.416  0.00  0.00    +0.000 C 
ATOM     10  O   UNL     1       0.590  16.206  21.030  0.00  0.00    +0.000 OA
ATOM     11  C   UNL     1       1.667  15.767  20.306  0.00  0.00    +0.000 A 
ATOM     12  C   UNL     1       2.864  16.443  20.557  0.00  0.00    +0.000 A 
ATOM     13  C   UNL     1       4.023  16.105  19.855  0.00  0.00    +0.000 A 
ATOM     14  C   UNL     1       3.990  15.073  18.918  0.00  0.00    +0.000 A 
ATOM     15  C   UNL     1       2.790  14.381  18.682  0.00  0.00    +0.000 A 
ATOM     16  C   UNL     1       1.617  14.717  19.376  0.00  0.00    +0.000 A 
ATOM     17  C   UNL     1       0.307  14.028  19.061  0.00  0.00    +0.000 C 
ATOM     18  C   UNL     1      -0.673  14.244  20.237  0.00  0.00    +0.000 C 
BRANCH  14  19
ATOM     19  C   UNL     1       5.170  14.732  18.181  0.00  0.00    +0.000 C 
ATOM     20  N   UNL     1       6.139  14.446  17.607  0.00  0.00    +0.000 NA
ENDBRANCH  14  19
BRANCH  18  21
ATOM     21  O   UNL     1      -1.987  13.751  19.936  0.00  0.00    +0.000 OA
ATOM     22  H   UNL     1      -2.263  13.142  20.638  0.00  0.00    +0.000 HD
ENDBRANCH  18  21
ENDBRANCH   1  17
BRANCH   4  23
ATOM     23  C   UNL     1       0.660   9.721  18.547  0.00  0.00    +0.000 A 
ATOM     24  C   UNL     1       0.492   9.518  19.934  0.00  0.00    +0.000 A 
ATOM     25  C   UNL     1       1.172   8.493  20.594  0.00  0.00    +0.000 A 
ATOM     26  C   UNL     1       2.016   7.700  19.840  0.00  0.00    +0.000 A 
ATOM     27  C   UNL     1       2.331   8.022  18.513  0.00  0.00    +0.000 A 
ATOM     28  C   UNL     1       1.637   9.010  17.846  0.00  0.00    +0.000 A 
ATOM     29  C   UNL     1       3.255   6.992  17.941  0.00  0.00    +0.000 C 
ATOM     30  C   UNL     1       2.692   5.793  18.705  0.00  0.00    +0.000 C 
ATOM     31  C   UNL     1       2.511   6.315  20.148  0.00  0.00    +0.000 C 
ENDBRANCH   4  23
BRANCH   3  32
ATOM     32  C   UNL     1      -2.671  11.534  17.218  0.00  0.00    +0.000 C 
ATOM     33  N   UNL     1      -3.543  10.808  17.010  0.00  0.00    +0.000 NA
ENDBRANCH   3  32
TORSDOF 5
ENDMDL
MODEL 5
REMARK VINA RESULT:      -7.9      9.333     12.950
REMARK  Name = 
REMARK  7 active torsions:
REMARK  status: ('A' for Active; 'I' for Inactive)
REMARK    1  A    between atoms: C_1  and  C_2
REMARK    2  A    between atoms: C_2  and  C_3
REMARK    3  A    between atoms: C_8  and  C_9
REMARK    4  A    between atoms: C_13  and  N_14
REMARK    5  A    between atoms: N_16  and  C_17
REMARK    6  A    between atoms: N_19  and  C_20
REMARK    7  A    between atoms: C_29  and  O_30
REMARK                            x       y       z     vdW  Elec       q    Type
REMARK                         _______ _______ _______ _____ _____    ______ ____
ROOT
ATOM      1  N   UNL     1      -3.382  12.120  18.953  0.00  0.00    +0.000 NA
ATOM      2  C   UNL     1      -3.677  11.347  17.957  0.00  0.00    +0.000 C 
ATOM      3  N   UNL     1      -2.829  10.454  17.349  0.00  0.00    +0.000 N 
ATOM      4  N   UNL     1      -4.960  11.279  17.439  0.00  0.00    +0.000 N 
ATOM      5  H   UNL     1      -1.874  10.398  17.653  0.00  0.00    +0.000 HD
ATOM      6  H   UNL     1      -5.327  10.342  17.346  0.00  0.00    +0.000 HD
ENDROOT
BRANCH   1  17
ATOM      7  C   UNL     1       1.160  14.146  18.525  0.00  0.00    +0.000 C 
ATOM      8  C   UNL     1       0.229  13.275  19.385  0.00  0.00    +0.000 C 
ATOM      9  C   UNL     1       0.972  11.948  19.652  0.00  0.00    +0.000 C 
ATOM     10  O   UNL     1       0.066  13.957  20.644  0.00  0.00    +0.000 OA
ATOM     11  C   UNL     1      -0.984  13.548  21.424  0.00  0.00    +0.000 A 
ATOM     12  C   UNL     1      -0.949  13.998  22.747  0.00  0.00    +0.000 A 
ATOM     13  C   UNL     1      -1.949  13.620  23.645  0.00  0.00    +0.000 A 
ATOM     14  C   UNL     1      -2.999  12.811  23.214  0.00  0.00    +0.000 A 
ATOM     15  C   UNL     1      -3.044  12.378  21.878  0.00  0.00    +0.000 A 
ATOM     16  C   UNL     1      -2.040  12.744  20.967  0.00  0.00    +0.000 A 
ATOM     17  C   UNL     1      -2.046  12.208  19.552  0.00  0.00    +0.000 C 
ATOM     18  C   UNL     1      -1.138  13.099  18.671  0.00  0.00    +0.000 C 
BRANCH  14  19
ATOM     19  C   UNL     1      -4.019  12.405  24.133  0.00  0.00    +0.000 C 
ATOM     20  N   UNL     1      -4.829  12.059  24.891  0.00  0.00    +0.000 NA
ENDBRANCH  14  19
BRANCH  18  21
ATOM     21  O   UNL     1      -0.973  12.556  17.354  0.00  0.00    +0.000 OA
ATOM     22  H   UNL     1      -0.604  11.663  17.425  0.00  0.00    +0.000 HD
ENDBRANCH  18  21
ENDBRANCH   1  17
BRANCH   4  23
ATOM     23  C   UNL     1      -5.972  12.234  17.675  0.00  0.00    +0.000 A 
ATOM     24  C   UNL     1      -6.625  12.258  18.927  0.00  0.00    +0.000 A 
ATOM     25  C   UNL     1      -7.412  13.348  19.303  0.00  0.00    +0.000 A 
ATOM     26  C   UNL     1      -7.531  14.388  18.401  0.00  0.00    +0.000 A 
ATOM     27  C   UNL     1      -7.049  14.279  17.090  0.00  0.00    +0.000 A 
ATOM     28  C   UNL     1      -6.241  13.222  16.725  0.00  0.00    +0.000 A 
ATOM     29  C   UNL     1      -7.305  15.550  16.342  0.00  0.00    +0.000 C 
ATOM     30  C   UNL     1      -7.139  16.501  17.528  0.00  0.00    +0.000 C 
ATOM     31  C   UNL     1      -7.915  15.814  18.674  0.00  0.00    +0.000 C 
ENDBRANCH   4  23
BRANCH   3  32
ATOM     32  C   UNL     1      -3.065  10.035  15.985  0.00  0.00    +0.000 C 
ATOM     33  N   UNL     1      -3.262   9.742  14.887  0.00  0.00    +0.000 NA
ENDBRANCH   3  32
TORSDOF 5
ENDMDL
MODEL 6
REMARK VINA RESULT:      -7.8      5.814      9.772
REMARK  Name = 
REMARK  7 active torsions:
REMARK  status: ('A' for Active; 'I' for Inactive)
REMARK    1  A    between atoms: C_1  and  C_2
REMARK    2  A    between atoms: C_2  and  C_3
REMARK    3  A    between atoms: C_8  and  C_9
REMARK    4  A    between atoms: C_13  and  N_14
REMARK    5  A    between atoms: N_16  and  C_17
REMARK    6  A    between atoms: N_19  and  C_20
REMARK    7  A    between atoms: C_29  and  O_30
REMARK                            x       y       z     vdW  Elec       q    Type
REMARK                         _______ _______ _______ _____ _____    ______ ____
ROOT
ATOM      1  N   UNL     1      -0.047  12.253  19.612  0.00  0.00    +0.000 NA
ATOM      2  C   UNL     1      -0.525  11.773  18.510  0.00  0.00    +0.000 C 
ATOM      3  N   UNL     1      -1.531  12.327  17.756  0.00  0.00    +0.000 N 
ATOM      4  N   UNL     1       0.014  10.649  17.906  0.00  0.00    +0.000 N 
ATOM      5  H   UNL     1      -1.988  13.159  18.083  0.00  0.00    +0.000 HD
ATOM      6  H   UNL     1       0.231  10.760  16.926  0.00  0.00    +0.000 HD
ENDROOT
BRANCH   1  17
ATOM      7  C   UNL     1      -1.741  14.131  23.915  0.00  0.00    +0.000 C 
ATOM      8  C   UNL     1      -1.362  14.432  22.456  0.00  0.00    +0.000 C 
ATOM      9  C   UNL     1      -2.580  15.124  21.806  0.00  0.00    +0.000 C 
ATOM     10  O   UNL     1      -0.276  15.378  22.493  0.00  0.00    +0.000 OA
ATOM     11  C   UNL     1       0.445  15.520  21.337  0.00  0.00    +0.000 A 
ATOM     12  C   UNL     1       1.282  16.639  21.296  0.00  0.00    +0.000 A 
ATOM     13  C   UNL     1       2.043  16.906  20.156  0.00  0.00    +0.000 A 
ATOM     14  C   UNL     1       1.986  16.040  19.065  0.00  0.00    +0.000 A 
ATOM     15  C   UNL     1       1.160  14.904  19.117  0.00  0.00    +0.000 A 
ATOM     16  C   UNL     1       0.384  14.630  20.254  0.00  0.00    +0.000 A 
ATOM     17  C   UNL     1      -0.568  13.453  20.276  0.00  0.00    +0.000 C 
ATOM     18  C   UNL     1      -0.928  13.122  21.743  0.00  0.00    +0.000 C 
BRANCH  14  19
ATOM     19  C   UNL     1       2.750  16.317  17.886  0.00  0.00    +0.000 C 
ATOM     20  N   UNL     1       3.356  16.563  16.925  0.00  0.00    +0.000 NA
ENDBRANCH  14  19
BRANCH  18  21
ATOM     21  O   UNL     1      -1.949  12.118  21.829  0.00  0.00    +0.000 OA
ATOM     22  H   UNL     1      -2.811  12.531  21.668  0.00  0.00    +0.000 HD
ENDBRANCH  18  21
ENDBRANCH   1  17
BRANCH   4  23
ATOM     23  C   UNL     1       0.872   9.728  18.547  0.00  0.00    +0.000 A 
ATOM     24  C   UNL     1       0.669   9.425  19.911  0.00  0.00    +0.000 A 
ATOM     25  C   UNL     1       1.296   8.326  20.500  0.00  0.00    +0.000 A 
ATOM     26  C   UNL     1       2.123   7.560  19.701  0.00  0.00    +0.000 A 
ATOM     27  C   UNL     1       2.477   7.972  18.409  0.00  0.00    +0.000 A 
ATOM     28  C   UNL     1       1.835   9.035  17.809  0.00  0.00    +0.000 A 
ATOM     29  C   UNL     1       3.371   6.953  17.774  0.00  0.00    +0.000 C 
ATOM     30  C   UNL     1       2.748   5.722  18.432  0.00  0.00    +0.000 C 
ATOM     31  C   UNL     1       2.559   6.138  19.908  0.00  0.00    +0.000 C 
ENDBRANCH   4  23
BRANCH   3  32
ATOM     32  C   UNL     1      -2.321  11.501  16.870  0.00  0.00    +0.000 C 
ATOM     33  N   UNL     1      -2.946  10.873  16.132  0.00  0.00    +0.000 NA
ENDBRANCH   3  32
TORSDOF 5
ENDMDL
MODEL 7
REMARK VINA RESULT:      -7.7      6.904     10.573
REMARK  Name = 
REMARK  7 active torsions:
REMARK  status: ('A' for Active; 'I' for Inactive)
REMARK    1  A    between atoms: C_1  and  C_2
REMARK    2  A    between atoms: C_2  and  C_3
REMARK    3  A    between atoms: C_8  and  C_9
REMARK    4  A    between atoms: C_13  and  N_14
REMARK    5  A    between atoms: N_16  and  C_17
REMARK    6  A    between atoms: N_19  and  C_20
REMARK    7  A    between atoms: C_29  and  O_30
REMARK                            x       y       z     vdW  Elec       q    Type
REMARK                         _______ _______ _______ _____ _____    ______ ____
ROOT
ATOM      1  N   UNL     1      -2.827  11.733  19.017  0.00  0.00    +0.000 NA
ATOM      2  C   UNL     1      -2.540  11.463  17.785  0.00  0.00    +0.000 C 
ATOM      3  N   UNL     1      -3.347  11.692  16.698  0.00  0.00    +0.000 N 
ATOM      4  N   UNL     1      -1.298  10.974  17.414  0.00  0.00    +0.000 N 
ATOM      5  H   UNL     1      -4.268  12.065  16.840  0.00  0.00    +0.000 HD
ATOM      6  H   UNL     1      -0.857  11.477  16.657  0.00  0.00    +0.000 HD
ENDROOT
BRANCH   1  17
ATOM      7  C   UNL     1      -7.507  10.588  20.321  0.00  0.00    +0.000 C 
ATOM      8  C   UNL     1      -6.462  11.706  20.180  0.00  0.00    +0.000 C 
ATOM      9  C   UNL     1      -7.097  12.810  19.306  0.00  0.00    +0.000 C 
ATOM     10  O   UNL     1      -6.248  12.247  21.498  0.00  0.00    +0.000 OA
ATOM     11  C   UNL     1      -5.119  13.004  21.668  0.00  0.00    +0.000 A 
ATOM     12  C   UNL     1      -5.084  13.758  22.845  0.00  0.00    +0.000 A 
ATOM     13  C   UNL     1      -3.998  14.593  23.113  0.00  0.00    +0.000 A 
ATOM     14  C   UNL     1      -2.934  14.657  22.215  0.00  0.00    +0.000 A 
ATOM     15  C   UNL     1      -2.961  13.882  21.043  0.00  0.00    +0.000 A 
ATOM     16  C   UNL     1      -4.051  13.044  20.758  0.00  0.00    +0.000 A 
ATOM     17  C   UNL     1      -4.118  12.275  19.456  0.00  0.00    +0.000 C 
ATOM     18  C   UNL     1      -5.143  11.126  19.601  0.00  0.00    +0.000 C 
BRANCH  14  19
ATOM     19  C   UNL     1      -1.824  15.524  22.474  0.00  0.00    +0.000 C 
ATOM     20  N   UNL     1      -0.907  16.208  22.678  0.00  0.00    +0.000 NA
ENDBRANCH  14  19
BRANCH  18  21
ATOM     21  O   UNL     1      -5.372  10.454  18.354  0.00  0.00    +0.000 OA
ATOM     22  H   UNL     1      -5.918   9.669  18.515  0.00  0.00    +0.000 HD
ENDBRANCH  18  21
ENDBRANCH   1  17
BRANCH   4  23
ATOM     23  C   UNL     1      -0.360  10.408  18.305  0.00  0.00    +0.000 A 
ATOM     24  C   UNL     1      -0.628  10.416  19.691  0.00  0.00    +0.000 A 
ATOM     25  C   UNL     1       0.117   9.625  20.567  0.00  0.00    +0.000 A 
ATOM     26  C   UNL     1       1.125   8.850  20.027  0.00  0.00    +0.000 A 
ATOM     27  C   UNL     1       1.518   8.991  18.689  0.00  0.00    +0.000 A 
ATOM     28  C   UNL     1       0.764   9.742  17.811  0.00  0.00    +0.000 A 
ATOM     29  C   UNL     1       2.618   8.026  18.374  0.00  0.00    +0.000 C 
ATOM     30  C   UNL     1       2.150   6.901  19.298  0.00  0.00    +0.000 C 
ATOM     31  C   UNL     1       1.768   7.624  20.609  0.00  0.00    +0.000 C 
ENDBRANCH   4  23
BRANCH   3  32
ATOM     32  C   UNL     1      -3.177  10.922  15.486  0.00  0.00    +0.000 C 
ATOM     33  N   UNL     1      -3.011  10.283  14.540  0.00  0.00    +0.000 NA
ENDBRANCH   3  32
TORSDOF 5
ENDMDL
MODEL 8
REMARK VINA RESULT:      -7.7      7.377     11.098
REMARK  Name = 
REMARK  7 active torsions:
REMARK  status: ('A' for Active; 'I' for Inactive)
REMARK    1  A    between atoms: C_1  and  C_2
REMARK    2  A    between atoms: C_2  and  C_3
REMARK    3  A    between atoms: C_8  and  C_9
REMARK    4  A    between atoms: C_13  and  N_14
REMARK    5  A    between atoms: N_16  and  C_17
REMARK    6  A    between atoms: N_19  and  C_20
REMARK    7  A    between atoms: C_29  and  O_30
REMARK                            x       y       z     vdW  Elec       q    Type
REMARK                         _______ _______ _______ _____ _____    ______ ____
ROOT
ATOM      1  N   UNL     1      -3.129  11.977  19.160  0.00  0.00    +0.000 NA
ATOM      2  C   UNL     1      -2.714  11.732  17.959  0.00  0.00    +0.000 C 
ATOM      3  N   UNL     1      -3.472  11.787  16.815  0.00  0.00    +0.000 N 
ATOM      4  N   UNL     1      -1.383  11.465  17.685  0.00  0.00    +0.000 N 
ATOM      5  H   UNL     1      -4.453  11.992  16.885  0.00  0.00    +0.000 HD
ATOM      6  H   UNL     1      -0.987  12.020  16.940  0.00  0.00    +0.000 HD
ENDROOT
BRANCH   1  17
ATOM      7  C   UNL     1      -7.626  10.045  20.141  0.00  0.00    +0.000 C 
ATOM      8  C   UNL     1      -6.781  11.327  20.058  0.00  0.00    +0.000 C 
ATOM      9  C   UNL     1      -7.530  12.302  19.123  0.00  0.00    +0.000 C 
ATOM     10  O   UNL     1      -6.761  11.900  21.379  0.00  0.00    +0.000 OA
ATOM     11  C   UNL     1      -5.795  12.841  21.619  0.00  0.00    +0.000 A 
ATOM     12  C   UNL     1      -5.976  13.593  22.782  0.00  0.00    +0.000 A 
ATOM     13  C   UNL     1      -5.072  14.604  23.115  0.00  0.00    +0.000 A 
ATOM     14  C   UNL     1      -3.972  14.847  22.295  0.00  0.00    +0.000 A 
ATOM     15  C   UNL     1      -3.779  14.076  21.136  0.00  0.00    +0.000 A 
ATOM     16  C   UNL     1      -4.685  13.062  20.787  0.00  0.00    +0.000 A 
ATOM     17  C   UNL     1      -4.522  12.289  19.496  0.00  0.00    +0.000 C 
ATOM     18  C   UNL     1      -5.343  10.981  19.584  0.00  0.00    +0.000 C 
BRANCH  14  19
ATOM     19  C   UNL     1      -3.050  15.894  22.620  0.00  0.00    +0.000 C 
ATOM     20  N   UNL     1      -2.282  16.725  22.887  0.00  0.00    +0.000 NA
ENDBRANCH  14  19
BRANCH  18  21
ATOM     21  O   UNL     1      -5.361  10.276  18.335  0.00  0.00    +0.000 OA
ATOM     22  H   UNL     1      -4.697   9.570  18.362  0.00  0.00    +0.000 HD
ENDBRANCH  18  21
ENDBRANCH   1  17
BRANCH   4  23
ATOM     23  C   UNL     1      -0.423  11.098  18.653  0.00  0.00    +0.000 A 
ATOM     24  C   UNL     1      -0.264  11.894  19.808  0.00  0.00    +0.000 A 
ATOM     25  C   UNL     1       0.452  11.422  20.909  0.00  0.00    +0.000 A 
ATOM     26  C   UNL     1       1.002  10.157  20.817  0.00  0.00    +0.000 A 
ATOM     27  C   UNL     1       1.012   9.451  19.606  0.00  0.00    +0.000 A 
ATOM     28  C   UNL     1       0.277   9.896  18.527  0.00  0.00    +0.000 A 
ATOM     29  C   UNL     1       1.660   8.115  19.798  0.00  0.00    +0.000 C 
ATOM     30  C   UNL     1       1.186   7.883  21.234  0.00  0.00    +0.000 C 
ATOM     31  C   UNL     1       1.418   9.242  21.932  0.00  0.00    +0.000 C 
ENDBRANCH   4  23
BRANCH   3  32
ATOM     32  C   UNL     1      -3.086  11.031  15.645  0.00  0.00    +0.000 C 
ATOM     33  N   UNL     1      -2.783  10.390  14.734  0.00  0.00    +0.000 NA
ENDBRANCH   3  32
TORSDOF 5
ENDMDL
MODEL 9
REMARK VINA RESULT:      -7.7      5.743      9.849
REMARK  Name = 
REMARK  7 active torsions:
REMARK  status: ('A' for Active; 'I' for Inactive)
REMARK    1  A    between atoms: C_1  and  C_2
REMARK    2  A    between atoms: C_2  and  C_3
REMARK    3  A    between atoms: C_8  and  C_9
REMARK    4  A    between atoms: C_13  and  N_14
REMARK    5  A    between atoms: N_16  and  C_17
REMARK    6  A    between atoms: N_19  and  C_20
REMARK    7  A    between atoms: C_29  and  O_30
REMARK                            x       y       z     vdW  Elec       q    Type
REMARK                         _______ _______ _______ _____ _____    ______ ____
ROOT
ATOM      1  N   UNL     1       1.819  12.170  19.259  0.00  0.00    +0.000 NA
ATOM      2  C   UNL     1       0.776  11.776  18.604  0.00  0.00    +0.000 C 
ATOM      3  N   UNL     1      -0.197  12.586  18.071  0.00  0.00    +0.000 N 
ATOM      4  N   UNL     1       0.571  10.443  18.285  0.00  0.00    +0.000 N 
ATOM      5  H   UNL     1      -0.146  13.578  18.219  0.00  0.00    +0.000 HD
ATOM      6  H   UNL     1       0.362  10.271  17.312  0.00  0.00    +0.000 HD
ENDROOT
BRANCH   1  17
ATOM      7  C   UNL     1       2.988  16.663  17.428  0.00  0.00    +0.000 C 
ATOM      8  C   UNL     1       2.617  15.857  18.683  0.00  0.00    +0.000 C 
ATOM      9  C   UNL     1       3.715  16.126  19.734  0.00  0.00    +0.000 C 
ATOM     10  O   UNL     1       1.380  16.403  19.179  0.00  0.00    +0.000 OA
ATOM     11  C   UNL     1       0.688  15.628  20.072  0.00  0.00    +0.000 A 
ATOM     12  C   UNL     1      -0.332  16.287  20.763  0.00  0.00    +0.000 A 
ATOM     13  C   UNL     1      -1.085  15.608  21.723  0.00  0.00    +0.000 A 
ATOM     14  C   UNL     1      -0.833  14.260  21.975  0.00  0.00    +0.000 A 
ATOM     15  C   UNL     1       0.179  13.593  21.264  0.00  0.00    +0.000 A 
ATOM     16  C   UNL     1       0.948  14.268  20.303  0.00  0.00    +0.000 A 
ATOM     17  C   UNL     1       2.092  13.571  19.599  0.00  0.00    +0.000 C 
ATOM     18  C   UNL     1       2.450  14.357  18.316  0.00  0.00    +0.000 C 
BRANCH  14  19
ATOM     19  C   UNL     1      -1.589  13.560  22.970  0.00  0.00    +0.000 C 
ATOM     20  N   UNL     1      -2.220  12.986  23.758  0.00  0.00    +0.000 NA
ENDBRANCH  14  19
BRANCH  18  21
ATOM     21  O   UNL     1       3.630  13.841  17.684  0.00  0.00    +0.000 OA
ATOM     22  H   UNL     1       3.379  13.411  16.852  0.00  0.00    +0.000 HD
ENDBRANCH  18  21
ENDBRANCH   1  17
BRANCH   4  23
ATOM     23  C   UNL     1       1.244   9.361  18.893  0.00  0.00    +0.000 A 
ATOM     24  C   UNL     1       1.008   9.074  20.255  0.00  0.00    +0.000 A 
ATOM     25  C   UNL     1       1.419   7.862  20.812  0.00  0.00    +0.000 A 
ATOM     26  C   UNL     1       2.070   6.969  19.984  0.00  0.00    +0.000 A 
ATOM     27  C   UNL     1       2.478   7.332  18.693  0.00  0.00    +0.000 A 
ATOM     28  C   UNL     1       2.044   8.512  18.125  0.00  0.00    +0.000 A 
ATOM     29  C   UNL     1       3.149   6.173  18.023  0.00  0.00    +0.000 C 
ATOM     30  C   UNL     1       2.309   5.072  18.671  0.00  0.00    +0.000 C 
ATOM     31  C   UNL     1       2.226   5.485  20.157  0.00  0.00    +0.000 C 
ENDBRANCH   4  23
BRANCH   3  32
ATOM     32  C   UNL     1      -1.525  12.070  17.826  0.00  0.00    +0.000 C 
ATOM     33  N   UNL     1      -2.569  11.636  17.595  0.00  0.00    +0.000 NA
ENDBRANCH   3  32
TORSDOF 5
ENDMDL
