MODEL 1
REMARK VINA RESULT:      -6.7      0.000      0.000
REMARK  Name = 
REMARK  10 active torsions:
REMARK  status: ('A' for Active; 'I' for Inactive)
REMARK    1  A    between atoms: C_1  and  O_2
REMARK    2  A    between atoms: O_2  and  C_3
REMARK    3  A    between atoms: C_5  and  C_6
REMARK    4  A    between atoms: C_10  and  C_11
REMARK    5  A    between atoms: C_15  and  O_16
REMARK    6  A    between atoms: C_18  and  O_19
REMARK    7  A    between atoms: C_23  and  O_24
REMARK    8  A    between atoms: C_29  and  C_30
REMARK    9  A    between atoms: C_30  and  O_31
REMARK   10  A    between atoms: C_34  and  O_35
REMARK                            x       y       z     vdW  Elec       q    Type
REMARK                         _______ _______ _______ _____ _____    ______ ____
ROOT
ATOM      1  C   UNL     1       0.657  11.832  19.471  0.00  0.00    +0.000 C 
ATOM      2  O   UNL     1      -0.199  12.658  18.626  0.00  0.00    +0.000 OA
ATOM      3  C   UNL     1      -1.377  11.972  18.416  0.00  0.00    +0.000 A 
ATOM      4  C   UNL     1      -2.599  12.561  18.793  0.00  0.00    +0.000 A 
ATOM      5  C   UNL     1      -3.776  11.780  18.856  0.00  0.00    +0.000 A 
ATOM      6  C   UNL     1      -3.708  10.474  18.335  0.00  0.00    +0.000 A 
ATOM      7  C   UNL     1      -2.485   9.908  17.929  0.00  0.00    +0.000 A 
ATOM      8  C   UNL     1      -1.311  10.636  18.045  0.00  0.00    +0.000 A 
ATOM      9  O   UNL     1      -0.110   9.999  17.879  0.00  0.00    +0.000 OA
ATOM     10  C   UNL     1       0.911  10.444  18.814  0.00  0.00    +0.000 C 
ENDROOT
BRANCH   5  11
ATOM     11  C   UNL     1      -4.889  12.226  19.820  0.00  0.00    +0.000 C 
ATOM     12  O   UNL     1      -4.760  13.567  20.395  0.00  0.00    +0.000 OA
ATOM     13  C   UNL     1      -5.544  13.678  21.548  0.00  0.00    +0.000 A 
ATOM     14  C   UNL     1      -5.354  14.782  22.383  0.00  0.00    +0.000 A 
ATOM     15  C   UNL     1      -5.949  14.771  23.650  0.00  0.00    +0.000 A 
ATOM     16  C   UNL     1      -6.622  13.650  24.119  0.00  0.00    +0.000 A 
ATOM     17  C   UNL     1      -6.890  12.604  23.248  0.00  0.00    +0.000 A 
ATOM     18  C   UNL     1      -6.477  12.703  21.919  0.00  0.00    +0.000 A 
ATOM     19  C   UNL     1      -7.010  11.847  20.825  0.00  0.00    +0.000 C 
ATOM     20  O   UNL     1      -7.916  11.033  20.990  0.00  0.00    +0.000 OA
ATOM     21  C   UNL     1      -6.387  12.100  19.462  0.00  0.00    +0.000 C 
BRANCH  15  22
ATOM     22  O   UNL     1      -5.881  15.848  24.481  0.00  0.00    +0.000 OA
ATOM     23  H   UNL     1      -5.533  16.603  23.976  0.00  0.00    +0.000 HD
ENDBRANCH  15  22
BRANCH  17  24
ATOM     24  O   UNL     1      -7.498  11.475  23.708  0.00  0.00    +0.000 OA
ATOM     25  H   UNL     1      -7.239  11.354  24.643  0.00  0.00    +0.000 HD
ENDBRANCH  17  24
BRANCH  21  26
ATOM     26  O   UNL     1      -6.777  11.028  18.604  0.00  0.00    +0.000 OA
ATOM     27  H   UNL     1      -7.309  10.430  19.168  0.00  0.00    +0.000 HD
ENDBRANCH  21  26
ENDBRANCH   5  11
BRANCH   1  30
ATOM     28  C   UNL     1      -1.548  13.155  22.218  0.00  0.00    +0.000 A 
ATOM     29  C   UNL     1      -0.474  13.081  21.332  0.00  0.00    +0.000 A 
ATOM     30  C   UNL     1      -0.002  11.844  20.863  0.00  0.00    +0.000 A 
ATOM     31  C   UNL     1      -0.461  10.672  21.483  0.00  0.00    +0.000 A 
ATOM     32  C   UNL     1      -1.528  10.740  22.383  0.00  0.00    +0.000 A 
ATOM     33  C   UNL     1      -2.112  11.966  22.692  0.00  0.00    +0.000 A 
BRANCH  28  35
ATOM     34  C   UNL     1      -1.863  15.362  21.368  0.00  0.00    +0.000 C 
ATOM     35  O   UNL     1      -1.955  14.444  22.441  0.00  0.00    +0.000 OA
ENDBRANCH  28  35
BRANCH  33  36
ATOM     36  O   UNL     1      -3.274  11.955  23.414  0.00  0.00    +0.000 OA
ATOM     37  H   UNL     1      -3.959  12.455  22.932  0.00  0.00    +0.000 HD
ENDBRANCH  33  36
ENDBRANCH   1  30
BRANCH  10  38
ATOM     38  C   UNL     1       2.274  10.390  18.103  0.00  0.00    +0.000 C 
BRANCH  38  39
ATOM     39  O   UNL     1       2.605  11.615  17.469  0.00  0.00    +0.000 OA
ATOM     40  H   UNL     1       3.500  11.855  17.769  0.00  0.00    +0.000 HD
ENDBRANCH  38  39
ENDBRANCH  10  38
TORSDOF 9
ENDMDL
MODEL 2
REMARK VINA RESULT:      -6.7      6.140      9.947
REMARK  Name = 
REMARK  10 active torsions:
REMARK  status: ('A' for Active; 'I' for Inactive)
REMARK    1  A    between atoms: C_1  and  O_2
REMARK    2  A    between atoms: O_2  and  C_3
REMARK    3  A    between atoms: C_5  and  C_6
REMARK    4  A    between atoms: C_10  and  C_11
REMARK    5  A    between atoms: C_15  and  O_16
REMARK    6  A    between atoms: C_18  and  O_19
REMARK    7  A    between atoms: C_23  and  O_24
REMARK    8  A    between atoms: C_29  and  C_30
REMARK    9  A    between atoms: C_30  and  O_31
REMARK   10  A    between atoms: C_34  and  O_35
REMARK                            x       y       z     vdW  Elec       q    Type
REMARK                         _______ _______ _______ _____ _____    ______ ____
ROOT
ATOM      1  C   UNL     1       3.889   2.521  17.985  0.00  0.00    +0.000 C 
ATOM      2  O   UNL     1       2.460   2.804  18.053  0.00  0.00    +0.000 OA
ATOM      3  C   UNL     1       2.226   3.538  19.197  0.00  0.00    +0.000 A 
ATOM      4  C   UNL     1       1.624   4.806  19.097  0.00  0.00    +0.000 A 
ATOM      5  C   UNL     1       1.635   5.689  20.202  0.00  0.00    +0.000 A 
ATOM      6  C   UNL     1       2.077   5.170  21.432  0.00  0.00    +0.000 A 
ATOM      7  C   UNL     1       2.647   3.886  21.527  0.00  0.00    +0.000 A 
ATOM      8  C   UNL     1       2.789   3.105  20.390  0.00  0.00    +0.000 A 
ATOM      9  O   UNL     1       3.556   1.972  20.449  0.00  0.00    +0.000 OA
ATOM     10  C   UNL     1       4.365   1.763  19.258  0.00  0.00    +0.000 C 
ENDROOT
BRANCH   5  11
ATOM     11  C   UNL     1       1.566   7.200  19.920  0.00  0.00    +0.000 C 
ATOM     12  O   UNL     1       1.415   8.078  21.083  0.00  0.00    +0.000 OA
ATOM     13  C   UNL     1       0.928   9.328  20.687  0.00  0.00    +0.000 A 
ATOM     14  C   UNL     1       0.469  10.209  21.670  0.00  0.00    +0.000 A 
ATOM     15  C   UNL     1      -0.243  11.345  21.267  0.00  0.00    +0.000 A 
ATOM     16  C   UNL     1      -0.586  11.545  19.936  0.00  0.00    +0.000 A 
ATOM     17  C   UNL     1      -0.040  10.721  18.962  0.00  0.00    +0.000 A 
ATOM     18  C   UNL     1       0.841   9.709  19.343  0.00  0.00    +0.000 A 
ATOM     19  C   UNL     1       1.758   9.016  18.398  0.00  0.00    +0.000 C 
ATOM     20  O   UNL     1       1.868   9.333  17.215  0.00  0.00    +0.000 OA
ATOM     21  C   UNL     1       2.601   7.917  19.024  0.00  0.00    +0.000 C 
BRANCH  15  22
ATOM     22  O   UNL     1      -0.642  12.292  22.161  0.00  0.00    +0.000 OA
ATOM     23  H   UNL     1      -0.126  13.101  22.001  0.00  0.00    +0.000 HD
ENDBRANCH  15  22
BRANCH  17  24
ATOM     24  O   UNL     1      -0.413  10.869  17.660  0.00  0.00    +0.000 OA
ATOM     25  H   UNL     1      -0.086  11.737  17.351  0.00  0.00    +0.000 HD
ENDBRANCH  17  24
BRANCH  21  26
ATOM     26  O   UNL     1       3.191   7.169  17.962  0.00  0.00    +0.000 OA
ATOM     27  H   UNL     1       2.751   6.295  17.990  0.00  0.00    +0.000 HD
ENDBRANCH  21  26
ENDBRANCH   5  11
BRANCH   1  30
ATOM     28  C   UNL     1       6.720   4.995  17.839  0.00  0.00    +0.000 A 
ATOM     29  C   UNL     1       5.735   4.174  18.386  0.00  0.00    +0.000 A 
ATOM     30  C   UNL     1       4.563   3.870  17.673  0.00  0.00    +0.000 A 
ATOM     31  C   UNL     1       4.282   4.594  16.505  0.00  0.00    +0.000 A 
ATOM     32  C   UNL     1       5.259   5.429  15.958  0.00  0.00    +0.000 A 
ATOM     33  C   UNL     1       6.495   5.571  16.584  0.00  0.00    +0.000 A 
BRANCH  28  35
ATOM     34  C   UNL     1       7.843   5.939  19.721  0.00  0.00    +0.000 C 
ATOM     35  O   UNL     1       7.846   5.053  18.618  0.00  0.00    +0.000 OA
ENDBRANCH  28  35
BRANCH  33  36
ATOM     36  O   UNL     1       7.482   6.234  15.906  0.00  0.00    +0.000 OA
ATOM     37  H   UNL     1       8.221   6.423  16.514  0.00  0.00    +0.000 HD
ENDBRANCH  33  36
ENDBRANCH   1  30
BRANCH  10  38
ATOM     38  C   UNL     1       4.481   0.249  19.013  0.00  0.00    +0.000 C 
BRANCH  38  39
ATOM     39  O   UNL     1       5.534  -0.343  19.757  0.00  0.00    +0.000 OA
ATOM     40  H   UNL     1       6.256   0.310  19.792  0.00  0.00    +0.000 HD
ENDBRANCH  38  39
ENDBRANCH  10  38
TORSDOF 9
ENDMDL
MODEL 3
REMARK VINA RESULT:      -6.6      3.245      8.585
REMARK  Name = 
REMARK  10 active torsions:
REMARK  status: ('A' for Active; 'I' for Inactive)
REMARK    1  A    between atoms: C_1  and  O_2
REMARK    2  A    between atoms: O_2  and  C_3
REMARK    3  A    between atoms: C_5  and  C_6
REMARK    4  A    between atoms: C_10  and  C_11
REMARK    5  A    between atoms: C_15  and  O_16
REMARK    6  A    between atoms: C_18  and  O_19
REMARK    7  A    between atoms: C_23  and  O_24
REMARK    8  A    between atoms: C_29  and  C_30
REMARK    9  A    between atoms: C_30  and  O_31
REMARK   10  A    between atoms: C_34  and  O_35
REMARK                            x       y       z     vdW  Elec       q    Type
REMARK                         _______ _______ _______ _____ _____    ______ ____
ROOT
ATOM      1  C   UNL     1      -1.536  13.303  20.638  0.00  0.00    +0.000 C 
ATOM      2  O   UNL     1      -0.136  13.137  21.011  0.00  0.00    +0.000 OA
ATOM      3  C   UNL     1       0.002  11.898  21.603  0.00  0.00    +0.000 A 
ATOM      4  C   UNL     1       0.903  10.965  21.057  0.00  0.00    +0.000 A 
ATOM      5  C   UNL     1       0.856   9.610  21.460  0.00  0.00    +0.000 A 
ATOM      6  C   UNL     1       0.030   9.295  22.554  0.00  0.00    +0.000 A 
ATOM      7  C   UNL     1      -0.843  10.247  23.115  0.00  0.00    +0.000 A 
ATOM      8  C   UNL     1      -0.908  11.526  22.583  0.00  0.00    +0.000 A 
ATOM      9  O   UNL     1      -1.922  12.361  22.972  0.00  0.00    +0.000 OA
ATOM     10  C   UNL     1      -2.462  13.156  21.880  0.00  0.00    +0.000 C 
ENDROOT
BRANCH   5  11
ATOM     11  C   UNL     1       1.355   8.544  20.469  0.00  0.00    +0.000 C 
ATOM     12  O   UNL     1       1.082   7.147  20.815  0.00  0.00    +0.000 OA
ATOM     13  C   UNL     1       1.940   6.296  20.111  0.00  0.00    +0.000 A 
ATOM     14  C   UNL     1       2.018   4.955  20.497  0.00  0.00    +0.000 A 
ATOM     15  C   UNL     1       3.046   4.166  19.967  0.00  0.00    +0.000 A 
ATOM     16  C   UNL     1       4.035   4.720  19.163  0.00  0.00    +0.000 A 
ATOM     17  C   UNL     1       3.891   6.022  18.707  0.00  0.00    +0.000 A 
ATOM     18  C   UNL     1       2.755   6.747  19.067  0.00  0.00    +0.000 A 
ATOM     19  C   UNL     1       2.310   7.982  18.366  0.00  0.00    +0.000 C 
ATOM     20  O   UNL     1       2.865   8.421  17.361  0.00  0.00    +0.000 OA
ATOM     21  C   UNL     1       1.067   8.631  18.953  0.00  0.00    +0.000 C 
BRANCH  15  22
ATOM     22  O   UNL     1       3.130   2.833  20.227  0.00  0.00    +0.000 OA
ATOM     23  H   UNL     1       2.273   2.424  20.014  0.00  0.00    +0.000 HD
ENDBRANCH  15  22
BRANCH  17  24
ATOM     24  O   UNL     1       4.880   6.596  17.967  0.00  0.00    +0.000 OA
ATOM     25  H   UNL     1       4.900   7.550  18.179  0.00  0.00    +0.000 HD
ENDBRANCH  17  24
BRANCH  21  26
ATOM     26  O   UNL     1       0.944   9.930  18.374  0.00  0.00    +0.000 OA
ATOM     27  H   UNL     1       1.861  10.265  18.303  0.00  0.00    +0.000 HD
ENDBRANCH  21  26
ENDBRANCH   5  11
BRANCH   1  30
ATOM     28  C   UNL     1      -3.571  11.295  18.192  0.00  0.00    +0.000 A 
ATOM     29  C   UNL     1      -3.019  11.693  19.408  0.00  0.00    +0.000 A 
ATOM     30  C   UNL     1      -1.769  12.332  19.466  0.00  0.00    +0.000 A 
ATOM     31  C   UNL     1      -0.971  12.348  18.312  0.00  0.00    +0.000 A 
ATOM     32  C   UNL     1      -1.513  11.938  17.091  0.00  0.00    +0.000 A 
ATOM     33  C   UNL     1      -2.828  11.482  17.022  0.00  0.00    +0.000 A 
BRANCH  28  35
ATOM     34  C   UNL     1      -5.868  11.762  18.643  0.00  0.00    +0.000 C 
ATOM     35  O   UNL     1      -4.853  10.828  18.326  0.00  0.00    +0.000 OA
ENDBRANCH  28  35
BRANCH  33  36
ATOM     36  O   UNL     1      -3.371  11.288  15.782  0.00  0.00    +0.000 OA
ATOM     37  H   UNL     1      -2.812  11.723  15.111  0.00  0.00    +0.000 HD
ENDBRANCH  33  36
ENDBRANCH   1  30
BRANCH  10  38
ATOM     38  C   UNL     1      -2.886  14.523  22.442  0.00  0.00    +0.000 C 
BRANCH  38  39
ATOM     39  O   UNL     1      -1.815  15.453  22.475  0.00  0.00    +0.000 OA
ATOM     40  H   UNL     1      -2.112  16.243  21.990  0.00  0.00    +0.000 HD
ENDBRANCH  38  39
ENDBRANCH  10  38
TORSDOF 9
ENDMDL
MODEL 4
REMARK VINA RESULT:      -6.4      3.601      8.722
REMARK  Name = 
REMARK  10 active torsions:
REMARK  status: ('A' for Active; 'I' for Inactive)
REMARK    1  A    between atoms: C_1  and  O_2
REMARK    2  A    between atoms: O_2  and  C_3
REMARK    3  A    between atoms: C_5  and  C_6
REMARK    4  A    between atoms: C_10  and  C_11
REMARK    5  A    between atoms: C_15  and  O_16
REMARK    6  A    between atoms: C_18  and  O_19
REMARK    7  A    between atoms: C_23  and  O_24
REMARK    8  A    between atoms: C_29  and  C_30
REMARK    9  A    between atoms: C_30  and  O_31
REMARK   10  A    between atoms: C_34  and  O_35
REMARK                            x       y       z     vdW  Elec       q    Type
REMARK                         _______ _______ _______ _____ _____    ______ ____
ROOT
ATOM      1  C   UNL     1      -1.744  12.729  20.029  0.00  0.00    +0.000 C 
ATOM      2  O   UNL     1      -0.303  12.733  20.252  0.00  0.00    +0.000 OA
ATOM      3  C   UNL     1       0.005  11.657  21.058  0.00  0.00    +0.000 A 
ATOM      4  C   UNL     1       0.919  10.688  20.603  0.00  0.00    +0.000 A 
ATOM      5  C   UNL     1       1.032   9.446  21.272  0.00  0.00    +0.000 A 
ATOM      6  C   UNL     1       0.359   9.317  22.501  0.00  0.00    +0.000 A 
ATOM      7  C   UNL     1      -0.527  10.309  22.962  0.00  0.00    +0.000 A 
ATOM      8  C   UNL     1      -0.759  11.442  22.198  0.00  0.00    +0.000 A 
ATOM      9  O   UNL     1      -1.792  12.275  22.533  0.00  0.00    +0.000 OA
ATOM     10  C   UNL     1      -2.514  12.789  21.380  0.00  0.00    +0.000 C 
ENDROOT
BRANCH   5  11
ATOM     11  C   UNL     1       1.512   8.230  20.461  0.00  0.00    +0.000 C 
ATOM     12  O   UNL     1       0.833   6.958  20.723  0.00  0.00    +0.000 OA
ATOM     13  C   UNL     1       1.621   5.889  20.286  0.00  0.00    +0.000 A 
ATOM     14  C   UNL     1       1.273   4.595  20.682  0.00  0.00    +0.000 A 
ATOM     15  C   UNL     1       2.188   3.559  20.459  0.00  0.00    +0.000 A 
ATOM     16  C   UNL     1       3.458   3.818  19.959  0.00  0.00    +0.000 A 
ATOM     17  C   UNL     1       3.755   5.084  19.477  0.00  0.00    +0.000 A 
ATOM     18  C   UNL     1       2.769   6.071  19.507  0.00  0.00    +0.000 A 
ATOM     19  C   UNL     1       2.834   7.324  18.706  0.00  0.00    +0.000 C 
ATOM     20  O   UNL     1       3.726   7.556  17.893  0.00  0.00    +0.000 OA
ATOM     21  C   UNL     1       1.670   8.276  18.925  0.00  0.00    +0.000 C 
BRANCH  15  22
ATOM     22  O   UNL     1       1.881   2.262  20.736  0.00  0.00    +0.000 OA
ATOM     23  H   UNL     1       0.956   2.104  20.479  0.00  0.00    +0.000 HD
ENDBRANCH  15  22
BRANCH  17  24
ATOM     24  O   UNL     1       5.013   5.367  19.038  0.00  0.00    +0.000 OA
ATOM     25  H   UNL     1       5.433   5.961  19.691  0.00  0.00    +0.000 HD
ENDBRANCH  17  24
BRANCH  21  26
ATOM     26  O   UNL     1       2.018   9.526  18.331  0.00  0.00    +0.000 OA
ATOM     27  H   UNL     1       1.634  10.206  18.921  0.00  0.00    +0.000 HD
ENDBRANCH  21  26
ENDBRANCH   5  11
BRANCH   1  30
ATOM     28  C   UNL     1      -3.631  10.714  17.472  0.00  0.00    +0.000 A 
ATOM     29  C   UNL     1      -3.343  11.336  18.686  0.00  0.00    +0.000 A 
ATOM     30  C   UNL     1      -2.018  11.523  19.112  0.00  0.00    +0.000 A 
ATOM     31  C   UNL     1      -0.992  10.861  18.421  0.00  0.00    +0.000 A 
ATOM     32  C   UNL     1      -1.275  10.224  17.210  0.00  0.00    +0.000 A 
ATOM     33  C   UNL     1      -2.573  10.214  16.705  0.00  0.00    +0.000 A 
BRANCH  28  35
ATOM     34  C   UNL     1      -5.695  11.910  17.547  0.00  0.00    +0.000 C 
ATOM     35  O   UNL     1      -4.966  10.759  17.164  0.00  0.00    +0.000 OA
ENDBRANCH  28  35
BRANCH  33  36
ATOM     36  O   UNL     1      -2.759   9.759  15.429  0.00  0.00    +0.000 OA
ATOM     37  H   UNL     1      -2.330   8.889  15.329  0.00  0.00    +0.000 HD
ENDBRANCH  33  36
ENDBRANCH   1  30
BRANCH  10  38
ATOM     38  C   UNL     1      -2.992  14.214  21.704  0.00  0.00    +0.000 C 
BRANCH  38  39
ATOM     39  O   UNL     1      -3.503  14.888  20.565  0.00  0.00    +0.000 OA
ATOM     40  H   UNL     1      -3.020  15.730  20.495  0.00  0.00    +0.000 HD
ENDBRANCH  38  39
ENDBRANCH  10  38
TORSDOF 9
ENDMDL
MODEL 5
REMARK VINA RESULT:      -6.4      3.432      9.048
REMARK  Name = 
REMARK  10 active torsions:
REMARK  status: ('A' for Active; 'I' for Inactive)
REMARK    1  A    between atoms: C_1  and  O_2
REMARK    2  A    between atoms: O_2  and  C_3
REMARK    3  A    between atoms: C_5  and  C_6
REMARK    4  A    between atoms: C_10  and  C_11
REMARK    5  A    between atoms: C_15  and  O_16
REMARK    6  A    between atoms: C_18  and  O_19
REMARK    7  A    between atoms: C_23  and  O_24
REMARK    8  A    between atoms: C_29  and  C_30
REMARK    9  A    between atoms: C_30  and  O_31
REMARK   10  A    between atoms: C_34  and  O_35
REMARK                            x       y       z     vdW  Elec       q    Type
REMARK                         _______ _______ _______ _____ _____    ______ ____
ROOT
ATOM      1  C   UNL     1      -0.993  12.673  21.149  0.00  0.00    +0.000 C 
ATOM      2  O   UNL     1       0.332  12.349  21.667  0.00  0.00    +0.000 OA
ATOM      3  C   UNL     1       0.359  10.998  21.947  0.00  0.00    +0.000 A 
ATOM      4  C   UNL     1       1.319  10.180  21.322  0.00  0.00    +0.000 A 
ATOM      5  C   UNL     1       1.191   8.772  21.365  0.00  0.00    +0.000 A 
ATOM      6  C   UNL     1       0.203   8.244  22.216  0.00  0.00    +0.000 A 
ATOM      7  C   UNL     1      -0.731   9.075  22.864  0.00  0.00    +0.000 A 
ATOM      8  C   UNL     1      -0.695  10.447  22.663  0.00  0.00    +0.000 A 
ATOM      9  O   UNL     1      -1.743  11.214  23.096  0.00  0.00    +0.000 OA
ATOM     10  C   UNL     1      -2.099  12.277  22.170  0.00  0.00    +0.000 C 
ENDROOT
BRANCH   5  11
ATOM     11  C   UNL     1       1.819   7.954  20.223  0.00  0.00    +0.000 C 
ATOM     12  O   UNL     1       1.938   6.510  20.439  0.00  0.00    +0.000 OA
ATOM     13  C   UNL     1       2.891   5.966  19.572  0.00  0.00    +0.000 A 
ATOM     14  C   UNL     1       3.338   4.663  19.801  0.00  0.00    +0.000 A 
ATOM     15  C   UNL     1       4.460   4.208  19.098  0.00  0.00    +0.000 A 
ATOM     16  C   UNL     1       5.186   5.060  18.273  0.00  0.00    +0.000 A 
ATOM     17  C   UNL     1       4.677   6.316  17.976  0.00  0.00    +0.000 A 
ATOM     18  C   UNL     1       3.447   6.696  18.514  0.00  0.00    +0.000 A 
ATOM     19  C   UNL     1       2.635   7.830  17.994  0.00  0.00    +0.000 C 
ATOM     20  O   UNL     1       2.948   8.478  16.997  0.00  0.00    +0.000 OA
ATOM     21  C   UNL     1       1.347   8.090  18.758  0.00  0.00    +0.000 C 
BRANCH  15  22
ATOM     22  O   UNL     1       4.898   2.923  19.203  0.00  0.00    +0.000 OA
ATOM     23  H   UNL     1       4.902   2.527  18.314  0.00  0.00    +0.000 HD
ENDBRANCH  15  22
BRANCH  17  24
ATOM     24  O   UNL     1       5.404   7.182  17.217  0.00  0.00    +0.000 OA
ATOM     25  H   UNL     1       6.340   6.902  17.255  0.00  0.00    +0.000 HD
ENDBRANCH  17  24
BRANCH  21  26
ATOM     26  O   UNL     1       0.845   9.358  18.337  0.00  0.00    +0.000 OA
ATOM     27  H   UNL     1       1.271  10.010  18.930  0.00  0.00    +0.000 HD
ENDBRANCH  21  26
ENDBRANCH   5  11
BRANCH   1  30
ATOM     28  C   UNL     1      -2.648  11.023  18.200  0.00  0.00    +0.000 A 
ATOM     29  C   UNL     1      -2.149  11.184  19.492  0.00  0.00    +0.000 A 
ATOM     30  C   UNL     1      -1.059  12.030  19.752  0.00  0.00    +0.000 A 
ATOM     31  C   UNL     1      -0.321  12.524  18.665  0.00  0.00    +0.000 A 
ATOM     32  C   UNL     1      -0.808  12.356  17.367  0.00  0.00    +0.000 A 
ATOM     33  C   UNL     1      -2.001  11.672  17.144  0.00  0.00    +0.000 A 
BRANCH  28  35
ATOM     34  C   UNL     1      -5.034  10.971  18.158  0.00  0.00    +0.000 C 
ATOM     35  O   UNL     1      -3.799  10.280  18.172  0.00  0.00    +0.000 OA
ENDBRANCH  28  35
BRANCH  33  36
ATOM     36  O   UNL     1      -2.534  11.711  15.885  0.00  0.00    +0.000 OA
ATOM     37  H   UNL     1      -1.823  11.591  15.228  0.00  0.00    +0.000 HD
ENDBRANCH  33  36
ENDBRANCH   1  30
BRANCH  10  38
ATOM     38  C   UNL     1      -2.583  13.487  22.986  0.00  0.00    +0.000 C 
BRANCH  38  39
ATOM     39  O   UNL     1      -3.719  13.187  23.782  0.00  0.00    +0.000 OA
ATOM     40  H   UNL     1      -4.185  14.028  23.937  0.00  0.00    +0.000 HD
ENDBRANCH  38  39
ENDBRANCH  10  38
TORSDOF 9
ENDMDL
MODEL 6
REMARK VINA RESULT:      -6.2      1.369      1.499
REMARK  Name = 
REMARK  10 active torsions:
REMARK  status: ('A' for Active; 'I' for Inactive)
REMARK    1  A    between atoms: C_1  and  O_2
REMARK    2  A    between atoms: O_2  and  C_3
REMARK    3  A    between atoms: C_5  and  C_6
REMARK    4  A    between atoms: C_10  and  C_11
REMARK    5  A    between atoms: C_15  and  O_16
REMARK    6  A    between atoms: C_18  and  O_19
REMARK    7  A    between atoms: C_23  and  O_24
REMARK    8  A    between atoms: C_29  and  C_30
REMARK    9  A    between atoms: C_30  and  O_31
REMARK   10  A    between atoms: C_34  and  O_35
REMARK                            x       y       z     vdW  Elec       q    Type
REMARK                         _______ _______ _______ _____ _____    ______ ____
ROOT
ATOM      1  C   UNL     1       1.346  10.773  19.224  0.00  0.00    +0.000 C 
ATOM      2  O   UNL     1       0.686  11.864  18.515  0.00  0.00    +0.000 OA
ATOM      3  C   UNL     1      -0.640  11.522  18.349  0.00  0.00    +0.000 A 
ATOM      4  C   UNL     1      -1.643  12.363  18.866  0.00  0.00    +0.000 A 
ATOM      5  C   UNL     1      -2.977  11.903  18.964  0.00  0.00    +0.000 A 
ATOM      6  C   UNL     1      -3.280  10.677  18.342  0.00  0.00    +0.000 A 
ATOM      7  C   UNL     1      -2.271   9.860  17.798  0.00  0.00    +0.000 A 
ATOM      8  C   UNL     1      -0.943  10.253  17.874  0.00  0.00    +0.000 A 
ATOM      9  O   UNL     1       0.040   9.351  17.565  0.00  0.00    +0.000 OA
ATOM     10  C   UNL     1       1.194   9.434  18.446  0.00  0.00    +0.000 C 
ENDROOT
BRANCH   5  11
ATOM     11  C   UNL     1      -3.878  12.525  20.045  0.00  0.00    +0.000 C 
ATOM     12  O   UNL     1      -3.475  13.835  20.562  0.00  0.00    +0.000 OA
ATOM     13  C   UNL     1      -4.081  14.076  21.799  0.00  0.00    +0.000 A 
ATOM     14  C   UNL     1      -3.621  15.144  22.573  0.00  0.00    +0.000 A 
ATOM     15  C   UNL     1      -4.046  15.237  23.904  0.00  0.00    +0.000 A 
ATOM     16  C   UNL     1      -4.817  14.237  24.483  0.00  0.00    +0.000 A 
ATOM     17  C   UNL     1      -5.350  13.237  23.681  0.00  0.00    +0.000 A 
ATOM     18  C   UNL     1      -5.097  13.259  22.310  0.00  0.00    +0.000 A 
ATOM     19  C   UNL     1      -5.888  12.487  21.314  0.00  0.00    +0.000 C 
ATOM     20  O   UNL     1      -6.880  11.825  21.612  0.00  0.00    +0.000 OA
ATOM     21  C   UNL     1      -5.411  12.629  19.878  0.00  0.00    +0.000 C 
BRANCH  15  22
ATOM     22  O   UNL     1      -3.711  16.297  24.689  0.00  0.00    +0.000 OA
ATOM     23  H   UNL     1      -4.288  16.294  25.472  0.00  0.00    +0.000 HD
ENDBRANCH  15  22
BRANCH  17  24
ATOM     24  O   UNL     1      -6.059  12.220  24.244  0.00  0.00    +0.000 OA
ATOM     25  H   UNL     1      -5.563  11.390  24.098  0.00  0.00    +0.000 HD
ENDBRANCH  17  24
BRANCH  21  26
ATOM     26  O   UNL     1      -6.064  11.622  19.105  0.00  0.00    +0.000 OA
ATOM     27  H   UNL     1      -5.348  11.177  18.608  0.00  0.00    +0.000 HD
ENDBRANCH  21  26
ENDBRANCH   5  11
BRANCH   1  30
ATOM     28  C   UNL     1      -0.388  12.308  22.190  0.00  0.00    +0.000 A 
ATOM     29  C   UNL     1       0.592  12.093  21.221  0.00  0.00    +0.000 A 
ATOM     30  C   UNL     1       0.795  10.821  20.661  0.00  0.00    +0.000 A 
ATOM     31  C   UNL     1       0.169   9.717  21.260  0.00  0.00    +0.000 A 
ATOM     32  C   UNL     1      -0.805   9.924  22.240  0.00  0.00    +0.000 A 
ATOM     33  C   UNL     1      -1.130  11.215  22.650  0.00  0.00    +0.000 A 
BRANCH  28  35
ATOM     34  C   UNL     1       0.129  14.583  21.688  0.00  0.00    +0.000 C 
ATOM     35  O   UNL     1      -0.534  13.634  22.502  0.00  0.00    +0.000 OA
ENDBRANCH  28  35
BRANCH  33  36
ATOM     36  O   UNL     1      -2.223  11.372  23.456  0.00  0.00    +0.000 OA
ATOM     37  H   UNL     1      -1.947  11.319  24.390  0.00  0.00    +0.000 HD
ENDBRANCH  33  36
ENDBRANCH   1  30
BRANCH  10  38
ATOM     38  C   UNL     1       2.452   9.103  17.627  0.00  0.00    +0.000 C 
BRANCH  38  39
ATOM     39  O   UNL     1       3.089   7.914  18.067  0.00  0.00    +0.000 OA
ATOM     40  H   UNL     1       2.555   7.563  18.801  0.00  0.00    +0.000 HD
ENDBRANCH  38  39
ENDBRANCH  10  38
TORSDOF 9
ENDMDL
MODEL 7
REMARK VINA RESULT:      -6.0      2.230      4.519
REMARK  Name = 
REMARK  10 active torsions:
REMARK  status: ('A' for Active; 'I' for Inactive)
REMARK    1  A    between atoms: C_1  and  O_2
REMARK    2  A    between atoms: O_2  and  C_3
REMARK    3  A    between atoms: C_5  and  C_6
REMARK    4  A    between atoms: C_10  and  C_11
REMARK    5  A    between atoms: C_15  and  O_16
REMARK    6  A    between atoms: C_18  and  O_19
REMARK    7  A    between atoms: C_23  and  O_24
REMARK    8  A    between atoms: C_29  and  C_30
REMARK    9  A    between atoms: C_30  and  O_31
REMARK   10  A    between atoms: C_34  and  O_35
REMARK                            x       y       z     vdW  Elec       q    Type
REMARK                         _______ _______ _______ _____ _____    ______ ____
ROOT
ATOM      1  C   UNL     1       2.592  13.398  19.511  0.00  0.00    +0.000 C 
ATOM      2  O   UNL     1       2.380  13.358  20.954  0.00  0.00    +0.000 OA
ATOM      3  C   UNL     1       1.356  14.231  21.257  0.00  0.00    +0.000 A 
ATOM      4  C   UNL     1       0.207  13.752  21.915  0.00  0.00    +0.000 A 
ATOM      5  C   UNL     1      -0.961  14.547  21.979  0.00  0.00    +0.000 A 
ATOM      6  C   UNL     1      -0.851  15.883  21.550  0.00  0.00    +0.000 A 
ATOM      7  C   UNL     1       0.316  16.360  20.924  0.00  0.00    +0.000 A 
ATOM      8  C   UNL     1       1.388  15.507  20.711  0.00  0.00    +0.000 A 
ATOM      9  O   UNL     1       2.410  15.909  19.893  0.00  0.00    +0.000 OA
ATOM     10  C   UNL     1       2.915  14.845  19.039  0.00  0.00    +0.000 C 
ENDROOT
BRANCH   5  11
ATOM     11  C   UNL     1      -2.317  13.831  22.111  0.00  0.00    +0.000 C 
ATOM     12  O   UNL     1      -3.182  13.844  20.929  0.00  0.00    +0.000 OA
ATOM     13  C   UNL     1      -4.505  13.577  21.294  0.00  0.00    +0.000 A 
ATOM     14  C   UNL     1      -5.517  13.804  20.358  0.00  0.00    +0.000 A 
ATOM     15  C   UNL     1      -6.848  13.778  20.793  0.00  0.00    +0.000 A 
ATOM     16  C   UNL     1      -7.161  13.641  22.139  0.00  0.00    +0.000 A 
ATOM     17  C   UNL     1      -6.159  13.316  23.042  0.00  0.00    +0.000 A 
ATOM     18  C   UNL     1      -4.856  13.135  22.575  0.00  0.00    +0.000 A 
ATOM     19  C   UNL     1      -3.793  12.441  23.351  0.00  0.00    +0.000 C 
ATOM     20  O   UNL     1      -3.996  11.902  24.436  0.00  0.00    +0.000 OA
ATOM     21  C   UNL     1      -2.437  12.394  22.664  0.00  0.00    +0.000 C 
BRANCH  15  22
ATOM     22  O   UNL     1      -7.887  13.902  19.922  0.00  0.00    +0.000 OA
ATOM     23  H   UNL     1      -7.635  14.542  19.233  0.00  0.00    +0.000 HD
ENDBRANCH  15  22
BRANCH  17  24
ATOM     24  O   UNL     1      -6.441  13.235  24.371  0.00  0.00    +0.000 OA
ATOM     25  H   UNL     1      -6.514  14.146  24.720  0.00  0.00    +0.000 HD
ENDBRANCH  17  24
BRANCH  21  26
ATOM     26  O   UNL     1      -1.478  11.973  23.634  0.00  0.00    +0.000 OA
ATOM     27  H   UNL     1      -2.002  11.747  24.430  0.00  0.00    +0.000 HD
ENDBRANCH  21  26
ENDBRANCH   5  11
BRANCH   1  30
ATOM     28  C   UNL     1      -0.229  10.915  19.328  0.00  0.00    +0.000 A 
ATOM     29  C   UNL     1       1.076  11.407  19.324  0.00  0.00    +0.000 A 
ATOM     30  C   UNL     1       1.360  12.713  18.893  0.00  0.00    +0.000 A 
ATOM     31  C   UNL     1       0.352  13.436  18.237  0.00  0.00    +0.000 A 
ATOM     32  C   UNL     1      -0.955  12.944  18.226  0.00  0.00    +0.000 A 
ATOM     33  C   UNL     1      -1.255  11.725  18.830  0.00  0.00    +0.000 A 
BRANCH  28  35
ATOM     34  C   UNL     1      -0.211   9.614  21.329  0.00  0.00    +0.000 C 
ATOM     35  O   UNL     1      -0.321   9.682  19.920  0.00  0.00    +0.000 OA
ENDBRANCH  28  35
BRANCH  33  36
ATOM     36  O   UNL     1      -2.573  11.387  18.969  0.00  0.00    +0.000 OA
ATOM     37  H   UNL     1      -2.672  10.422  18.873  0.00  0.00    +0.000 HD
ENDBRANCH  33  36
ENDBRANCH   1  30
BRANCH  10  38
ATOM     38  C   UNL     1       4.426  15.059  18.844  0.00  0.00    +0.000 C 
BRANCH  38  39
ATOM     39  O   UNL     1       4.871  14.653  17.560  0.00  0.00    +0.000 OA
ATOM     40  H   UNL     1       4.104  14.257  17.108  0.00  0.00    +0.000 HD
ENDBRANCH  38  39
ENDBRANCH  10  38
TORSDOF 9
ENDMDL
MODEL 8
REMARK VINA RESULT:      -6.0      9.635     12.995
REMARK  Name = 
REMARK  10 active torsions:
REMARK  status: ('A' for Active; 'I' for Inactive)
REMARK    1  A    between atoms: C_1  and  O_2
REMARK    2  A    between atoms: O_2  and  C_3
REMARK    3  A    between atoms: C_5  and  C_6
REMARK    4  A    between atoms: C_10  and  C_11
REMARK    5  A    between atoms: C_15  and  O_16
REMARK    6  A    between atoms: C_18  and  O_19
REMARK    7  A    between atoms: C_23  and  O_24
REMARK    8  A    between atoms: C_29  and  C_30
REMARK    9  A    between atoms: C_30  and  O_31
REMARK   10  A    between atoms: C_34  and  O_35
REMARK                            x       y       z     vdW  Elec       q    Type
REMARK                         _______ _______ _______ _____ _____    ______ ____
ROOT
ATOM      1  C   UNL     1       6.353  12.962  24.872  0.00  0.00    +0.000 C 
ATOM      2  O   UNL     1       5.451  12.826  23.734  0.00  0.00    +0.000 OA
ATOM      3  C   UNL     1       5.299  14.072  23.161  0.00  0.00    +0.000 A 
ATOM      4  C   UNL     1       5.635  14.259  21.807  0.00  0.00    +0.000 A 
ATOM      5  C   UNL     1       5.762  15.564  21.279  0.00  0.00    +0.000 A 
ATOM      6  C   UNL     1       5.342  16.630  22.096  0.00  0.00    +0.000 A 
ATOM      7  C   UNL     1       4.975  16.426  23.440  0.00  0.00    +0.000 A 
ATOM      8  C   UNL     1       5.030  15.154  23.988  0.00  0.00    +0.000 A 
ATOM      9  O   UNL     1       4.908  15.004  25.344  0.00  0.00    +0.000 OA
ATOM     10  C   UNL     1       5.803  13.998  25.895  0.00  0.00    +0.000 C 
ENDROOT
BRANCH   5  11
ATOM     11  C   UNL     1       6.695  15.768  20.071  0.00  0.00    +0.000 C 
ATOM     12  O   UNL     1       7.122  14.560  19.361  0.00  0.00    +0.000 OA
ATOM     13  C   UNL     1       8.271  14.821  18.608  0.00  0.00    +0.000 A 
ATOM     14  C   UNL     1       8.981  13.743  18.075  0.00  0.00    +0.000 A 
ATOM     15  C   UNL     1      10.252  13.979  17.539  0.00  0.00    +0.000 A 
ATOM     16  C   UNL     1      10.850  15.230  17.632  0.00  0.00    +0.000 A 
ATOM     17  C   UNL     1      10.099  16.312  18.070  0.00  0.00    +0.000 A 
ATOM     18  C   UNL     1       8.760  16.117  18.409  0.00  0.00    +0.000 A 
ATOM     19  C   UNL     1       7.773  17.224  18.533  0.00  0.00    +0.000 C 
ATOM     20  O   UNL     1       8.040  18.395  18.270  0.00  0.00    +0.000 OA
ATOM     21  C   UNL     1       6.379  16.786  18.952  0.00  0.00    +0.000 C 
BRANCH  15  22
ATOM     22  O   UNL     1      10.963  12.995  16.923  0.00  0.00    +0.000 OA
ATOM     23  H   UNL     1      10.458  12.691  16.149  0.00  0.00    +0.000 HD
ENDBRANCH  15  22
BRANCH  17  24
ATOM     24  O   UNL     1      10.688  17.531  18.220  0.00  0.00    +0.000 OA
ATOM     25  H   UNL     1      11.132  17.756  17.379  0.00  0.00    +0.000 HD
ENDBRANCH  17  24
BRANCH  21  26
ATOM     26  O   UNL     1       5.647  17.958  19.307  0.00  0.00    +0.000 OA
ATOM     27  H   UNL     1       4.880  17.974  18.699  0.00  0.00    +0.000 HD
ENDBRANCH  21  26
ENDBRANCH   5  11
BRANCH   1  30
ATOM     28  C   UNL     1       9.017  12.906  22.216  0.00  0.00    +0.000 A 
ATOM     29  C   UNL     1       8.135  12.432  23.185  0.00  0.00    +0.000 A 
ATOM     30  C   UNL     1       7.743  13.236  24.268  0.00  0.00    +0.000 A 
ATOM     31  C   UNL     1       8.435  14.434  24.499  0.00  0.00    +0.000 A 
ATOM     32  C   UNL     1       9.331  14.910  23.538  0.00  0.00    +0.000 A 
ATOM     33  C   UNL     1       9.565  14.184  22.372  0.00  0.00    +0.000 A 
BRANCH  28  35
ATOM     34  C   UNL     1      10.472  11.720  20.743  0.00  0.00    +0.000 C 
ATOM     35  O   UNL     1       9.160  12.036  21.167  0.00  0.00    +0.000 OA
ENDBRANCH  28  35
BRANCH  33  36
ATOM     36  O   UNL     1      10.288  14.786  21.379  0.00  0.00    +0.000 OA
ATOM     37  H   UNL     1       9.949  15.689  21.234  0.00  0.00    +0.000 HD
ENDBRANCH  33  36
ENDBRANCH   1  30
BRANCH  10  38
ATOM     38  C   UNL     1       5.093  13.314  27.075  0.00  0.00    +0.000 C 
BRANCH  38  39
ATOM     39  O   UNL     1       4.305  12.207  26.668  0.00  0.00    +0.000 OA
ATOM     40  H   UNL     1       3.782  12.500  25.900  0.00  0.00    +0.000 HD
ENDBRANCH  38  39
ENDBRANCH  10  38
TORSDOF 9
ENDMDL
MODEL 9
REMARK VINA RESULT:      -5.9      1.878      7.650
REMARK  Name = 
REMARK  10 active torsions:
REMARK  status: ('A' for Active; 'I' for Inactive)
REMARK    1  A    between atoms: C_1  and  O_2
REMARK    2  A    between atoms: O_2  and  C_3
REMARK    3  A    between atoms: C_5  and  C_6
REMARK    4  A    between atoms: C_10  and  C_11
REMARK    5  A    between atoms: C_15  and  O_16
REMARK    6  A    between atoms: C_18  and  O_19
REMARK    7  A    between atoms: C_23  and  O_24
REMARK    8  A    between atoms: C_29  and  C_30
REMARK    9  A    between atoms: C_30  and  O_31
REMARK   10  A    between atoms: C_34  and  O_35
REMARK                            x       y       z     vdW  Elec       q    Type
REMARK                         _______ _______ _______ _____ _____    ______ ____
ROOT
ATOM      1  C   UNL     1      -5.090  15.055  21.728  0.00  0.00    +0.000 C 
ATOM      2  O   UNL     1      -3.785  15.434  21.199  0.00  0.00    +0.000 OA
ATOM      3  C   UNL     1      -2.836  14.626  21.790  0.00  0.00    +0.000 A 
ATOM      4  C   UNL     1      -2.003  13.830  20.982  0.00  0.00    +0.000 A 
ATOM      5  C   UNL     1      -1.231  12.794  21.558  0.00  0.00    +0.000 A 
ATOM      6  C   UNL     1      -1.179  12.739  22.963  0.00  0.00    +0.000 A 
ATOM      7  C   UNL     1      -1.993  13.565  23.762  0.00  0.00    +0.000 A 
ATOM      8  C   UNL     1      -2.876  14.453  23.166  0.00  0.00    +0.000 A 
ATOM      9  O   UNL     1      -3.825  15.070  23.937  0.00  0.00    +0.000 OA
ATOM     10  C   UNL     1      -5.117  15.180  23.279  0.00  0.00    +0.000 C 
ENDROOT
BRANCH   5  11
ATOM     11  C   UNL     1      -0.854  11.594  20.671  0.00  0.00    +0.000 C 
ATOM     12  O   UNL     1      -0.510  10.349  21.362  0.00  0.00    +0.000 OA
ATOM     13  C   UNL     1       0.221   9.510  20.516  0.00  0.00    +0.000 A 
ATOM     14  C   UNL     1       0.866   8.400  21.066  0.00  0.00    +0.000 A 
ATOM     15  C   UNL     1       1.792   7.707  20.279  0.00  0.00    +0.000 A 
ATOM     16  C   UNL     1       2.152   8.168  19.018  0.00  0.00    +0.000 A 
ATOM     17  C   UNL     1       1.435   9.208  18.444  0.00  0.00    +0.000 A 
ATOM     18  C   UNL     1       0.368   9.768  19.148  0.00  0.00    +0.000 A 
ATOM     19  C   UNL     1      -0.684  10.608  18.515  0.00  0.00    +0.000 C 
ATOM     20  O   UNL     1      -0.742  10.814  17.305  0.00  0.00    +0.000 OA
ATOM     21  C   UNL     1      -1.730  11.146  19.479  0.00  0.00    +0.000 C 
BRANCH  15  22
ATOM     22  O   UNL     1       2.391   6.565  20.717  0.00  0.00    +0.000 OA
ATOM     23  H   UNL     1       1.948   6.282  21.535  0.00  0.00    +0.000 HD
ENDBRANCH  15  22
BRANCH  17  24
ATOM     24  O   UNL     1       1.813   9.708  17.235  0.00  0.00    +0.000 OA
ATOM     25  H   UNL     1       1.363  10.567  17.110  0.00  0.00    +0.000 HD
ENDBRANCH  17  24
BRANCH  21  26
ATOM     26  O   UNL     1      -2.476  12.148  18.789  0.00  0.00    +0.000 OA
ATOM     27  H   UNL     1      -2.938  12.651  19.491  0.00  0.00    +0.000 HD
ENDBRANCH  21  26
ENDBRANCH   5  11
BRANCH   1  30
ATOM     28  C   UNL     1      -6.929  11.791  21.370  0.00  0.00    +0.000 A 
ATOM     29  C   UNL     1      -6.111  12.770  21.932  0.00  0.00    +0.000 A 
ATOM     30  C   UNL     1      -5.394  13.670  21.127  0.00  0.00    +0.000 A 
ATOM     31  C   UNL     1      -5.316  13.420  19.748  0.00  0.00    +0.000 A 
ATOM     32  C   UNL     1      -6.123  12.432  19.179  0.00  0.00    +0.000 A 
ATOM     33  C   UNL     1      -6.976  11.673  19.977  0.00  0.00    +0.000 A 
BRANCH  28  35
ATOM     34  C   UNL     1      -7.916  11.762  23.543  0.00  0.00    +0.000 C 
ATOM     35  O   UNL     1      -7.657  11.113  22.313  0.00  0.00    +0.000 OA
ENDBRANCH  28  35
BRANCH  33  36
ATOM     36  O   UNL     1      -7.886  10.866  19.352  0.00  0.00    +0.000 OA
ATOM     37  H   UNL     1      -8.258  10.236  19.997  0.00  0.00    +0.000 HD
ENDBRANCH  33  36
ENDBRANCH   1  30
BRANCH  10  38
ATOM     38  C   UNL     1      -5.781  16.491  23.735  0.00  0.00    +0.000 C 
BRANCH  38  39
ATOM     39  O   UNL     1      -5.309  17.618  23.014  0.00  0.00    +0.000 OA
ATOM     40  H   UNL     1      -4.431  17.382  22.666  0.00  0.00    +0.000 HD
ENDBRANCH  38  39
ENDBRANCH  10  38
TORSDOF 9
ENDMDL
