MODEL 1
REMARK VINA RESULT:      -8.5      0.000      0.000
REMARK  Name = 
REMARK  4 active torsions:
REMARK  status: ('A' for Active; 'I' for Inactive)
REMARK    1  A    between atoms: C_2  and  C_3
REMARK    2  A    between atoms: C_3  and  C_4
REMARK    3  A    between atoms: C_4  and  C_5
REMARK    4  A    between atoms: N_22  and  C_23
REMARK                            x       y       z     vdW  Elec       q    Type
REMARK                         _______ _______ _______ _____ _____    ______ ____
ROOT
ATOM      1  C   UNL     1       1.700   8.439  19.343  0.00  0.00    +0.000 C 
ATOM      2  O   UNL     1       2.061   7.688  20.257  0.00  0.00    +0.000 OA
ATOM      3  N   UNL     1       0.852   9.541  19.530  0.00  0.00    +0.000 N 
ATOM      4  C   UNL     1       0.571  10.462  18.432  0.00  0.00    +0.000 C 
ATOM      5  C   UNL     1       1.322  11.730  18.635  0.00  0.00    +0.000 A 
ATOM      6  C   UNL     1       2.477  12.042  17.920  0.00  0.00    +0.000 A 
ATOM      7  C   UNL     1       3.144  13.241  18.180  0.00  0.00    +0.000 A 
ATOM      8  C   UNL     1       2.653  14.112  19.149  0.00  0.00    +0.000 A 
ATOM      9  C   UNL     1       1.505  13.795  19.878  0.00  0.00    +0.000 A 
ATOM     10  C   UNL     1       0.869  12.578  19.642  0.00  0.00    +0.000 A 
ATOM     11  O   UNL     1      -0.293  12.276  20.315  0.00  0.00    +0.000 OA
ATOM     12  C   UNL     1      -0.290  11.171  21.136  0.00  0.00    +0.000 A 
ATOM     13  N   UNL     1      -0.951  11.450  22.298  0.00  0.00    +0.000 NA
ATOM     14  C   UNL     1      -1.029  10.490  23.240  0.00  0.00    +0.000 A 
ATOM     15  C   UNL     1      -0.488   9.234  23.068  0.00  0.00    +0.000 A 
ATOM     16  C   UNL     1       0.152   8.946  21.858  0.00  0.00    +0.000 A 
ATOM     17  C   UNL     1       0.263   9.898  20.827  0.00  0.00    +0.000 A 
ENDROOT
BRANCH   1  18
ATOM     18  C   UNL     1       2.274   8.169  17.927  0.00  0.00    +0.000 C 
BRANCH  18  19
ATOM     19  C   UNL     1       3.601   7.427  18.089  0.00  0.00    +0.000 C 
BRANCH  19  21
ATOM     20  O   UNL     1       4.338   5.539  16.726  0.00  0.00    +0.000 OA
ATOM     21  C   UNL     1       3.737   5.956  17.714  0.00  0.00    +0.000 C 
ATOM     22  N   UNL     1       3.026   5.156  18.620  0.00  0.00    +0.000 N 
ATOM     23  H   UNL     1       2.634   5.646  19.413  0.00  0.00    +0.000 HD
BRANCH  22  24
ATOM     24  C   UNL     1       2.803   3.698  18.560  0.00  0.00    +0.000 C 
ATOM     25  C   UNL     1       3.543   2.895  19.646  0.00  0.00    +0.000 C 
ATOM     26  C   UNL     1       2.929   2.926  21.053  0.00  0.00    +0.000 C 
ATOM     27  C   UNL     1       1.403   2.935  21.144  0.00  0.00    +0.000 C 
ATOM     28  C   UNL     1       0.695   3.657  20.005  0.00  0.00    +0.000 C 
ATOM     29  C   UNL     1       1.308   3.342  18.642  0.00  0.00    +0.000 C 
ENDBRANCH  22  24
ENDBRANCH  19  21
ENDBRANCH  18  19
ENDBRANCH   1  18
TORSDOF 4
ENDMDL
MODEL 2
REMARK VINA RESULT:      -8.5      4.062      7.390
REMARK  Name = 
REMARK  4 active torsions:
REMARK  status: ('A' for Active; 'I' for Inactive)
REMARK    1  A    between atoms: C_2  and  C_3
REMARK    2  A    between atoms: C_3  and  C_4
REMARK    3  A    between atoms: C_4  and  C_5
REMARK    4  A    between atoms: N_22  and  C_23
REMARK                            x       y       z     vdW  Elec       q    Type
REMARK                         _______ _______ _______ _____ _____    ______ ____
ROOT
ATOM      1  C   UNL     1       5.012   5.945  17.280  0.00  0.00    +0.000 C 
ATOM      2  O   UNL     1       4.829   6.578  16.234  0.00  0.00    +0.000 OA
ATOM      3  N   UNL     1       4.258   6.137  18.448  0.00  0.00    +0.000 N 
ATOM      4  C   UNL     1       4.439   5.266  19.605  0.00  0.00    +0.000 C 
ATOM      5  C   UNL     1       3.296   4.320  19.706  0.00  0.00    +0.000 A 
ATOM      6  C   UNL     1       3.393   2.981  19.330  0.00  0.00    +0.000 A 
ATOM      7  C   UNL     1       2.271   2.156  19.431  0.00  0.00    +0.000 A 
ATOM      8  C   UNL     1       1.068   2.674  19.902  0.00  0.00    +0.000 A 
ATOM      9  C   UNL     1       0.963   4.019  20.265  0.00  0.00    +0.000 A 
ATOM     10  C   UNL     1       2.076   4.845  20.122  0.00  0.00    +0.000 A 
ATOM     11  O   UNL     1       2.002   6.159  20.526  0.00  0.00    +0.000 OA
ATOM     12  C   UNL     1       2.188   7.134  19.572  0.00  0.00    +0.000 A 
ATOM     13  N   UNL     1       1.287   8.144  19.753  0.00  0.00    +0.000 NA
ATOM     14  C   UNL     1       1.302   9.181  18.894  0.00  0.00    +0.000 A 
ATOM     15  C   UNL     1       2.202   9.272  17.854  0.00  0.00    +0.000 A 
ATOM     16  C   UNL     1       3.146   8.252  17.702  0.00  0.00    +0.000 A 
ATOM     17  C   UNL     1       3.195   7.144  18.568  0.00  0.00    +0.000 A 
ENDROOT
BRANCH   1  18
ATOM     18  C   UNL     1       6.100   4.840  17.267  0.00  0.00    +0.000 C 
BRANCH  18  19
ATOM     19  C   UNL     1       5.894   3.989  16.013  0.00  0.00    +0.000 C 
BRANCH  19  21
ATOM     20  O   UNL     1       7.396   5.204  14.519  0.00  0.00    +0.000 OA
ATOM     21  C   UNL     1       6.472   4.407  14.666  0.00  0.00    +0.000 C 
ATOM     22  N   UNL     1       5.756   3.803  13.622  0.00  0.00    +0.000 N 
ATOM     23  H   UNL     1       5.061   3.127  13.910  0.00  0.00    +0.000 HD
BRANCH  22  24
ATOM     24  C   UNL     1       5.912   4.025  12.171  0.00  0.00    +0.000 C 
ATOM     25  C   UNL     1       7.305   3.675  11.618  0.00  0.00    +0.000 C 
ATOM     26  C   UNL     1       7.603   2.182  11.417  0.00  0.00    +0.000 C 
ATOM     27  C   UNL     1       6.447   1.302  10.938  0.00  0.00    +0.000 C 
ATOM     28  C   UNL     1       5.069   1.730  11.425  0.00  0.00    +0.000 C 
ATOM     29  C   UNL     1       4.867   3.242  11.356  0.00  0.00    +0.000 C 
ENDBRANCH  22  24
ENDBRANCH  19  21
ENDBRANCH  18  19
ENDBRANCH   1  18
TORSDOF 4
ENDMDL
MODEL 3
REMARK VINA RESULT:      -8.0      2.490      3.783
REMARK  Name = 
REMARK  4 active torsions:
REMARK  status: ('A' for Active; 'I' for Inactive)
REMARK    1  A    between atoms: C_2  and  C_3
REMARK    2  A    between atoms: C_3  and  C_4
REMARK    3  A    between atoms: C_4  and  C_5
REMARK    4  A    between atoms: N_22  and  C_23
REMARK                            x       y       z     vdW  Elec       q    Type
REMARK                         _______ _______ _______ _____ _____    ______ ____
ROOT
ATOM      1  C   UNL     1       1.214  10.713  18.409  0.00  0.00    +0.000 C 
ATOM      2  O   UNL     1       2.101  11.565  18.279  0.00  0.00    +0.000 OA
ATOM      3  N   UNL     1      -0.037  10.974  18.991  0.00  0.00    +0.000 N 
ATOM      4  C   UNL     1      -1.085   9.959  18.994  0.00  0.00    +0.000 C 
ATOM      5  C   UNL     1      -2.122  10.304  17.984  0.00  0.00    +0.000 A 
ATOM      6  C   UNL     1      -2.215   9.660  16.752  0.00  0.00    +0.000 A 
ATOM      7  C   UNL     1      -3.200  10.053  15.844  0.00  0.00    +0.000 A 
ATOM      8  C   UNL     1      -4.078  11.082  16.174  0.00  0.00    +0.000 A 
ATOM      9  C   UNL     1      -3.977  11.740  17.401  0.00  0.00    +0.000 A 
ATOM     10  C   UNL     1      -2.965  11.370  18.285  0.00  0.00    +0.000 A 
ATOM     11  O   UNL     1      -2.888  11.973  19.519  0.00  0.00    +0.000 OA
ATOM     12  C   UNL     1      -1.748  12.687  19.814  0.00  0.00    +0.000 A 
ATOM     13  N   UNL     1      -2.075  13.848  20.455  0.00  0.00    +0.000 NA
ATOM     14  C   UNL     1      -1.085  14.692  20.802  0.00  0.00    +0.000 A 
ATOM     15  C   UNL     1       0.244  14.422  20.554  0.00  0.00    +0.000 A 
ATOM     16  C   UNL     1       0.571  13.212  19.932  0.00  0.00    +0.000 A 
ATOM     17  C   UNL     1      -0.412  12.279  19.552  0.00  0.00    +0.000 A 
ENDROOT
BRANCH   1  18
ATOM     18  C   UNL     1       1.490   9.298  17.837  0.00  0.00    +0.000 C 
BRANCH  18  19
ATOM     19  C   UNL     1       1.926   8.398  18.994  0.00  0.00    +0.000 C 
BRANCH  19  21
ATOM     20  O   UNL     1       3.683   7.119  17.878  0.00  0.00    +0.000 OA
ATOM     21  C   UNL     1       2.835   7.196  18.765  0.00  0.00    +0.000 C 
ATOM     22  N   UNL     1       2.520   6.170  19.667  0.00  0.00    +0.000 N 
ATOM     23  H   UNL     1       1.837   6.411  20.373  0.00  0.00    +0.000 HD
BRANCH  22  24
ATOM     24  C   UNL     1       3.075   4.804  19.715  0.00  0.00    +0.000 C 
ATOM     25  C   UNL     1       2.546   3.941  20.875  0.00  0.00    +0.000 C 
ATOM     26  C   UNL     1       1.136   3.356  20.702  0.00  0.00    +0.000 C 
ATOM     27  C   UNL     1       0.739   2.910  19.294  0.00  0.00    +0.000 C 
ATOM     28  C   UNL     1       1.354   3.725  18.163  0.00  0.00    +0.000 C 
ATOM     29  C   UNL     1       2.829   4.037  18.403  0.00  0.00    +0.000 C 
ENDBRANCH  22  24
ENDBRANCH  19  21
ENDBRANCH  18  19
ENDBRANCH   1  18
TORSDOF 4
ENDMDL
MODEL 4
REMARK VINA RESULT:      -7.9      4.200      8.613
REMARK  Name = 
REMARK  4 active torsions:
REMARK  status: ('A' for Active; 'I' for Inactive)
REMARK    1  A    between atoms: C_2  and  C_3
REMARK    2  A    between atoms: C_3  and  C_4
REMARK    3  A    between atoms: C_4  and  C_5
REMARK    4  A    between atoms: N_22  and  C_23
REMARK                            x       y       z     vdW  Elec       q    Type
REMARK                         _______ _______ _______ _____ _____    ______ ____
ROOT
ATOM      1  C   UNL     1      -1.123  11.484  22.540  0.00  0.00    +0.000 C 
ATOM      2  O   UNL     1      -1.028  10.648  23.446  0.00  0.00    +0.000 OA
ATOM      3  N   UNL     1      -0.575  11.310  21.259  0.00  0.00    +0.000 N 
ATOM      4  C   UNL     1      -0.835  12.277  20.198  0.00  0.00    +0.000 C 
ATOM      5  C   UNL     1      -1.815  11.712  19.232  0.00  0.00    +0.000 A 
ATOM      6  C   UNL     1      -3.154  12.098  19.207  0.00  0.00    +0.000 A 
ATOM      7  C   UNL     1      -4.023  11.507  18.287  0.00  0.00    +0.000 A 
ATOM      8  C   UNL     1      -3.547  10.540  17.405  0.00  0.00    +0.000 A 
ATOM      9  C   UNL     1      -2.210  10.140  17.438  0.00  0.00    +0.000 A 
ATOM     10  C   UNL     1      -1.360  10.704  18.387  0.00  0.00    +0.000 A 
ATOM     11  O   UNL     1      -0.027  10.358  18.396  0.00  0.00    +0.000 OA
ATOM     12  C   UNL     1       0.469   9.746  19.525  0.00  0.00    +0.000 A 
ATOM     13  N   UNL     1       1.307   8.727  19.175  0.00  0.00    +0.000 NA
ATOM     14  C   UNL     1       1.872   7.994  20.154  0.00  0.00    +0.000 A 
ATOM     15  C   UNL     1       1.654   8.245  21.491  0.00  0.00    +0.000 A 
ATOM     16  C   UNL     1       0.825   9.317  21.839  0.00  0.00    +0.000 A 
ATOM     17  C   UNL     1       0.210  10.131  20.869  0.00  0.00    +0.000 A 
ENDROOT
BRANCH   1  18
ATOM     18  C   UNL     1      -1.947  12.765  22.831  0.00  0.00    +0.000 C 
BRANCH  18  19
ATOM     19  C   UNL     1      -3.330  12.337  23.320  0.00  0.00    +0.000 C 
BRANCH  19  21
ATOM     20  O   UNL     1      -4.679  14.373  23.351  0.00  0.00    +0.000 OA
ATOM     21  C   UNL     1      -4.566  13.187  23.049  0.00  0.00    +0.000 C 
ATOM     22  N   UNL     1      -5.575  12.405  22.468  0.00  0.00    +0.000 N 
ATOM     23  H   UNL     1      -5.306  11.460  22.229  0.00  0.00    +0.000 HD
BRANCH  22  24
ATOM     24  C   UNL     1      -6.961  12.803  22.152  0.00  0.00    +0.000 C 
ATOM     25  C   UNL     1      -7.079  13.928  21.108  0.00  0.00    +0.000 C 
ATOM     26  C   UNL     1      -6.867  13.523  19.642  0.00  0.00    +0.000 C 
ATOM     27  C   UNL     1      -7.396  12.152  19.218  0.00  0.00    +0.000 C 
ATOM     28  C   UNL     1      -7.354  11.083  20.303  0.00  0.00    +0.000 C 
ATOM     29  C   UNL     1      -7.804  11.611  21.663  0.00  0.00    +0.000 C 
ENDBRANCH  22  24
ENDBRANCH  19  21
ENDBRANCH  18  19
ENDBRANCH   1  18
TORSDOF 4
ENDMDL
MODEL 5
REMARK VINA RESULT:      -7.8      2.120      3.674
REMARK  Name = 
REMARK  4 active torsions:
REMARK  status: ('A' for Active; 'I' for Inactive)
REMARK    1  A    between atoms: C_2  and  C_3
REMARK    2  A    between atoms: C_3  and  C_4
REMARK    3  A    between atoms: C_4  and  C_5
REMARK    4  A    between atoms: N_22  and  C_23
REMARK                            x       y       z     vdW  Elec       q    Type
REMARK                         _______ _______ _______ _____ _____    ______ ____
ROOT
ATOM      1  C   UNL     1       1.706  10.255  18.083  0.00  0.00    +0.000 C 
ATOM      2  O   UNL     1       2.613  10.929  17.580  0.00  0.00    +0.000 OA
ATOM      3  N   UNL     1       0.793  10.757  19.023  0.00  0.00    +0.000 N 
ATOM      4  C   UNL     1      -0.332   9.946  19.478  0.00  0.00    +0.000 C 
ATOM      5  C   UNL     1      -1.589  10.430  18.847  0.00  0.00    +0.000 A 
ATOM      6  C   UNL     1      -2.203   9.765  17.786  0.00  0.00    +0.000 A 
ATOM      7  C   UNL     1      -3.370  10.292  17.229  0.00  0.00    +0.000 A 
ATOM      8  C   UNL     1      -3.908  11.473  17.732  0.00  0.00    +0.000 A 
ATOM      9  C   UNL     1      -3.287  12.150  18.783  0.00  0.00    +0.000 A 
ATOM     10  C   UNL     1      -2.100  11.640  19.307  0.00  0.00    +0.000 A 
ATOM     11  O   UNL     1      -1.506  12.267  20.379  0.00  0.00    +0.000 OA
ATOM     12  C   UNL     1      -0.240  12.778  20.201  0.00  0.00    +0.000 A 
ATOM     13  N   UNL     1      -0.141  14.002  20.798  0.00  0.00    +0.000 NA
ATOM     14  C   UNL     1       1.025  14.670  20.707  0.00  0.00    +0.000 A 
ATOM     15  C   UNL     1       2.126  14.158  20.055  0.00  0.00    +0.000 A 
ATOM     16  C   UNL     1       2.026  12.886  19.481  0.00  0.00    +0.000 A 
ATOM     17  C   UNL     1       0.842  12.129  19.546  0.00  0.00    +0.000 A 
ENDROOT
BRANCH   1  18
ATOM     18  C   UNL     1       1.546   8.793  17.593  0.00  0.00    +0.000 C 
BRANCH  18  19
ATOM     19  C   UNL     1       2.724   7.981  18.134  0.00  0.00    +0.000 C 
BRANCH  19  21
ATOM     20  O   UNL     1       2.039   7.271  20.368  0.00  0.00    +0.000 OA
ATOM     21  C   UNL     1       2.547   6.996  19.284  0.00  0.00    +0.000 C 
ATOM     22  N   UNL     1       3.106   5.754  18.949  0.00  0.00    +0.000 N 
ATOM     23  H   UNL     1       3.434   5.671  17.996  0.00  0.00    +0.000 HD
BRANCH  22  24
ATOM     24  C   UNL     1       3.251   4.565  19.810  0.00  0.00    +0.000 C 
ATOM     25  C   UNL     1       2.069   4.321  20.766  0.00  0.00    +0.000 C 
ATOM     26  C   UNL     1       0.805   3.709  20.144  0.00  0.00    +0.000 C 
ATOM     27  C   UNL     1       1.008   2.667  19.043  0.00  0.00    +0.000 C 
ATOM     28  C   UNL     1       2.240   2.882  18.173  0.00  0.00    +0.000 C 
ATOM     29  C   UNL     1       3.468   3.282  18.986  0.00  0.00    +0.000 C 
ENDBRANCH  22  24
ENDBRANCH  19  21
ENDBRANCH  18  19
ENDBRANCH   1  18
TORSDOF 4
ENDMDL
MODEL 6
REMARK VINA RESULT:      -7.8      2.394      3.928
REMARK  Name = 
REMARK  4 active torsions:
REMARK  status: ('A' for Active; 'I' for Inactive)
REMARK    1  A    between atoms: C_2  and  C_3
REMARK    2  A    between atoms: C_3  and  C_4
REMARK    3  A    between atoms: C_4  and  C_5
REMARK    4  A    between atoms: N_22  and  C_23
REMARK                            x       y       z     vdW  Elec       q    Type
REMARK                         _______ _______ _______ _____ _____    ______ ____
ROOT
ATOM      1  C   UNL     1       1.302  10.524  18.261  0.00  0.00    +0.000 C 
ATOM      2  O   UNL     1       2.219  11.338  18.098  0.00  0.00    +0.000 OA
ATOM      3  N   UNL     1       0.110  10.819  18.940  0.00  0.00    +0.000 N 
ATOM      4  C   UNL     1      -0.984   9.854  18.982  0.00  0.00    +0.000 C 
ATOM      5  C   UNL     1      -2.071  10.285  18.062  0.00  0.00    +0.000 A 
ATOM      6  C   UNL     1      -2.282   9.694  16.817  0.00  0.00    +0.000 A 
ATOM      7  C   UNL     1      -3.307  10.167  15.997  0.00  0.00    +0.000 A 
ATOM      8  C   UNL     1      -4.109  11.222  16.425  0.00  0.00    +0.000 A 
ATOM      9  C   UNL     1      -3.890  11.827  17.664  0.00  0.00    +0.000 A 
ATOM     10  C   UNL     1      -2.839  11.376  18.460  0.00  0.00    +0.000 A 
ATOM     11  O   UNL     1      -2.646  11.927  19.706  0.00  0.00    +0.000 OA
ATOM     12  C   UNL     1      -1.455  12.576  19.943  0.00  0.00    +0.000 A 
ATOM     13  N   UNL     1      -1.679  13.725  20.647  0.00  0.00    +0.000 NA
ATOM     14  C   UNL     1      -0.627  14.508  20.952  0.00  0.00    +0.000 A 
ATOM     15  C   UNL     1       0.666  14.187  20.600  0.00  0.00    +0.000 A 
ATOM     16  C   UNL     1       0.889  12.989  19.914  0.00  0.00    +0.000 A 
ATOM     17  C   UNL     1      -0.161  12.117  19.572  0.00  0.00    +0.000 A 
ENDROOT
BRANCH   1  18
ATOM     18  C   UNL     1       1.469   9.121  17.621  0.00  0.00    +0.000 C 
BRANCH  18  19
ATOM     19  C   UNL     1       2.580   8.388  18.373  0.00  0.00    +0.000 C 
BRANCH  19  21
ATOM     20  O   UNL     1       1.686   7.571  20.495  0.00  0.00    +0.000 OA
ATOM     21  C   UNL     1       2.262   7.340  19.434  0.00  0.00    +0.000 C 
ATOM     22  N   UNL     1       2.780   6.093  19.055  0.00  0.00    +0.000 N 
ATOM     23  H   UNL     1       3.177   6.055  18.126  0.00  0.00    +0.000 HD
BRANCH  22  24
ATOM     24  C   UNL     1       2.795   4.842  19.839  0.00  0.00    +0.000 C 
ATOM     25  C   UNL     1       1.462   4.072  19.837  0.00  0.00    +0.000 C 
ATOM     26  C   UNL     1       1.141   3.268  18.569  0.00  0.00    +0.000 C 
ATOM     27  C   UNL     1       2.315   2.585  17.865  0.00  0.00    +0.000 C 
ATOM     28  C   UNL     1       3.643   3.324  17.965  0.00  0.00    +0.000 C 
ATOM     29  C   UNL     1       3.899   3.880  19.363  0.00  0.00    +0.000 C 
ENDBRANCH  22  24
ENDBRANCH  19  21
ENDBRANCH  18  19
ENDBRANCH   1  18
TORSDOF 4
ENDMDL
MODEL 7
REMARK VINA RESULT:      -7.8      1.924      3.508
REMARK  Name = 
REMARK  4 active torsions:
REMARK  status: ('A' for Active; 'I' for Inactive)
REMARK    1  A    between atoms: C_2  and  C_3
REMARK    2  A    between atoms: C_3  and  C_4
REMARK    3  A    between atoms: C_4  and  C_5
REMARK    4  A    between atoms: N_22  and  C_23
REMARK                            x       y       z     vdW  Elec       q    Type
REMARK                         _______ _______ _______ _____ _____    ______ ____
ROOT
ATOM      1  C   UNL     1       0.904   9.368  17.963  0.00  0.00    +0.000 C 
ATOM      2  O   UNL     1       0.321   8.652  17.141  0.00  0.00    +0.000 OA
ATOM      3  N   UNL     1       0.279  10.402  18.677  0.00  0.00    +0.000 N 
ATOM      4  C   UNL     1       0.993  11.123  19.727  0.00  0.00    +0.000 C 
ATOM      5  C   UNL     1       0.507  10.679  21.061  0.00  0.00    +0.000 A 
ATOM      6  C   UNL     1       1.234   9.812  21.876  0.00  0.00    +0.000 A 
ATOM      7  C   UNL     1       0.704   9.421  23.107  0.00  0.00    +0.000 A 
ATOM      8  C   UNL     1      -0.541   9.895  23.510  0.00  0.00    +0.000 A 
ATOM      9  C   UNL     1      -1.278  10.752  22.690  0.00  0.00    +0.000 A 
ATOM     10  C   UNL     1      -0.761  11.105  21.445  0.00  0.00    +0.000 A 
ATOM     11  O   UNL     1      -1.452  11.990  20.649  0.00  0.00    +0.000 OA
ATOM     12  C   UNL     1      -1.885  11.545  19.420  0.00  0.00    +0.000 A 
ATOM     13  N   UNL     1      -3.152  11.995  19.178  0.00  0.00    +0.000 NA
ATOM     14  C   UNL     1      -3.753  11.638  18.027  0.00  0.00    +0.000 A 
ATOM     15  C   UNL     1      -3.134  10.854  17.078  0.00  0.00    +0.000 A 
ATOM     16  C   UNL     1      -1.823  10.431  17.318  0.00  0.00    +0.000 A 
ATOM     17  C   UNL     1      -1.130  10.775  18.494  0.00  0.00    +0.000 A 
ENDROOT
BRANCH   1  18
ATOM     18  C   UNL     1       2.396   9.056  18.254  0.00  0.00    +0.000 C 
BRANCH  18  19
ATOM     19  C   UNL     1       2.800   7.850  17.405  0.00  0.00    +0.000 C 
BRANCH  19  21
ATOM     20  O   UNL     1       4.773   6.434  17.665  0.00  0.00    +0.000 OA
ATOM     21  C   UNL     1       3.619   6.706  17.991  0.00  0.00    +0.000 C 
ATOM     22  N   UNL     1       2.847   5.973  18.903  0.00  0.00    +0.000 N 
ATOM     23  H   UNL     1       1.934   6.360  19.105  0.00  0.00    +0.000 HD
BRANCH  22  24
ATOM     24  C   UNL     1       3.213   4.728  19.605  0.00  0.00    +0.000 C 
ATOM     25  C   UNL     1       2.314   4.385  20.806  0.00  0.00    +0.000 C 
ATOM     26  C   UNL     1       0.937   3.789  20.479  0.00  0.00    +0.000 C 
ATOM     27  C   UNL     1       0.860   2.835  19.286  0.00  0.00    +0.000 C 
ATOM     28  C   UNL     1       1.829   3.145  18.152  0.00  0.00    +0.000 C 
ATOM     29  C   UNL     1       3.222   3.515  18.657  0.00  0.00    +0.000 C 
ENDBRANCH  22  24
ENDBRANCH  19  21
ENDBRANCH  18  19
ENDBRANCH   1  18
TORSDOF 4
ENDMDL
MODEL 8
REMARK VINA RESULT:      -7.8      1.863      8.519
REMARK  Name = 
REMARK  4 active torsions:
REMARK  status: ('A' for Active; 'I' for Inactive)
REMARK    1  A    between atoms: C_2  and  C_3
REMARK    2  A    between atoms: C_3  and  C_4
REMARK    3  A    between atoms: C_4  and  C_5
REMARK    4  A    between atoms: N_22  and  C_23
REMARK                            x       y       z     vdW  Elec       q    Type
REMARK                         _______ _______ _______ _____ _____    ______ ____
ROOT
ATOM      1  C   UNL     1       2.904   7.373  18.036  0.00  0.00    +0.000 C 
ATOM      2  O   UNL     1       3.862   8.142  17.898  0.00  0.00    +0.000 OA
ATOM      3  N   UNL     1       2.944   6.011  17.698  0.00  0.00    +0.000 N 
ATOM      4  C   UNL     1       1.820   5.132  18.008  0.00  0.00    +0.000 C 
ATOM      5  C   UNL     1       2.163   4.268  19.170  0.00  0.00    +0.000 A 
ATOM      6  C   UNL     1       1.668   4.501  20.452  0.00  0.00    +0.000 A 
ATOM      7  C   UNL     1       2.051   3.662  21.500  0.00  0.00    +0.000 A 
ATOM      8  C   UNL     1       2.923   2.604  21.259  0.00  0.00    +0.000 A 
ATOM      9  C   UNL     1       3.434   2.377  19.979  0.00  0.00    +0.000 A 
ATOM     10  C   UNL     1       3.079   3.244  18.947  0.00  0.00    +0.000 A 
ATOM     11  O   UNL     1       3.531   3.001  17.670  0.00  0.00    +0.000 OA
ATOM     12  C   UNL     1       4.333   3.954  17.082  0.00  0.00    +0.000 A 
ATOM     13  N   UNL     1       5.360   3.353  16.412  0.00  0.00    +0.000 NA
ATOM     14  C   UNL     1       6.265   4.132  15.790  0.00  0.00    +0.000 A 
ATOM     15  C   UNL     1       6.184   5.508  15.786  0.00  0.00    +0.000 A 
ATOM     16  C   UNL     1       5.106   6.112  16.442  0.00  0.00    +0.000 A 
ATOM     17  C   UNL     1       4.118   5.359  17.103  0.00  0.00    +0.000 A 
ENDROOT
BRANCH   1  18
ATOM     18  C   UNL     1       1.611   7.946  18.672  0.00  0.00    +0.000 C 
BRANCH  18  19
ATOM     19  C   UNL     1       1.811   7.991  20.188  0.00  0.00    +0.000 C 
BRANCH  19  21
ATOM     20  O   UNL     1       1.040   9.001  22.274  0.00  0.00    +0.000 OA
ATOM     21  C   UNL     1       1.122   9.044  21.048  0.00  0.00    +0.000 C 
ATOM     22  N   UNL     1       0.542  10.030  20.237  0.00  0.00    +0.000 N 
ATOM     23  H   UNL     1       0.749   9.954  19.250  0.00  0.00    +0.000 HD
BRANCH  22  24
ATOM     24  C   UNL     1      -0.310  11.161  20.655  0.00  0.00    +0.000 C 
ATOM     25  C   UNL     1       0.433  12.502  20.792  0.00  0.00    +0.000 C 
ATOM     26  C   UNL     1       0.759  13.237  19.484  0.00  0.00    +0.000 C 
ATOM     27  C   UNL     1      -0.279  13.153  18.364  0.00  0.00    +0.000 C 
ATOM     28  C   UNL     1      -1.065  11.849  18.312  0.00  0.00    +0.000 C 
ATOM     29  C   UNL     1      -1.496  11.371  19.696  0.00  0.00    +0.000 C 
ENDBRANCH  22  24
ENDBRANCH  19  21
ENDBRANCH  18  19
ENDBRANCH   1  18
TORSDOF 4
ENDMDL
MODEL 9
REMARK VINA RESULT:      -7.8      6.675      8.498
REMARK  Name = 
REMARK  4 active torsions:
REMARK  status: ('A' for Active; 'I' for Inactive)
REMARK    1  A    between atoms: C_2  and  C_3
REMARK    2  A    between atoms: C_3  and  C_4
REMARK    3  A    between atoms: C_4  and  C_5
REMARK    4  A    between atoms: N_22  and  C_23
REMARK                            x       y       z     vdW  Elec       q    Type
REMARK                         _______ _______ _______ _____ _____    ______ ____
ROOT
ATOM      1  C   UNL     1       9.215  11.520  18.639  0.00  0.00    +0.000 C 
ATOM      2  O   UNL     1       8.722  11.862  17.557  0.00  0.00    +0.000 OA
ATOM      3  N   UNL     1       9.854  12.407  19.519  0.00  0.00    +0.000 N 
ATOM      4  C   UNL     1      10.297  11.961  20.837  0.00  0.00    +0.000 C 
ATOM      5  C   UNL     1       9.377  12.488  21.881  0.00  0.00    +0.000 A 
ATOM      6  C   UNL     1       8.415  11.695  22.504  0.00  0.00    +0.000 A 
ATOM      7  C   UNL     1       7.570  12.264  23.459  0.00  0.00    +0.000 A 
ATOM      8  C   UNL     1       7.693  13.613  23.780  0.00  0.00    +0.000 A 
ATOM      9  C   UNL     1       8.645  14.413  23.146  0.00  0.00    +0.000 A 
ATOM     10  C   UNL     1       9.457  13.848  22.164  0.00  0.00    +0.000 A 
ATOM     11  O   UNL     1      10.435  14.612  21.569  0.00  0.00    +0.000 OA
ATOM     12  C   UNL     1      10.350  14.818  20.211  0.00  0.00    +0.000 A 
ATOM     13  N   UNL     1      10.656  16.116  19.914  0.00  0.00    +0.000 NA
ATOM     14  C   UNL     1      10.602  16.511  18.628  0.00  0.00    +0.000 A 
ATOM     15  C   UNL     1      10.272  15.655  17.600  0.00  0.00    +0.000 A 
ATOM     16  C   UNL     1      10.000  14.319  17.910  0.00  0.00    +0.000 A 
ATOM     17  C   UNL     1      10.046  13.834  19.231  0.00  0.00    +0.000 A 
ENDROOT
BRANCH   1  18
ATOM     18  C   UNL     1       9.057  10.035  19.059  0.00  0.00    +0.000 C 
BRANCH  18  19
ATOM     19  C   UNL     1       8.312   9.304  17.941  0.00  0.00    +0.000 C 
BRANCH  19  21
ATOM     20  O   UNL     1       8.469   7.044  18.854  0.00  0.00    +0.000 OA
ATOM     21  C   UNL     1       7.952   7.828  18.060  0.00  0.00    +0.000 C 
ATOM     22  N   UNL     1       6.999   7.480  17.092  0.00  0.00    +0.000 N 
ATOM     23  H   UNL     1       6.631   8.252  16.552  0.00  0.00    +0.000 HD
BRANCH  22  24
ATOM     24  C   UNL     1       6.466   6.139  16.787  0.00  0.00    +0.000 C 
ATOM     25  C   UNL     1       6.522   5.147  17.963  0.00  0.00    +0.000 C 
ATOM     26  C   UNL     1       5.452   5.320  19.051  0.00  0.00    +0.000 C 
ATOM     27  C   UNL     1       4.056   5.740  18.591  0.00  0.00    +0.000 C 
ATOM     28  C   UNL     1       4.028   6.646  17.366  0.00  0.00    +0.000 C 
ATOM     29  C   UNL     1       5.011   6.199  16.286  0.00  0.00    +0.000 C 
ENDBRANCH  22  24
ENDBRANCH  19  21
ENDBRANCH  18  19
ENDBRANCH   1  18
TORSDOF 4
ENDMDL
