MODEL 1
REMARK VINA RESULT:      -7.0      0.000      0.000
REMARK  Name = 
REMARK  11 active torsions:
REMARK  status: ('A' for Active; 'I' for Inactive)
REMARK    1  A    between atoms: C_1  and  C_2
REMARK    2  A    between atoms: C_2  and  N_3
REMARK    3  A    between atoms: N_3  and  C_4
REMARK    4  A    between atoms: C_4  and  N_6
REMARK    5  A    between atoms: N_6  and  N_7
REMARK    6  A    between atoms: C_8  and  C_10
REMARK    7  A    between atoms: C_10  and  C_11
REMARK    8  A    between atoms: C_10  and  C_12
REMARK    9  A    between atoms: C_10  and  O_13
REMARK   10  A    between atoms: O_13  and  C_14
REMARK   11  A    between atoms: C_18  and  C_19
REMARK                            x       y       z     vdW  Elec       q    Type
REMARK                         _______ _______ _______ _____ _____    ______ ____
ROOT
ATOM      1  N   UNL     1       5.609   4.075  18.894  0.00  0.00    +0.000 N 
ATOM      2  C   UNL     1       4.360   3.737  18.398  0.00  0.00    +0.000 C 
ATOM      3  O   UNL     1       4.240   3.174  17.309  0.00  0.00    +0.000 OA
ATOM      4  H   UNL     1       5.720   4.803  19.592  0.00  0.00    +0.000 HD
ENDROOT
BRANCH   2   5
ATOM      5  C   UNL     1       3.142   4.083  19.330  0.00  0.00    +0.000 C 
ATOM      6  C   UNL     1       1.842   4.069  18.502  0.00  0.00    +0.000 C 
ATOM      7  C   UNL     1       3.156   3.006  20.429  0.00  0.00    +0.000 C 
BRANCH   5   8
ATOM      8  O   UNL     1       3.428   5.402  19.852  0.00  0.00    +0.000 OA
BRANCH   8   9
ATOM      9  C   UNL     1       2.881   6.543  19.355  0.00  0.00    +0.000 A 
ATOM     10  C   UNL     1       3.087   7.085  18.083  0.00  0.00    +0.000 A 
ATOM     11  C   UNL     1       2.513   8.300  17.707  0.00  0.00    +0.000 A 
ATOM     12  C   UNL     1       1.695   8.990  18.593  0.00  0.00    +0.000 A 
ATOM     13  C   UNL     1       1.437   8.464  19.860  0.00  0.00    +0.000 A 
ATOM     14  C   UNL     1       0.507   9.185  20.793  0.00  0.00    +0.000 C 
ATOM     15  C   UNL     1       2.046   7.247  20.235  0.00  0.00    +0.000 A 
ENDBRANCH   8   9
ENDBRANCH   5   8
ENDBRANCH   2   5
BRANCH   1  16
ATOM     16  N   UNL     1       6.748   3.887  18.093  0.00  0.00    +0.000 N 
ATOM     17  H   UNL     1       6.970   2.937  17.792  0.00  0.00    +0.000 HD
BRANCH  16  18
ATOM     18  C   UNL     1       7.308   4.980  17.463  0.00  0.00    +0.000 C 
ATOM     19  S   UNL     1       7.498   6.421  18.268  0.00  0.00    +0.000 S 
BRANCH  18  20
ATOM     20  N   UNL     1       7.709   4.691  16.176  0.00  0.00    +0.000 N 
ATOM     21  H   UNL     1       8.453   4.001  16.168  0.00  0.00    +0.000 HD
BRANCH  20  23
ATOM     22  C   UNL     1       5.636   5.560  15.247  0.00  0.00    +0.000 C 
ATOM     23  C   UNL     1       6.899   4.765  14.972  0.00  0.00    +0.000 C 
ENDBRANCH  20  23
ENDBRANCH  18  20
ENDBRANCH  16  18
ENDBRANCH   1  16
TORSDOF 7
ENDMDL
MODEL 2
REMARK VINA RESULT:      -7.0      3.208      6.773
REMARK  Name = 
REMARK  11 active torsions:
REMARK  status: ('A' for Active; 'I' for Inactive)
REMARK    1  A    between atoms: C_1  and  C_2
REMARK    2  A    between atoms: C_2  and  N_3
REMARK    3  A    between atoms: N_3  and  C_4
REMARK    4  A    between atoms: C_4  and  N_6
REMARK    5  A    between atoms: N_6  and  N_7
REMARK    6  A    between atoms: C_8  and  C_10
REMARK    7  A    between atoms: C_10  and  C_11
REMARK    8  A    between atoms: C_10  and  C_12
REMARK    9  A    between atoms: C_10  and  O_13
REMARK   10  A    between atoms: O_13  and  C_14
REMARK   11  A    between atoms: C_18  and  C_19
REMARK                            x       y       z     vdW  Elec       q    Type
REMARK                         _______ _______ _______ _____ _____    ______ ____
ROOT
ATOM      1  N   UNL     1       5.504   3.700  18.067  0.00  0.00    +0.000 N 
ATOM      2  C   UNL     1       5.739   5.063  18.135  0.00  0.00    +0.000 C 
ATOM      3  O   UNL     1       5.525   5.693  19.173  0.00  0.00    +0.000 OA
ATOM      4  H   UNL     1       5.356   3.234  17.177  0.00  0.00    +0.000 HD
ENDROOT
BRANCH   2   5
ATOM      5  C   UNL     1       6.324   5.719  16.832  0.00  0.00    +0.000 C 
ATOM      6  C   UNL     1       5.188   6.402  16.046  0.00  0.00    +0.000 C 
ATOM      7  C   UNL     1       7.386   6.718  17.325  0.00  0.00    +0.000 C 
BRANCH   5   8
ATOM      8  O   UNL     1       6.907   4.624  16.087  0.00  0.00    +0.000 OA
BRANCH   8   9
ATOM      9  C   UNL     1       7.053   4.629  14.735  0.00  0.00    +0.000 A 
ATOM     10  C   UNL     1       7.931   5.422  13.991  0.00  0.00    +0.000 A 
ATOM     11  C   UNL     1       7.948   5.380  12.596  0.00  0.00    +0.000 A 
ATOM     12  C   UNL     1       7.099   4.518  11.914  0.00  0.00    +0.000 A 
ATOM     13  C   UNL     1       6.232   3.684  12.622  0.00  0.00    +0.000 A 
ATOM     14  C   UNL     1       5.356   2.714  11.882  0.00  0.00    +0.000 C 
ATOM     15  C   UNL     1       6.208   3.758  14.031  0.00  0.00    +0.000 A 
ENDBRANCH   8   9
ENDBRANCH   5   8
ENDBRANCH   2   5
BRANCH   1  16
ATOM     16  N   UNL     1       4.897   3.044  19.151  0.00  0.00    +0.000 N 
ATOM     17  H   UNL     1       5.475   2.831  19.965  0.00  0.00    +0.000 HD
BRANCH  16  18
ATOM     18  C   UNL     1       3.520   3.028  19.235  0.00  0.00    +0.000 C 
ATOM     19  S   UNL     1       2.619   2.042  18.247  0.00  0.00    +0.000 S 
BRANCH  18  20
ATOM     20  N   UNL     1       3.049   3.853  20.233  0.00  0.00    +0.000 N 
ATOM     21  H   UNL     1       3.534   4.745  20.234  0.00  0.00    +0.000 HD
BRANCH  20  23
ATOM     22  C   UNL     1       1.540   2.660  21.722  0.00  0.00    +0.000 C 
ATOM     23  C   UNL     1       1.713   3.857  20.806  0.00  0.00    +0.000 C 
ENDBRANCH  20  23
ENDBRANCH  18  20
ENDBRANCH  16  18
ENDBRANCH   1  16
TORSDOF 7
ENDMDL
MODEL 3
REMARK VINA RESULT:      -7.0      3.132      6.307
REMARK  Name = 
REMARK  11 active torsions:
REMARK  status: ('A' for Active; 'I' for Inactive)
REMARK    1  A    between atoms: C_1  and  C_2
REMARK    2  A    between atoms: C_2  and  N_3
REMARK    3  A    between atoms: N_3  and  C_4
REMARK    4  A    between atoms: C_4  and  N_6
REMARK    5  A    between atoms: N_6  and  N_7
REMARK    6  A    between atoms: C_8  and  C_10
REMARK    7  A    between atoms: C_10  and  C_11
REMARK    8  A    between atoms: C_10  and  C_12
REMARK    9  A    between atoms: C_10  and  O_13
REMARK   10  A    between atoms: O_13  and  C_14
REMARK   11  A    between atoms: C_18  and  C_19
REMARK                            x       y       z     vdW  Elec       q    Type
REMARK                         _______ _______ _______ _____ _____    ______ ____
ROOT
ATOM      1  N   UNL     1       5.446   3.431  18.641  0.00  0.00    +0.000 N 
ATOM      2  C   UNL     1       5.408   4.811  18.524  0.00  0.00    +0.000 C 
ATOM      3  O   UNL     1       4.984   5.516  19.442  0.00  0.00    +0.000 OA
ATOM      4  H   UNL     1       5.472   2.833  17.822  0.00  0.00    +0.000 HD
ENDROOT
BRANCH   2   5
ATOM      5  C   UNL     1       5.974   5.396  17.179  0.00  0.00    +0.000 C 
ATOM      6  C   UNL     1       4.949   6.374  16.573  0.00  0.00    +0.000 C 
ATOM      7  C   UNL     1       7.296   6.084  17.562  0.00  0.00    +0.000 C 
BRANCH   5   8
ATOM      8  O   UNL     1       6.183   4.246  16.326  0.00  0.00    +0.000 OA
BRANCH   8   9
ATOM      9  C   UNL     1       6.506   4.336  15.008  0.00  0.00    +0.000 A 
ATOM     10  C   UNL     1       7.584   5.034  14.456  0.00  0.00    +0.000 A 
ATOM     11  C   UNL     1       7.779   5.102  13.076  0.00  0.00    +0.000 A 
ATOM     12  C   UNL     1       6.908   4.448  12.215  0.00  0.00    +0.000 A 
ATOM     13  C   UNL     1       5.839   3.711  12.728  0.00  0.00    +0.000 A 
ATOM     14  C   UNL     1       4.933   2.959  11.796  0.00  0.00    +0.000 C 
ATOM     15  C   UNL     1       5.640   3.673  14.125  0.00  0.00    +0.000 A 
ENDBRANCH   8   9
ENDBRANCH   5   8
ENDBRANCH   2   5
BRANCH   1  16
ATOM     16  N   UNL     1       4.880   2.815  19.769  0.00  0.00    +0.000 N 
ATOM     17  H   UNL     1       5.445   2.757  20.617  0.00  0.00    +0.000 HD
BRANCH  16  18
ATOM     18  C   UNL     1       3.512   2.634  19.815  0.00  0.00    +0.000 C 
ATOM     19  S   UNL     1       2.683   2.768  21.249  0.00  0.00    +0.000 S 
BRANCH  18  20
ATOM     20  N   UNL     1       2.976   2.400  18.567  0.00  0.00    +0.000 N 
ATOM     21  H   UNL     1       3.324   1.532  18.173  0.00  0.00    +0.000 HD
BRANCH  20  23
ATOM     22  C   UNL     1       1.727   4.342  17.801  0.00  0.00    +0.000 C 
ATOM     23  C   UNL     1       1.686   2.849  18.073  0.00  0.00    +0.000 C 
ENDBRANCH  20  23
ENDBRANCH  18  20
ENDBRANCH  16  18
ENDBRANCH   1  16
TORSDOF 7
ENDMDL
MODEL 4
REMARK VINA RESULT:      -6.8      1.808      2.468
REMARK  Name = 
REMARK  11 active torsions:
REMARK  status: ('A' for Active; 'I' for Inactive)
REMARK    1  A    between atoms: C_1  and  C_2
REMARK    2  A    between atoms: C_2  and  N_3
REMARK    3  A    between atoms: N_3  and  C_4
REMARK    4  A    between atoms: C_4  and  N_6
REMARK    5  A    between atoms: N_6  and  N_7
REMARK    6  A    between atoms: C_8  and  C_10
REMARK    7  A    between atoms: C_10  and  C_11
REMARK    8  A    between atoms: C_10  and  C_12
REMARK    9  A    between atoms: C_10  and  O_13
REMARK   10  A    between atoms: O_13  and  C_14
REMARK   11  A    between atoms: C_18  and  C_19
REMARK                            x       y       z     vdW  Elec       q    Type
REMARK                         _______ _______ _______ _____ _____    ______ ____
ROOT
ATOM      1  N   UNL     1       5.387   3.463  17.288  0.00  0.00    +0.000 N 
ATOM      2  C   UNL     1       4.908   3.596  18.581  0.00  0.00    +0.000 C 
ATOM      3  O   UNL     1       5.531   4.240  19.427  0.00  0.00    +0.000 OA
ATOM      4  H   UNL     1       5.086   2.700  16.690  0.00  0.00    +0.000 HD
ENDROOT
BRANCH   2   5
ATOM      5  C   UNL     1       3.520   2.915  18.866  0.00  0.00    +0.000 C 
ATOM      6  C   UNL     1       3.427   1.591  18.082  0.00  0.00    +0.000 C 
ATOM      7  C   UNL     1       3.479   2.705  20.390  0.00  0.00    +0.000 C 
BRANCH   5   8
ATOM      8  O   UNL     1       2.530   3.871  18.418  0.00  0.00    +0.000 OA
BRANCH   8   9
ATOM      9  C   UNL     1       2.331   5.079  19.008  0.00  0.00    +0.000 A 
ATOM     10  C   UNL     1       1.959   5.311  20.336  0.00  0.00    +0.000 A 
ATOM     11  C   UNL     1       1.725   6.601  20.813  0.00  0.00    +0.000 A 
ATOM     12  C   UNL     1       1.883   7.695  19.972  0.00  0.00    +0.000 A 
ATOM     13  C   UNL     1       2.287   7.508  18.650  0.00  0.00    +0.000 A 
ATOM     14  C   UNL     1       2.512   8.698  17.761  0.00  0.00    +0.000 C 
ATOM     15  C   UNL     1       2.494   6.195  18.175  0.00  0.00    +0.000 A 
ENDBRANCH   8   9
ENDBRANCH   5   8
ENDBRANCH   2   5
BRANCH   1  16
ATOM     16  N   UNL     1       6.661   3.961  16.965  0.00  0.00    +0.000 N 
ATOM     17  H   UNL     1       7.468   3.551  17.436  0.00  0.00    +0.000 HD
BRANCH  16  18
ATOM     18  C   UNL     1       6.814   4.704  15.813  0.00  0.00    +0.000 C 
ATOM     19  S   UNL     1       6.185   4.175  14.369  0.00  0.00    +0.000 S 
BRANCH  18  20
ATOM     20  N   UNL     1       7.470   5.894  16.044  0.00  0.00    +0.000 N 
ATOM     21  H   UNL     1       7.696   6.366  15.175  0.00  0.00    +0.000 HD
BRANCH  20  23
ATOM     22  C   UNL     1       5.929   7.279  17.319  0.00  0.00    +0.000 C 
ATOM     23  C   UNL     1       7.346   6.746  17.214  0.00  0.00    +0.000 C 
ENDBRANCH  20  23
ENDBRANCH  18  20
ENDBRANCH  16  18
ENDBRANCH   1  16
TORSDOF 7
ENDMDL
MODEL 5
REMARK VINA RESULT:      -6.7      1.405      1.751
REMARK  Name = 
REMARK  11 active torsions:
REMARK  status: ('A' for Active; 'I' for Inactive)
REMARK    1  A    between atoms: C_1  and  C_2
REMARK    2  A    between atoms: C_2  and  N_3
REMARK    3  A    between atoms: N_3  and  C_4
REMARK    4  A    between atoms: C_4  and  N_6
REMARK    5  A    between atoms: N_6  and  N_7
REMARK    6  A    between atoms: C_8  and  C_10
REMARK    7  A    between atoms: C_10  and  C_11
REMARK    8  A    between atoms: C_10  and  C_12
REMARK    9  A    between atoms: C_10  and  O_13
REMARK   10  A    between atoms: O_13  and  C_14
REMARK   11  A    between atoms: C_18  and  C_19
REMARK                            x       y       z     vdW  Elec       q    Type
REMARK                         _______ _______ _______ _____ _____    ______ ____
ROOT
ATOM      1  N   UNL     1       4.447   4.098  17.764  0.00  0.00    +0.000 N 
ATOM      2  C   UNL     1       4.101   3.718  19.051  0.00  0.00    +0.000 C 
ATOM      3  O   UNL     1       4.776   2.896  19.673  0.00  0.00    +0.000 OA
ATOM      4  H   UNL     1       3.762   4.496  17.130  0.00  0.00    +0.000 HD
ENDROOT
BRANCH   2   5
ATOM      5  C   UNL     1       2.837   4.431  19.655  0.00  0.00    +0.000 C 
ATOM      6  C   UNL     1       1.693   4.408  18.623  0.00  0.00    +0.000 C 
ATOM      7  C   UNL     1       2.500   3.641  20.932  0.00  0.00    +0.000 C 
BRANCH   5   8
ATOM      8  O   UNL     1       3.268   5.782  19.944  0.00  0.00    +0.000 OA
BRANCH   8   9
ATOM      9  C   UNL     1       2.673   6.888  19.424  0.00  0.00    +0.000 A 
ATOM     10  C   UNL     1       2.821   7.386  18.126  0.00  0.00    +0.000 A 
ATOM     11  C   UNL     1       2.203   8.570  17.724  0.00  0.00    +0.000 A 
ATOM     12  C   UNL     1       1.398   9.273  18.612  0.00  0.00    +0.000 A 
ATOM     13  C   UNL     1       1.197   8.791  19.906  0.00  0.00    +0.000 A 
ATOM     14  C   UNL     1       0.281   9.524  20.844  0.00  0.00    +0.000 C 
ATOM     15  C   UNL     1       1.851   7.605  20.305  0.00  0.00    +0.000 A 
ENDBRANCH   8   9
ENDBRANCH   5   8
ENDBRANCH   2   5
BRANCH   1  16
ATOM     16  N   UNL     1       5.507   3.449  17.110  0.00  0.00    +0.000 N 
ATOM     17  H   UNL     1       5.490   2.429  17.066  0.00  0.00    +0.000 HD
BRANCH  16  18
ATOM     18  C   UNL     1       6.321   4.181  16.270  0.00  0.00    +0.000 C 
ATOM     19  S   UNL     1       5.750   4.752  14.817  0.00  0.00    +0.000 S 
BRANCH  18  20
ATOM     20  N   UNL     1       7.569   4.397  16.811  0.00  0.00    +0.000 N 
ATOM     21  H   UNL     1       8.227   4.715  16.107  0.00  0.00    +0.000 HD
BRANCH  20  23
ATOM     22  C   UNL     1       7.586   6.253  18.384  0.00  0.00    +0.000 C 
ATOM     23  C   UNL     1       7.873   4.777  18.180  0.00  0.00    +0.000 C 
ENDBRANCH  20  23
ENDBRANCH  18  20
ENDBRANCH  16  18
ENDBRANCH   1  16
TORSDOF 7
ENDMDL
MODEL 6
REMARK VINA RESULT:      -6.7      3.142      4.274
REMARK  Name = 
REMARK  11 active torsions:
REMARK  status: ('A' for Active; 'I' for Inactive)
REMARK    1  A    between atoms: C_1  and  C_2
REMARK    2  A    between atoms: C_2  and  N_3
REMARK    3  A    between atoms: N_3  and  C_4
REMARK    4  A    between atoms: C_4  and  N_6
REMARK    5  A    between atoms: N_6  and  N_7
REMARK    6  A    between atoms: C_8  and  C_10
REMARK    7  A    between atoms: C_10  and  C_11
REMARK    8  A    between atoms: C_10  and  C_12
REMARK    9  A    between atoms: C_10  and  O_13
REMARK   10  A    between atoms: O_13  and  C_14
REMARK   11  A    between atoms: C_18  and  C_19
REMARK                            x       y       z     vdW  Elec       q    Type
REMARK                         _______ _______ _______ _____ _____    ______ ____
ROOT
ATOM      1  N   UNL     1       6.842   5.372  15.732  0.00  0.00    +0.000 N 
ATOM      2  C   UNL     1       7.066   4.834  16.989  0.00  0.00    +0.000 C 
ATOM      3  O   UNL     1       8.113   4.238  17.248  0.00  0.00    +0.000 OA
ATOM      4  H   UNL     1       5.902   5.564  15.401  0.00  0.00    +0.000 HD
ENDROOT
BRANCH   2   5
ATOM      5  C   UNL     1       5.926   5.073  18.045  0.00  0.00    +0.000 C 
ATOM      6  C   UNL     1       6.554   5.402  19.413  0.00  0.00    +0.000 C 
ATOM      7  C   UNL     1       5.091   6.236  17.481  0.00  0.00    +0.000 C 
BRANCH   5   8
ATOM      8  O   UNL     1       5.181   3.833  18.084  0.00  0.00    +0.000 OA
BRANCH   8   9
ATOM      9  C   UNL     1       3.861   3.758  18.403  0.00  0.00    +0.000 A 
ATOM     10  C   UNL     1       2.780   3.882  17.525  0.00  0.00    +0.000 A 
ATOM     11  C   UNL     1       1.462   3.846  17.982  0.00  0.00    +0.000 A 
ATOM     12  C   UNL     1       1.197   3.659  19.333  0.00  0.00    +0.000 A 
ATOM     13  C   UNL     1       2.248   3.495  20.236  0.00  0.00    +0.000 A 
ATOM     14  C   UNL     1       1.956   3.236  21.686  0.00  0.00    +0.000 C 
ATOM     15  C   UNL     1       3.576   3.560  19.762  0.00  0.00    +0.000 A 
ENDBRANCH   8   9
ENDBRANCH   5   8
ENDBRANCH   2   5
BRANCH   1  16
ATOM     16  N   UNL     1       7.764   5.131  14.700  0.00  0.00    +0.000 N 
ATOM     17  H   UNL     1       8.705   4.833  14.959  0.00  0.00    +0.000 HD
BRANCH  16  18
ATOM     18  C   UNL     1       7.295   4.961  13.413  0.00  0.00    +0.000 C 
ATOM     19  S   UNL     1       7.956   5.812  12.148  0.00  0.00    +0.000 S 
BRANCH  18  20
ATOM     20  N   UNL     1       6.306   4.004  13.341  0.00  0.00    +0.000 N 
ATOM     21  H   UNL     1       5.515   4.245  13.928  0.00  0.00    +0.000 HD
BRANCH  20  23
ATOM     22  C   UNL     1       4.584   3.330  11.760  0.00  0.00    +0.000 C 
ATOM     23  C   UNL     1       6.018   3.130  12.217  0.00  0.00    +0.000 C 
ENDBRANCH  20  23
ENDBRANCH  18  20
ENDBRANCH  16  18
ENDBRANCH   1  16
TORSDOF 7
ENDMDL
MODEL 7
REMARK VINA RESULT:      -6.7      1.417      2.113
REMARK  Name = 
REMARK  11 active torsions:
REMARK  status: ('A' for Active; 'I' for Inactive)
REMARK    1  A    between atoms: C_1  and  C_2
REMARK    2  A    between atoms: C_2  and  N_3
REMARK    3  A    between atoms: N_3  and  C_4
REMARK    4  A    between atoms: C_4  and  N_6
REMARK    5  A    between atoms: N_6  and  N_7
REMARK    6  A    between atoms: C_8  and  C_10
REMARK    7  A    between atoms: C_10  and  C_11
REMARK    8  A    between atoms: C_10  and  C_12
REMARK    9  A    between atoms: C_10  and  O_13
REMARK   10  A    between atoms: O_13  and  C_14
REMARK   11  A    between atoms: C_18  and  C_19
REMARK                            x       y       z     vdW  Elec       q    Type
REMARK                         _______ _______ _______ _____ _____    ______ ____
ROOT
ATOM      1  N   UNL     1       5.359   3.779  17.382  0.00  0.00    +0.000 N 
ATOM      2  C   UNL     1       4.891   3.710  18.684  0.00  0.00    +0.000 C 
ATOM      3  O   UNL     1       5.523   4.214  19.614  0.00  0.00    +0.000 OA
ATOM      4  H   UNL     1       5.051   3.118  16.676  0.00  0.00    +0.000 HD
ENDROOT
BRANCH   2   5
ATOM      5  C   UNL     1       3.505   2.993  18.873  0.00  0.00    +0.000 C 
ATOM      6  C   UNL     1       3.474   1.705  18.027  0.00  0.00    +0.000 C 
ATOM      7  C   UNL     1       3.398   2.713  20.382  0.00  0.00    +0.000 C 
BRANCH   5   8
ATOM      8  O   UNL     1       2.519   3.951  18.422  0.00  0.00    +0.000 OA
BRANCH   8   9
ATOM      9  C   UNL     1       2.320   5.160  19.013  0.00  0.00    +0.000 A 
ATOM     10  C   UNL     1       1.928   5.391  20.335  0.00  0.00    +0.000 A 
ATOM     11  C   UNL     1       1.698   6.681  20.813  0.00  0.00    +0.000 A 
ATOM     12  C   UNL     1       1.880   7.777  19.978  0.00  0.00    +0.000 A 
ATOM     13  C   UNL     1       2.304   7.590  18.661  0.00  0.00    +0.000 A 
ATOM     14  C   UNL     1       2.555   8.780  17.780  0.00  0.00    +0.000 C 
ATOM     15  C   UNL     1       2.508   6.277  18.186  0.00  0.00    +0.000 A 
ENDBRANCH   8   9
ENDBRANCH   5   8
ENDBRANCH   2   5
BRANCH   1  16
ATOM     16  N   UNL     1       6.630   4.320  17.129  0.00  0.00    +0.000 N 
ATOM     17  H   UNL     1       7.429   3.686  17.127  0.00  0.00    +0.000 HD
BRANCH  16  18
ATOM     18  C   UNL     1       6.719   5.575  16.560  0.00  0.00    +0.000 C 
ATOM     19  S   UNL     1       7.281   6.869  17.438  0.00  0.00    +0.000 S 
BRANCH  18  20
ATOM     20  N   UNL     1       6.352   5.572  15.232  0.00  0.00    +0.000 N 
ATOM     21  H   UNL     1       5.928   6.454  14.965  0.00  0.00    +0.000 HD
BRANCH  20  23
ATOM     22  C   UNL     1       5.948   3.879  13.532  0.00  0.00    +0.000 C 
ATOM     23  C   UNL     1       6.968   4.813  14.157  0.00  0.00    +0.000 C 
ENDBRANCH  20  23
ENDBRANCH  18  20
ENDBRANCH  16  18
ENDBRANCH   1  16
TORSDOF 7
ENDMDL
MODEL 8
REMARK VINA RESULT:      -6.5      1.416      1.511
REMARK  Name = 
REMARK  11 active torsions:
REMARK  status: ('A' for Active; 'I' for Inactive)
REMARK    1  A    between atoms: C_1  and  C_2
REMARK    2  A    between atoms: C_2  and  N_3
REMARK    3  A    between atoms: N_3  and  C_4
REMARK    4  A    between atoms: C_4  and  N_6
REMARK    5  A    between atoms: N_6  and  N_7
REMARK    6  A    between atoms: C_8  and  C_10
REMARK    7  A    between atoms: C_10  and  C_11
REMARK    8  A    between atoms: C_10  and  C_12
REMARK    9  A    between atoms: C_10  and  O_13
REMARK   10  A    between atoms: O_13  and  C_14
REMARK   11  A    between atoms: C_18  and  C_19
REMARK                            x       y       z     vdW  Elec       q    Type
REMARK                         _______ _______ _______ _____ _____    ______ ____
ROOT
ATOM      1  N   UNL     1       4.133   3.845  17.649  0.00  0.00    +0.000 N 
ATOM      2  C   UNL     1       4.040   3.671  19.020  0.00  0.00    +0.000 C 
ATOM      3  O   UNL     1       4.915   3.068  19.645  0.00  0.00    +0.000 OA
ATOM      4  H   UNL     1       3.311   4.031  17.084  0.00  0.00    +0.000 HD
ENDROOT
BRANCH   2   5
ATOM      5  C   UNL     1       2.785   4.323  19.706  0.00  0.00    +0.000 C 
ATOM      6  C   UNL     1       1.602   4.323  18.718  0.00  0.00    +0.000 C 
ATOM      7  C   UNL     1       2.514   3.464  20.954  0.00  0.00    +0.000 C 
BRANCH   5   8
ATOM      8  O   UNL     1       3.196   5.668  20.046  0.00  0.00    +0.000 OA
BRANCH   8   9
ATOM      9  C   UNL     1       2.664   6.784  19.478  0.00  0.00    +0.000 A 
ATOM     10  C   UNL     1       2.885   7.247  18.178  0.00  0.00    +0.000 A 
ATOM     11  C   UNL     1       2.326   8.444  17.726  0.00  0.00    +0.000 A 
ATOM     12  C   UNL     1       1.510   9.193  18.564  0.00  0.00    +0.000 A 
ATOM     13  C   UNL     1       1.238   8.746  19.858  0.00  0.00    +0.000 A 
ATOM     14  C   UNL     1       0.310   9.531  20.740  0.00  0.00    +0.000 C 
ATOM     15  C   UNL     1       1.831   7.548  20.308  0.00  0.00    +0.000 A 
ENDBRANCH   8   9
ENDBRANCH   5   8
ENDBRANCH   2   5
BRANCH   1  16
ATOM     16  N   UNL     1       5.172   3.220  16.939  0.00  0.00    +0.000 N 
ATOM     17  H   UNL     1       5.117   2.211  16.799  0.00  0.00    +0.000 HD
BRANCH  16  18
ATOM     18  C   UNL     1       6.018   3.997  16.174  0.00  0.00    +0.000 C 
ATOM     19  S   UNL     1       7.199   4.924  16.886  0.00  0.00    +0.000 S 
BRANCH  18  20
ATOM     20  N   UNL     1       5.784   3.848  14.824  0.00  0.00    +0.000 N 
ATOM     21  H   UNL     1       4.790   3.852  14.619  0.00  0.00    +0.000 HD
BRANCH  20  23
ATOM     22  C   UNL     1       6.268   3.529  12.462  0.00  0.00    +0.000 C 
ATOM     23  C   UNL     1       6.657   4.254  13.737  0.00  0.00    +0.000 C 
ENDBRANCH  20  23
ENDBRANCH  18  20
ENDBRANCH  16  18
ENDBRANCH   1  16
TORSDOF 7
ENDMDL
MODEL 9
REMARK VINA RESULT:      -6.5      3.105      5.717
REMARK  Name = 
REMARK  11 active torsions:
REMARK  status: ('A' for Active; 'I' for Inactive)
REMARK    1  A    between atoms: C_1  and  C_2
REMARK    2  A    between atoms: C_2  and  N_3
REMARK    3  A    between atoms: N_3  and  C_4
REMARK    4  A    between atoms: C_4  and  N_6
REMARK    5  A    between atoms: N_6  and  N_7
REMARK    6  A    between atoms: C_8  and  C_10
REMARK    7  A    between atoms: C_10  and  C_11
REMARK    8  A    between atoms: C_10  and  C_12
REMARK    9  A    between atoms: C_10  and  O_13
REMARK   10  A    between atoms: O_13  and  C_14
REMARK   11  A    between atoms: C_18  and  C_19
REMARK                            x       y       z     vdW  Elec       q    Type
REMARK                         _______ _______ _______ _____ _____    ______ ____
ROOT
ATOM      1  N   UNL     1       2.498   6.262  20.039  0.00  0.00    +0.000 N 
ATOM      2  C   UNL     1       2.050   4.972  19.807  0.00  0.00    +0.000 C 
ATOM      3  O   UNL     1       1.068   4.524  20.400  0.00  0.00    +0.000 OA
ATOM      4  H   UNL     1       3.454   6.534  19.830  0.00  0.00    +0.000 HD
ENDROOT
BRANCH   2   5
ATOM      5  C   UNL     1       2.848   4.159  18.724  0.00  0.00    +0.000 C 
ATOM      6  C   UNL     1       4.070   3.488  19.383  0.00  0.00    +0.000 C 
ATOM      7  C   UNL     1       1.843   3.137  18.164  0.00  0.00    +0.000 C 
BRANCH   5   8
ATOM      8  O   UNL     1       3.245   5.136  17.734  0.00  0.00    +0.000 OA
BRANCH   8   9
ATOM      9  C   UNL     1       4.468   5.151  17.139  0.00  0.00    +0.000 A 
ATOM     10  C   UNL     1       4.934   4.268  16.161  0.00  0.00    +0.000 A 
ATOM     11  C   UNL     1       6.236   4.348  15.667  0.00  0.00    +0.000 A 
ATOM     12  C   UNL     1       7.098   5.336  16.127  0.00  0.00    +0.000 A 
ATOM     13  C   UNL     1       6.659   6.258  17.078  0.00  0.00    +0.000 A 
ATOM     14  C   UNL     1       7.575   7.359  17.531  0.00  0.00    +0.000 C 
ATOM     15  C   UNL     1       5.347   6.148  17.587  0.00  0.00    +0.000 A 
ENDBRANCH   8   9
ENDBRANCH   5   8
ENDBRANCH   2   5
BRANCH   1  16
ATOM     16  N   UNL     1       1.904   7.032  21.053  0.00  0.00    +0.000 N 
ATOM     17  H   UNL     1       2.073   6.759  22.022  0.00  0.00    +0.000 HD
BRANCH  16  18
ATOM     18  C   UNL     1       1.426   8.289  20.743  0.00  0.00    +0.000 C 
ATOM     19  S   UNL     1       0.836   9.291  21.930  0.00  0.00    +0.000 S 
BRANCH  18  20
ATOM     20  N   UNL     1       1.559   8.581  19.403  0.00  0.00    +0.000 N 
ATOM     21  H   UNL     1       1.367   7.768  18.827  0.00  0.00    +0.000 HD
BRANCH  20  23
ATOM     22  C   UNL     1      -0.069   9.977  18.254  0.00  0.00    +0.000 C 
ATOM     23  C   UNL     1       1.356   9.871  18.767  0.00  0.00    +0.000 C 
ENDBRANCH  20  23
ENDBRANCH  18  20
ENDBRANCH  16  18
ENDBRANCH   1  16
TORSDOF 7
ENDMDL
