MODEL 1
REMARK VINA RESULT:      -7.0      0.000      0.000
REMARK  Name = 
REMARK  5 active torsions:
REMARK  status: ('A' for Active; 'I' for Inactive)
REMARK    1  A    between atoms: C_2  and  C_15
REMARK    2  A    between atoms: N_3  and  O_4
REMARK    3  A    between atoms: O_4  and  C_5
REMARK    4  A    between atoms: C_5  and  C_6
REMARK    5  A    between atoms: C_9  and  N_10
REMARK                            x       y       z     vdW  Elec       q    Type
REMARK                         _______ _______ _______ _____ _____    ______ ____
ROOT
ATOM      1  N   UNL     1       2.390   5.460  21.082  0.00  0.00    +0.000 N 
ATOM      2  C   UNL     1       2.514   5.992  19.819  0.00  0.00    +0.000 C 
ATOM      3  N   UNL     1       3.027   5.343  18.818  0.00  0.00    +0.000 NA
ATOM      4  H   UNL     1       2.524   4.452  21.061  0.00  0.00    +0.000 HD
ATOM      5  H   UNL     1       1.557   5.729  21.593  0.00  0.00    +0.000 HD
ENDROOT
BRANCH   2   6
ATOM      6  C   UNL     1       2.030   7.380  19.571  0.00  0.00    +0.000 A 
ATOM      7  C   UNL     1       1.442   8.111  20.601  0.00  0.00    +0.000 A 
ATOM      8  C   UNL     1       1.043   9.406  20.327  0.00  0.00    +0.000 A 
ATOM      9  N   UNL     1       1.176   9.994  19.118  0.00  0.00    +0.000 NA
ATOM     10  C   UNL     1       1.747   9.258  18.138  0.00  0.00    +0.000 A 
ATOM     11  C   UNL     1       2.190   7.961  18.313  0.00  0.00    +0.000 A 
ENDBRANCH   2   6
BRANCH   3  12
ATOM     12  O   UNL     1       3.470   4.059  19.202  0.00  0.00    +0.000 OA
BRANCH  12  13
ATOM     13  C   UNL     1       4.900   4.062  19.238  0.00  0.00    +0.000 C 
BRANCH  13  14
ATOM     14  C   UNL     1       5.474   4.284  17.857  0.00  0.00    +0.000 A 
ATOM     15  C   UNL     1       4.750   3.920  16.712  0.00  0.00    +0.000 A 
ATOM     16  C   UNL     1       5.299   4.103  15.439  0.00  0.00    +0.000 A 
ATOM     17  C   UNL     1       6.582   4.655  15.313  0.00  0.00    +0.000 A 
ATOM     18  C   UNL     1       7.315   5.019  16.447  0.00  0.00    +0.000 A 
ATOM     19  C   UNL     1       6.759   4.830  17.713  0.00  0.00    +0.000 A 
BRANCH  17  20
ATOM     20  N   UNL     1       7.161   4.856  13.979  0.00  0.00    +0.000 N 
ATOM     21  O   UNL     1       8.089   5.672  13.871  0.00  0.00    +0.000 OA
ATOM     22  O   UNL     1       6.694   4.199  13.041  0.00  0.00    +0.000 OA
ENDBRANCH  17  20
ENDBRANCH  13  14
ENDBRANCH  12  13
ENDBRANCH   3  12
TORSDOF 5
ENDMDL
MODEL 2
REMARK VINA RESULT:      -7.0      1.329      1.685
REMARK  Name = 
REMARK  5 active torsions:
REMARK  status: ('A' for Active; 'I' for Inactive)
REMARK    1  A    between atoms: C_2  and  C_15
REMARK    2  A    between atoms: N_3  and  O_4
REMARK    3  A    between atoms: O_4  and  C_5
REMARK    4  A    between atoms: C_5  and  C_6
REMARK    5  A    between atoms: C_9  and  N_10
REMARK                            x       y       z     vdW  Elec       q    Type
REMARK                         _______ _______ _______ _____ _____    ______ ____
ROOT
ATOM      1  N   UNL     1       2.526   5.381  21.239  0.00  0.00    +0.000 N 
ATOM      2  C   UNL     1       2.183   5.605  19.926  0.00  0.00    +0.000 C 
ATOM      3  N   UNL     1       2.015   4.651  19.060  0.00  0.00    +0.000 NA
ATOM      4  H   UNL     1       2.395   4.403  21.483  0.00  0.00    +0.000 HD
ATOM      5  H   UNL     1       2.107   6.009  21.916  0.00  0.00    +0.000 HD
ENDROOT
BRANCH   2   6
ATOM      6  C   UNL     1       1.981   7.006  19.461  0.00  0.00    +0.000 A 
ATOM      7  C   UNL     1       1.417   7.952  20.315  0.00  0.00    +0.000 A 
ATOM      8  C   UNL     1       1.285   9.246  19.847  0.00  0.00    +0.000 A 
ATOM      9  N   UNL     1       1.654   9.639  18.609  0.00  0.00    +0.000 NA
ATOM     10  C   UNL     1       2.196   8.699  17.803  0.00  0.00    +0.000 A 
ATOM     11  C   UNL     1       2.382   7.382  18.179  0.00  0.00    +0.000 A 
ENDBRANCH   2   6
BRANCH   3  12
ATOM     12  O   UNL     1       2.268   3.384  19.627  0.00  0.00    +0.000 OA
BRANCH  12  13
ATOM     13  C   UNL     1       3.019   2.606  18.689  0.00  0.00    +0.000 C 
BRANCH  13  14
ATOM     14  C   UNL     1       4.096   3.441  18.035  0.00  0.00    +0.000 A 
ATOM     15  C   UNL     1       4.082   3.676  16.652  0.00  0.00    +0.000 A 
ATOM     16  C   UNL     1       5.097   4.427  16.050  0.00  0.00    +0.000 A 
ATOM     17  C   UNL     1       6.133   4.945  16.840  0.00  0.00    +0.000 A 
ATOM     18  C   UNL     1       6.161   4.715  18.219  0.00  0.00    +0.000 A 
ATOM     19  C   UNL     1       5.144   3.962  18.810  0.00  0.00    +0.000 A 
BRANCH  17  20
ATOM     20  N   UNL     1       7.198   5.739  16.216  0.00  0.00    +0.000 N 
ATOM     21  O   UNL     1       7.622   5.368  15.111  0.00  0.00    +0.000 OA
ATOM     22  O   UNL     1       7.610   6.734  16.825  0.00  0.00    +0.000 OA
ENDBRANCH  17  20
ENDBRANCH  13  14
ENDBRANCH  12  13
ENDBRANCH   3  12
TORSDOF 5
ENDMDL
MODEL 3
REMARK VINA RESULT:      -7.0      3.006      3.707
REMARK  Name = 
REMARK  5 active torsions:
REMARK  status: ('A' for Active; 'I' for Inactive)
REMARK    1  A    between atoms: C_2  and  C_15
REMARK    2  A    between atoms: N_3  and  O_4
REMARK    3  A    between atoms: O_4  and  C_5
REMARK    4  A    between atoms: C_5  and  C_6
REMARK    5  A    between atoms: C_9  and  N_10
REMARK                            x       y       z     vdW  Elec       q    Type
REMARK                         _______ _______ _______ _____ _____    ______ ____
ROOT
ATOM      1  N   UNL     1       5.449   3.004  19.285  0.00  0.00    +0.000 N 
ATOM      2  C   UNL     1       4.528   4.020  19.387  0.00  0.00    +0.000 C 
ATOM      3  N   UNL     1       4.852   5.278  19.397  0.00  0.00    +0.000 NA
ATOM      4  H   UNL     1       6.351   3.365  18.987  0.00  0.00    +0.000 HD
ATOM      5  H   UNL     1       5.156   2.198  18.745  0.00  0.00    +0.000 HD
ENDROOT
BRANCH   2   6
ATOM      6  C   UNL     1       3.081   3.676  19.480  0.00  0.00    +0.000 A 
ATOM      7  C   UNL     1       2.245   4.393  20.334  0.00  0.00    +0.000 A 
ATOM      8  C   UNL     1       0.904   4.057  20.356  0.00  0.00    +0.000 A 
ATOM      9  N   UNL     1       0.364   3.067  19.612  0.00  0.00    +0.000 NA
ATOM     10  C   UNL     1       1.201   2.389  18.795  0.00  0.00    +0.000 A 
ATOM     11  C   UNL     1       2.553   2.654  18.691  0.00  0.00    +0.000 A 
ENDBRANCH   2   6
BRANCH   3  12
ATOM     12  O   UNL     1       6.250   5.456  19.334  0.00  0.00    +0.000 OA
BRANCH  12  13
ATOM     13  C   UNL     1       6.546   6.368  18.272  0.00  0.00    +0.000 C 
BRANCH  13  14
ATOM     14  C   UNL     1       6.366   5.706  16.925  0.00  0.00    +0.000 A 
ATOM     15  C   UNL     1       7.117   4.574  16.576  0.00  0.00    +0.000 A 
ATOM     16  C   UNL     1       6.965   3.983  15.318  0.00  0.00    +0.000 A 
ATOM     17  C   UNL     1       6.054   4.531  14.403  0.00  0.00    +0.000 A 
ATOM     18  C   UNL     1       5.300   5.661  14.738  0.00  0.00    +0.000 A 
ATOM     19  C   UNL     1       5.462   6.245  15.996  0.00  0.00    +0.000 A 
BRANCH  17  20
ATOM     20  N   UNL     1       5.883   3.912  13.083  0.00  0.00    +0.000 N 
ATOM     21  O   UNL     1       6.894   3.770  12.379  0.00  0.00    +0.000 OA
ATOM     22  O   UNL     1       4.743   3.564  12.750  0.00  0.00    +0.000 OA
ENDBRANCH  17  20
ENDBRANCH  13  14
ENDBRANCH  12  13
ENDBRANCH   3  12
TORSDOF 5
ENDMDL
MODEL 4
REMARK VINA RESULT:      -7.0      0.897      1.928
REMARK  Name = 
REMARK  5 active torsions:
REMARK  status: ('A' for Active; 'I' for Inactive)
REMARK    1  A    between atoms: C_2  and  C_15
REMARK    2  A    between atoms: N_3  and  O_4
REMARK    3  A    between atoms: O_4  and  C_5
REMARK    4  A    between atoms: C_5  and  C_6
REMARK    5  A    between atoms: C_9  and  N_10
REMARK                            x       y       z     vdW  Elec       q    Type
REMARK                         _______ _______ _______ _____ _____    ______ ____
ROOT
ATOM      1  N   UNL     1       2.947   5.399  20.561  0.00  0.00    +0.000 N 
ATOM      2  C   UNL     1       3.138   6.137  19.416  0.00  0.00    +0.000 C 
ATOM      3  N   UNL     1       3.929   5.769  18.453  0.00  0.00    +0.000 NA
ATOM      4  H   UNL     1       3.306   4.455  20.444  0.00  0.00    +0.000 HD
ATOM      5  H   UNL     1       2.008   5.412  20.942  0.00  0.00    +0.000 HD
ENDROOT
BRANCH   2   6
ATOM      6  C   UNL     1       2.398   7.420  19.252  0.00  0.00    +0.000 A 
ATOM      7  C   UNL     1       2.382   8.067  18.019  0.00  0.00    +0.000 A 
ATOM      8  C   UNL     1       1.651   9.234  17.912  0.00  0.00    +0.000 A 
ATOM      9  N   UNL     1       0.968   9.791  18.936  0.00  0.00    +0.000 NA
ATOM     10  C   UNL     1       1.004   9.142  20.121  0.00  0.00    +0.000 A 
ATOM     11  C   UNL     1       1.694   7.963  20.328  0.00  0.00    +0.000 A 
ENDBRANCH   2   6
BRANCH   3  12
ATOM     12  O   UNL     1       4.585   4.556  18.754  0.00  0.00    +0.000 OA
BRANCH  12  13
ATOM     13  C   UNL     1       4.402   3.655  17.657  0.00  0.00    +0.000 C 
BRANCH  13  14
ATOM     14  C   UNL     1       5.295   4.029  16.496  0.00  0.00    +0.000 A 
ATOM     15  C   UNL     1       6.601   4.493  16.716  0.00  0.00    +0.000 A 
ATOM     16  C   UNL     1       7.412   4.864  15.639  0.00  0.00    +0.000 A 
ATOM     17  C   UNL     1       6.911   4.768  14.333  0.00  0.00    +0.000 A 
ATOM     18  C   UNL     1       5.609   4.310  14.100  0.00  0.00    +0.000 A 
ATOM     19  C   UNL     1       4.807   3.945  15.183  0.00  0.00    +0.000 A 
BRANCH  17  20
ATOM     20  N   UNL     1       7.758   5.149  13.196  0.00  0.00    +0.000 N 
ATOM     21  O   UNL     1       7.492   4.659  12.089  0.00  0.00    +0.000 OA
ATOM     22  O   UNL     1       8.687   5.939  13.407  0.00  0.00    +0.000 OA
ENDBRANCH  17  20
ENDBRANCH  13  14
ENDBRANCH  12  13
ENDBRANCH   3  12
TORSDOF 5
ENDMDL
MODEL 5
REMARK VINA RESULT:      -7.0      2.995      7.382
REMARK  Name = 
REMARK  5 active torsions:
REMARK  status: ('A' for Active; 'I' for Inactive)
REMARK    1  A    between atoms: C_2  and  C_15
REMARK    2  A    between atoms: N_3  and  O_4
REMARK    3  A    between atoms: O_4  and  C_5
REMARK    4  A    between atoms: C_5  and  C_6
REMARK    5  A    between atoms: C_9  and  N_10
REMARK                            x       y       z     vdW  Elec       q    Type
REMARK                         _______ _______ _______ _____ _____    ______ ____
ROOT
ATOM      1  N   UNL     1       7.485   4.864  16.490  0.00  0.00    +0.000 N 
ATOM      2  C   UNL     1       6.576   5.291  15.550  0.00  0.00    +0.000 C 
ATOM      3  N   UNL     1       5.671   6.192  15.790  0.00  0.00    +0.000 NA
ATOM      4  H   UNL     1       7.505   5.499  17.284  0.00  0.00    +0.000 HD
ATOM      5  H   UNL     1       8.412   4.651  16.141  0.00  0.00    +0.000 HD
ENDROOT
BRANCH   2   6
ATOM      6  C   UNL     1       6.626   4.706  14.180  0.00  0.00    +0.000 A 
ATOM      7  C   UNL     1       7.618   5.102  13.286  0.00  0.00    +0.000 A 
ATOM      8  C   UNL     1       7.641   4.503  12.041  0.00  0.00    +0.000 A 
ATOM      9  N   UNL     1       6.750   3.571  11.638  0.00  0.00    +0.000 NA
ATOM     10  C   UNL     1       5.798   3.209  12.527  0.00  0.00    +0.000 A 
ATOM     11  C   UNL     1       5.696   3.739  13.799  0.00  0.00    +0.000 A 
ENDBRANCH   2   6
BRANCH   3  12
ATOM     12  O   UNL     1       5.720   6.634  17.129  0.00  0.00    +0.000 OA
BRANCH  12  13
ATOM     13  C   UNL     1       4.397   6.995  17.538  0.00  0.00    +0.000 C 
BRANCH  13  14
ATOM     14  C   UNL     1       3.819   5.958  18.473  0.00  0.00    +0.000 A 
ATOM     15  C   UNL     1       2.521   6.100  18.988  0.00  0.00    +0.000 A 
ATOM     16  C   UNL     1       2.002   5.151  19.874  0.00  0.00    +0.000 A 
ATOM     17  C   UNL     1       2.790   4.052  20.248  0.00  0.00    +0.000 A 
ATOM     18  C   UNL     1       4.086   3.901  19.744  0.00  0.00    +0.000 A 
ATOM     19  C   UNL     1       4.595   4.855  18.862  0.00  0.00    +0.000 A 
BRANCH  17  20
ATOM     20  N   UNL     1       2.250   3.048  21.172  0.00  0.00    +0.000 N 
ATOM     21  O   UNL     1       1.021   2.881  21.188  0.00  0.00    +0.000 OA
ATOM     22  O   UNL     1       3.051   2.424  21.880  0.00  0.00    +0.000 OA
ENDBRANCH  17  20
ENDBRANCH  13  14
ENDBRANCH  12  13
ENDBRANCH   3  12
TORSDOF 5
ENDMDL
MODEL 6
REMARK VINA RESULT:      -6.9      0.680      1.529
REMARK  Name = 
REMARK  5 active torsions:
REMARK  status: ('A' for Active; 'I' for Inactive)
REMARK    1  A    between atoms: C_2  and  C_15
REMARK    2  A    between atoms: N_3  and  O_4
REMARK    3  A    between atoms: O_4  and  C_5
REMARK    4  A    between atoms: C_5  and  C_6
REMARK    5  A    between atoms: C_9  and  N_10
REMARK                            x       y       z     vdW  Elec       q    Type
REMARK                         _______ _______ _______ _____ _____    ______ ____
ROOT
ATOM      1  N   UNL     1       2.053   5.312  17.946  0.00  0.00    +0.000 N 
ATOM      2  C   UNL     1       2.632   6.167  18.855  0.00  0.00    +0.000 C 
ATOM      3  N   UNL     1       3.610   5.823  19.637  0.00  0.00    +0.000 NA
ATOM      4  H   UNL     1       2.633   4.488  17.809  0.00  0.00    +0.000 HD
ATOM      5  H   UNL     1       1.762   5.731  17.071  0.00  0.00    +0.000 HD
ENDROOT
BRANCH   2   6
ATOM      6  C   UNL     1       2.129   7.567  18.949  0.00  0.00    +0.000 A 
ATOM      7  C   UNL     1       2.154   8.397  17.831  0.00  0.00    +0.000 A 
ATOM      8  C   UNL     1       1.642   9.674  17.963  0.00  0.00    +0.000 A 
ATOM      9  N   UNL     1       1.137  10.167  19.115  0.00  0.00    +0.000 NA
ATOM     10  C   UNL     1       1.129   9.338  20.184  0.00  0.00    +0.000 A 
ATOM     11  C   UNL     1       1.605   8.041  20.152  0.00  0.00    +0.000 A 
ENDBRANCH   2   6
BRANCH   3  12
ATOM     12  O   UNL     1       3.962   4.467  19.463  0.00  0.00    +0.000 OA
BRANCH  12  13
ATOM     13  C   UNL     1       5.386   4.377  19.354  0.00  0.00    +0.000 C 
BRANCH  13  14
ATOM     14  C   UNL     1       5.827   4.511  17.914  0.00  0.00    +0.000 A 
ATOM     15  C   UNL     1       5.168   3.810  16.893  0.00  0.00    +0.000 A 
ATOM     16  C   UNL     1       5.598   3.918  15.567  0.00  0.00    +0.000 A 
ATOM     17  C   UNL     1       6.697   4.733  15.262  0.00  0.00    +0.000 A 
ATOM     18  C   UNL     1       7.365   5.436  16.271  0.00  0.00    +0.000 A 
ATOM     19  C   UNL     1       6.929   5.319  17.592  0.00  0.00    +0.000 A 
BRANCH  17  20
ATOM     20  N   UNL     1       7.151   4.857  13.871  0.00  0.00    +0.000 N 
ATOM     21  O   UNL     1       6.621   4.121  13.026  0.00  0.00    +0.000 OA
ATOM     22  O   UNL     1       8.032   5.689  13.622  0.00  0.00    +0.000 OA
ENDBRANCH  17  20
ENDBRANCH  13  14
ENDBRANCH  12  13
ENDBRANCH   3  12
TORSDOF 5
ENDMDL
MODEL 7
REMARK VINA RESULT:      -6.9      4.494      6.398
REMARK  Name = 
REMARK  5 active torsions:
REMARK  status: ('A' for Active; 'I' for Inactive)
REMARK    1  A    between atoms: C_2  and  C_15
REMARK    2  A    between atoms: N_3  and  O_4
REMARK    3  A    between atoms: O_4  and  C_5
REMARK    4  A    between atoms: C_5  and  C_6
REMARK    5  A    between atoms: C_9  and  N_10
REMARK                            x       y       z     vdW  Elec       q    Type
REMARK                         _______ _______ _______ _____ _____    ______ ____
ROOT
ATOM      1  N   UNL     1       8.516   7.296  19.004  0.00  0.00    +0.000 N 
ATOM      2  C   UNL     1       8.121   8.310  18.162  0.00  0.00    +0.000 C 
ATOM      3  N   UNL     1       7.335   8.128  17.144  0.00  0.00    +0.000 NA
ATOM      4  H   UNL     1       7.939   6.470  18.866  0.00  0.00    +0.000 HD
ATOM      5  H   UNL     1       8.609   7.546  19.981  0.00  0.00    +0.000 HD
ENDROOT
BRANCH   2   6
ATOM      6  C   UNL     1       8.602   9.696  18.427  0.00  0.00    +0.000 A 
ATOM      7  C   UNL     1       9.413   9.957  19.530  0.00  0.00    +0.000 A 
ATOM      8  C   UNL     1       9.861  11.252  19.709  0.00  0.00    +0.000 A 
ATOM      9  N   UNL     1       9.545  12.277  18.889  0.00  0.00    +0.000 NA
ATOM     10  C   UNL     1       8.755  11.994  17.829  0.00  0.00    +0.000 A 
ATOM     11  C   UNL     1       8.265  10.731  17.555  0.00  0.00    +0.000 A 
ENDBRANCH   2   6
BRANCH   3  12
ATOM     12  O   UNL     1       6.984   6.769  16.995  0.00  0.00    +0.000 OA
BRANCH  12  13
ATOM     13  C   UNL     1       5.849   6.684  16.127  0.00  0.00    +0.000 C 
BRANCH  13  14
ATOM     14  C   UNL     1       4.705   5.964  16.804  0.00  0.00    +0.000 A 
ATOM     15  C   UNL     1       3.809   6.659  17.630  0.00  0.00    +0.000 A 
ATOM     16  C   UNL     1       2.768   5.983  18.274  0.00  0.00    +0.000 A 
ATOM     17  C   UNL     1       2.625   4.600  18.090  0.00  0.00    +0.000 A 
ATOM     18  C   UNL     1       3.514   3.895  17.271  0.00  0.00    +0.000 A 
ATOM     19  C   UNL     1       4.551   4.580  16.634  0.00  0.00    +0.000 A 
BRANCH  17  20
ATOM     20  N   UNL     1       1.532   3.884  18.758  0.00  0.00    +0.000 N 
ATOM     21  O   UNL     1       1.018   2.928  18.158  0.00  0.00    +0.000 OA
ATOM     22  O   UNL     1       1.188   4.272  19.881  0.00  0.00    +0.000 OA
ENDBRANCH  17  20
ENDBRANCH  13  14
ENDBRANCH  12  13
ENDBRANCH   3  12
TORSDOF 5
ENDMDL
MODEL 8
REMARK VINA RESULT:      -6.9      0.636      1.372
REMARK  Name = 
REMARK  5 active torsions:
REMARK  status: ('A' for Active; 'I' for Inactive)
REMARK    1  A    between atoms: C_2  and  C_15
REMARK    2  A    between atoms: N_3  and  O_4
REMARK    3  A    between atoms: O_4  and  C_5
REMARK    4  A    between atoms: C_5  and  C_6
REMARK    5  A    between atoms: C_9  and  N_10
REMARK                            x       y       z     vdW  Elec       q    Type
REMARK                         _______ _______ _______ _____ _____    ______ ____
ROOT
ATOM      1  N   UNL     1       1.942   5.264  17.958  0.00  0.00    +0.000 N 
ATOM      2  C   UNL     1       2.560   6.111  18.848  0.00  0.00    +0.000 C 
ATOM      3  N   UNL     1       3.560   5.753  19.597  0.00  0.00    +0.000 NA
ATOM      4  H   UNL     1       2.508   4.434  17.800  0.00  0.00    +0.000 HD
ATOM      5  H   UNL     1       1.627   5.689  17.093  0.00  0.00    +0.000 HD
ENDROOT
BRANCH   2   6
ATOM      6  C   UNL     1       2.077   7.516  18.963  0.00  0.00    +0.000 A 
ATOM      7  C   UNL     1       1.578   7.987  20.176  0.00  0.00    +0.000 A 
ATOM      8  C   UNL     1       1.177   9.308  20.238  0.00  0.00    +0.000 A 
ATOM      9  N   UNL     1       1.224  10.159  19.190  0.00  0.00    +0.000 NA
ATOM     10  C   UNL     1       1.710   9.672  18.027  0.00  0.00    +0.000 A 
ATOM     11  C   UNL     1       2.148   8.371  17.864  0.00  0.00    +0.000 A 
ENDBRANCH   2   6
BRANCH   3  12
ATOM     12  O   UNL     1       3.891   4.394  19.408  0.00  0.00    +0.000 OA
BRANCH  12  13
ATOM     13  C   UNL     1       5.316   4.277  19.346  0.00  0.00    +0.000 C 
BRANCH  13  14
ATOM     14  C   UNL     1       5.806   4.406  17.922  0.00  0.00    +0.000 A 
ATOM     15  C   UNL     1       6.993   5.096  17.632  0.00  0.00    +0.000 A 
ATOM     16  C   UNL     1       7.427   5.235  16.309  0.00  0.00    +0.000 A 
ATOM     17  C   UNL     1       6.666   4.679  15.271  0.00  0.00    +0.000 A 
ATOM     18  C   UNL     1       5.480   3.991  15.547  0.00  0.00    +0.000 A 
ATOM     19  C   UNL     1       5.054   3.860  16.870  0.00  0.00    +0.000 A 
BRANCH  17  20
ATOM     20  N   UNL     1       7.119   4.815  13.881  0.00  0.00    +0.000 N 
ATOM     21  O   UNL     1       8.000   5.654  13.642  0.00  0.00    +0.000 OA
ATOM     22  O   UNL     1       6.598   4.084  13.030  0.00  0.00    +0.000 OA
ENDBRANCH  17  20
ENDBRANCH  13  14
ENDBRANCH  12  13
ENDBRANCH   3  12
TORSDOF 5
ENDMDL
MODEL 9
REMARK VINA RESULT:      -6.9      0.325      1.542
REMARK  Name = 
REMARK  5 active torsions:
REMARK  status: ('A' for Active; 'I' for Inactive)
REMARK    1  A    between atoms: C_2  and  C_15
REMARK    2  A    between atoms: N_3  and  O_4
REMARK    3  A    between atoms: O_4  and  C_5
REMARK    4  A    between atoms: C_5  and  C_6
REMARK    5  A    between atoms: C_9  and  N_10
REMARK                            x       y       z     vdW  Elec       q    Type
REMARK                         _______ _______ _______ _____ _____    ______ ____
ROOT
ATOM      1  N   UNL     1       2.441   5.525  21.093  0.00  0.00    +0.000 N 
ATOM      2  C   UNL     1       2.467   5.941  19.782  0.00  0.00    +0.000 C 
ATOM      3  N   UNL     1       2.778   5.160  18.791  0.00  0.00    +0.000 NA
ATOM      4  H   UNL     1       2.459   4.510  21.148  0.00  0.00    +0.000 HD
ATOM      5  H   UNL     1       1.712   5.932  21.669  0.00  0.00    +0.000 HD
ENDROOT
BRANCH   2   6
ATOM      6  C   UNL     1       2.113   7.354  19.465  0.00  0.00    +0.000 A 
ATOM      7  C   UNL     1       2.441   7.897  18.225  0.00  0.00    +0.000 A 
ATOM      8  C   UNL     1       2.057   9.200  17.969  0.00  0.00    +0.000 A 
ATOM      9  N   UNL     1       1.401   9.979  18.856  0.00  0.00    +0.000 NA
ATOM     10  C   UNL     1       1.100   9.425  20.052  0.00  0.00    +0.000 A 
ATOM     11  C   UNL     1       1.427   8.129  20.401  0.00  0.00    +0.000 A 
ENDBRANCH   2   6
BRANCH   3  12
ATOM     12  O   UNL     1       3.119   3.866  19.238  0.00  0.00    +0.000 OA
BRANCH  12  13
ATOM     13  C   UNL     1       4.542   3.789  19.371  0.00  0.00    +0.000 C 
BRANCH  13  14
ATOM     14  C   UNL     1       5.223   4.061  18.049  0.00  0.00    +0.000 A 
ATOM     15  C   UNL     1       6.436   4.766  17.998  0.00  0.00    +0.000 A 
ATOM     16  C   UNL     1       7.047   5.037  16.770  0.00  0.00    +0.000 A 
ATOM     17  C   UNL     1       6.438   4.600  15.585  0.00  0.00    +0.000 A 
ATOM     18  C   UNL     1       5.228   3.899  15.621  0.00  0.00    +0.000 A 
ATOM     19  C   UNL     1       4.625   3.635  16.853  0.00  0.00    +0.000 A 
BRANCH  17  20
ATOM     20  N   UNL     1       7.077   4.875  14.292  0.00  0.00    +0.000 N 
ATOM     21  O   UNL     1       8.036   5.661  14.279  0.00  0.00    +0.000 OA
ATOM     22  O   UNL     1       6.625   4.306  13.291  0.00  0.00    +0.000 OA
ENDBRANCH  17  20
ENDBRANCH  13  14
ENDBRANCH  12  13
ENDBRANCH   3  12
TORSDOF 5
ENDMDL
