MODEL 1
REMARK VINA RESULT:      -6.6      0.000      0.000
REMARK  Name = 
REMARK  12 active torsions:
REMARK  status: ('A' for Active; 'I' for Inactive)
REMARK    1  A    between atoms: C_1  and  O_2
REMARK    2  A    between atoms: O_2  and  C_3
REMARK    3  A    between atoms: C_6  and  C_7
REMARK    4  A    between atoms: C_8  and  C_9
REMARK    5  A    between atoms: C_16  and  C_17
REMARK    6  A    between atoms: C_21  and  O_22
REMARK    7  A    between atoms: O_22  and  C_23
REMARK    8  A    between atoms: C_24  and  O_25
REMARK    9  A    between atoms: O_25  and  C_26
REMARK   10  A    between atoms: N_31  and  C_32
REMARK   11  A    between atoms: C_34  and  O_35
REMARK   12  A    between atoms: O_35  and  C_36
REMARK                            x       y       z     vdW  Elec       q    Type
REMARK                         _______ _______ _______ _____ _____    ______ ____
ROOT
ATOM      1  C   UNL     1      -1.325  15.047  21.112  0.00  0.00    +0.000 C 
ATOM      2  C   UNL     1      -2.457  14.172  20.491  0.00  0.00    +0.000 C 
ATOM      3  C   UNL     1      -3.538  13.826  21.497  0.00  0.00    +0.000 A 
ATOM      4  C   UNL     1      -4.538  12.902  21.151  0.00  0.00    +0.000 A 
ATOM      5  C   UNL     1      -5.518  12.512  22.068  0.00  0.00    +0.000 A 
ATOM      6  C   UNL     1      -5.554  13.108  23.340  0.00  0.00    +0.000 A 
ATOM      7  C   UNL     1      -4.588  14.064  23.670  0.00  0.00    +0.000 A 
ATOM      8  C   UNL     1      -3.588  14.423  22.755  0.00  0.00    +0.000 A 
ATOM      9  C   UNL     1      -2.648  15.505  23.133  0.00  0.00    +0.000 C 
ATOM     10  O   UNL     1      -2.673  15.951  24.277  0.00  0.00    +0.000 OA
ATOM     11  N   UNL     1      -1.813  16.001  22.129  0.00  0.00    +0.000 N 
ATOM     12  C   UNL     1      -0.961  17.111  22.543  0.00  0.00    +0.000 C 
ENDROOT
BRANCH   2  13
ATOM     13  C   UNL     1      -1.865  12.883  19.868  0.00  0.00    +0.000 C 
ATOM     14  O   UNL     1      -2.357  12.362  18.867  0.00  0.00    +0.000 OA
ATOM     15  N   UNL     1      -0.744  12.389  20.505  0.00  0.00    +0.000 N 
ATOM     16  C   UNL     1      -0.041  11.276  20.028  0.00  0.00    +0.000 A 
ATOM     17  C   UNL     1       0.394  11.185  18.711  0.00  0.00    +0.000 A 
ATOM     18  C   UNL     1       1.120  10.057  18.332  0.00  0.00    +0.000 A 
ATOM     19  C   UNL     1       1.332   9.041  19.258  0.00  0.00    +0.000 A 
ATOM     20  C   UNL     1       0.850   9.210  20.552  0.00  0.00    +0.000 A 
ATOM     21  C   UNL     1       0.946   8.105  21.560  0.00  0.00    +0.000 C 
ATOM     22  N   UNL     1       0.222  10.340  20.960  0.00  0.00    +0.000 NA
ATOM     23  H   UNL     1      -0.727  12.432  21.516  0.00  0.00    +0.000 HD
ENDBRANCH   2  13
BRANCH   1  27
ATOM     24  C   UNL     1       1.033  17.303  18.262  0.00  0.00    +0.000 A 
ATOM     25  C   UNL     1      -0.370  17.325  18.212  0.00  0.00    +0.000 A 
ATOM     26  C   UNL     1      -1.133  16.572  19.102  0.00  0.00    +0.000 A 
ATOM     27  C   UNL     1      -0.507  15.723  20.015  0.00  0.00    +0.000 A 
ATOM     28  C   UNL     1       0.882  15.552  19.917  0.00  0.00    +0.000 A 
ATOM     29  C   UNL     1       1.669  16.367  19.087  0.00  0.00    +0.000 A 
BRANCH  24  31
ATOM     30  C   UNL     1       1.161  18.544  16.256  0.00  0.00    +0.000 C 
ATOM     31  O   UNL     1       1.771  18.167  17.500  0.00  0.00    +0.000 OA
ENDBRANCH  24  31
BRANCH  29  32
ATOM     32  O   UNL     1       3.002  16.124  19.260  0.00  0.00    +0.000 OA
ATOM     33  C   UNL     1       3.678  15.267  18.355  0.00  0.00    +0.000 C 
ENDBRANCH  29  32
ENDBRANCH   1  27
BRANCH   5  34
ATOM     34  O   UNL     1      -6.482  11.578  21.769  0.00  0.00    +0.000 OA
ATOM     35  C   UNL     1      -7.426  11.972  20.775  0.00  0.00    +0.000 C 
ENDBRANCH   5  34
BRANCH   6  36
ATOM     36  O   UNL     1      -6.556  12.702  24.180  0.00  0.00    +0.000 OA
ATOM     37  C   UNL     1      -7.658  13.592  24.350  0.00  0.00    +0.000 C 
ENDBRANCH   6  36
TORSDOF 6
ENDMDL
MODEL 2
REMARK VINA RESULT:      -6.5      2.638      6.941
REMARK  Name = 
REMARK  12 active torsions:
REMARK  status: ('A' for Active; 'I' for Inactive)
REMARK    1  A    between atoms: C_1  and  O_2
REMARK    2  A    between atoms: O_2  and  C_3
REMARK    3  A    between atoms: C_6  and  C_7
REMARK    4  A    between atoms: C_8  and  C_9
REMARK    5  A    between atoms: C_16  and  C_17
REMARK    6  A    between atoms: C_21  and  O_22
REMARK    7  A    between atoms: O_22  and  C_23
REMARK    8  A    between atoms: C_24  and  O_25
REMARK    9  A    between atoms: O_25  and  C_26
REMARK   10  A    between atoms: N_31  and  C_32
REMARK   11  A    between atoms: C_34  and  O_35
REMARK   12  A    between atoms: O_35  and  C_36
REMARK                            x       y       z     vdW  Elec       q    Type
REMARK                         _______ _______ _______ _____ _____    ______ ____
ROOT
ATOM      1  C   UNL     1      -1.122  12.407  21.282  0.00  0.00    +0.000 C 
ATOM      2  C   UNL     1      -0.771  11.802  19.888  0.00  0.00    +0.000 C 
ATOM      3  C   UNL     1       0.025  10.516  19.999  0.00  0.00    +0.000 A 
ATOM      4  C   UNL     1       0.572   9.936  18.843  0.00  0.00    +0.000 A 
ATOM      5  C   UNL     1       1.361   8.784  18.909  0.00  0.00    +0.000 A 
ATOM      6  C   UNL     1       1.553   8.145  20.145  0.00  0.00    +0.000 A 
ATOM      7  C   UNL     1       0.970   8.695  21.292  0.00  0.00    +0.000 A 
ATOM      8  C   UNL     1       0.209   9.870  21.220  0.00  0.00    +0.000 A 
ATOM      9  C   UNL     1      -0.454  10.351  22.455  0.00  0.00    +0.000 C 
ATOM     10  O   UNL     1      -0.205   9.803  23.525  0.00  0.00    +0.000 OA
ATOM     11  N   UNL     1      -1.385  11.384  22.316  0.00  0.00    +0.000 N 
ATOM     12  C   UNL     1      -2.055  11.766  23.554  0.00  0.00    +0.000 C 
ENDROOT
BRANCH   2  13
ATOM     13  C   UNL     1      -0.009  12.838  19.024  0.00  0.00    +0.000 C 
ATOM     14  O   UNL     1      -0.449  13.230  17.944  0.00  0.00    +0.000 OA
ATOM     15  N   UNL     1       1.174  13.295  19.571  0.00  0.00    +0.000 N 
ATOM     16  C   UNL     1       1.948  14.288  18.958  0.00  0.00    +0.000 A 
ATOM     17  C   UNL     1       1.406  15.502  18.553  0.00  0.00    +0.000 A 
ATOM     18  C   UNL     1       2.258  16.448  17.984  0.00  0.00    +0.000 A 
ATOM     19  C   UNL     1       3.597  16.127  17.788  0.00  0.00    +0.000 A 
ATOM     20  C   UNL     1       4.052  14.882  18.212  0.00  0.00    +0.000 A 
ATOM     21  C   UNL     1       5.453  14.435  17.925  0.00  0.00    +0.000 C 
ATOM     22  N   UNL     1       3.256  13.988  18.848  0.00  0.00    +0.000 NA
ATOM     23  H   UNL     1       1.752  12.621  20.056  0.00  0.00    +0.000 HD
ENDBRANCH   2  13
BRANCH   1  27
ATOM     24  C   UNL     1      -4.475  15.150  21.310  0.00  0.00    +0.000 A 
ATOM     25  C   UNL     1      -4.574  13.901  20.677  0.00  0.00    +0.000 A 
ATOM     26  C   UNL     1      -3.487  13.030  20.633  0.00  0.00    +0.000 A 
ATOM     27  C   UNL     1      -2.254  13.422  21.157  0.00  0.00    +0.000 A 
ATOM     28  C   UNL     1      -2.112  14.747  21.598  0.00  0.00    +0.000 A 
ATOM     29  C   UNL     1      -3.217  15.604  21.729  0.00  0.00    +0.000 A 
BRANCH  24  31
ATOM     30  C   UNL     1      -6.247  15.741  22.756  0.00  0.00    +0.000 C 
ATOM     31  O   UNL     1      -5.586  15.928  21.495  0.00  0.00    +0.000 OA
ENDBRANCH  24  31
BRANCH  29  32
ATOM     32  O   UNL     1      -2.869  16.789  22.312  0.00  0.00    +0.000 OA
ATOM     33  C   UNL     1      -2.252  16.782  23.589  0.00  0.00    +0.000 C 
ENDBRANCH  29  32
ENDBRANCH   1  27
BRANCH   5  34
ATOM     34  O   UNL     1       1.942   8.221  17.797  0.00  0.00    +0.000 OA
ATOM     35  C   UNL     1       3.313   8.560  17.588  0.00  0.00    +0.000 C 
ENDBRANCH   5  34
BRANCH   6  36
ATOM     36  O   UNL     1       2.313   7.007  20.136  0.00  0.00    +0.000 OA
ATOM     37  C   UNL     1       1.683   5.806  20.579  0.00  0.00    +0.000 C 
ENDBRANCH   6  36
TORSDOF 6
ENDMDL
MODEL 3
REMARK VINA RESULT:      -6.5      0.901      1.682
REMARK  Name = 
REMARK  12 active torsions:
REMARK  status: ('A' for Active; 'I' for Inactive)
REMARK    1  A    between atoms: C_1  and  O_2
REMARK    2  A    between atoms: O_2  and  C_3
REMARK    3  A    between atoms: C_6  and  C_7
REMARK    4  A    between atoms: C_8  and  C_9
REMARK    5  A    between atoms: C_16  and  C_17
REMARK    6  A    between atoms: C_21  and  O_22
REMARK    7  A    between atoms: O_22  and  C_23
REMARK    8  A    between atoms: C_24  and  O_25
REMARK    9  A    between atoms: O_25  and  C_26
REMARK   10  A    between atoms: N_31  and  C_32
REMARK   11  A    between atoms: C_34  and  O_35
REMARK   12  A    between atoms: O_35  and  C_36
REMARK                            x       y       z     vdW  Elec       q    Type
REMARK                         _______ _______ _______ _____ _____    ______ ____
ROOT
ATOM      1  C   UNL     1      -0.882  14.871  21.594  0.00  0.00    +0.000 C 
ATOM      2  C   UNL     1      -2.005  14.173  20.767  0.00  0.00    +0.000 C 
ATOM      3  C   UNL     1      -3.184  13.758  21.627  0.00  0.00    +0.000 A 
ATOM      4  C   UNL     1      -4.201  12.963  21.074  0.00  0.00    +0.000 A 
ATOM      5  C   UNL     1      -5.273  12.510  21.848  0.00  0.00    +0.000 A 
ATOM      6  C   UNL     1      -5.381  12.916  23.189  0.00  0.00    +0.000 A 
ATOM      7  C   UNL     1      -4.394  13.747  23.729  0.00  0.00    +0.000 A 
ATOM      8  C   UNL     1      -3.304  14.168  22.954  0.00  0.00    +0.000 A 
ATOM      9  C   UNL     1      -2.340  15.117  23.559  0.00  0.00    +0.000 C 
ATOM     10  O   UNL     1      -2.434  15.393  24.751  0.00  0.00    +0.000 OA
ATOM     11  N   UNL     1      -1.398  15.697  22.704  0.00  0.00    +0.000 N 
ATOM     12  C   UNL     1      -0.524  16.675  23.342  0.00  0.00    +0.000 C 
ENDROOT
BRANCH   2  13
ATOM     13  C   UNL     1      -1.436  12.952  20.002  0.00  0.00    +0.000 C 
ATOM     14  O   UNL     1      -1.885  12.604  18.910  0.00  0.00    +0.000 OA
ATOM     15  N   UNL     1      -0.385  12.311  20.628  0.00  0.00    +0.000 N 
ATOM     16  C   UNL     1       0.294  11.237  20.038  0.00  0.00    +0.000 A 
ATOM     17  C   UNL     1       0.810  11.306  18.750  0.00  0.00    +0.000 A 
ATOM     18  C   UNL     1       1.504  10.202  18.257  0.00  0.00    +0.000 A 
ATOM     19  C   UNL     1       1.606   9.057  19.039  0.00  0.00    +0.000 A 
ATOM     20  C   UNL     1       1.048   9.071  20.314  0.00  0.00    +0.000 A 
ATOM     21  C   UNL     1       1.024   7.832  21.158  0.00  0.00    +0.000 C 
ATOM     22  N   UNL     1       0.449  10.167  20.841  0.00  0.00    +0.000 NA
ATOM     23  H   UNL     1      -0.433  12.212  21.634  0.00  0.00    +0.000 HD
ENDBRANCH   2  13
BRANCH   1  27
ATOM     24  C   UNL     1       1.814  16.707  18.743  0.00  0.00    +0.000 A 
ATOM     25  C   UNL     1       2.306  16.102  19.911  0.00  0.00    +0.000 A 
ATOM     26  C   UNL     1       1.441  15.543  20.849  0.00  0.00    +0.000 A 
ATOM     27  C   UNL     1       0.060  15.643  20.675  0.00  0.00    +0.000 A 
ATOM     28  C   UNL     1      -0.420  16.428  19.615  0.00  0.00    +0.000 A 
ATOM     29  C   UNL     1       0.436  16.922  18.616  0.00  0.00    +0.000 A 
BRANCH  24  31
ATOM     30  C   UNL     1       3.414  16.042  17.137  0.00  0.00    +0.000 C 
ATOM     31  O   UNL     1       2.669  17.105  17.750  0.00  0.00    +0.000 OA
ENDBRANCH  24  31
BRANCH  29  32
ATOM     32  O   UNL     1      -0.262  17.529  17.611  0.00  0.00    +0.000 OA
ATOM     33  C   UNL     1      -1.297  18.443  17.935  0.00  0.00    +0.000 C 
ENDBRANCH  29  32
ENDBRANCH   1  27
BRANCH   5  34
ATOM     34  O   UNL     1      -6.259  11.696  21.343  0.00  0.00    +0.000 OA
ATOM     35  C   UNL     1      -6.288  11.584  19.920  0.00  0.00    +0.000 C 
ENDBRANCH   5  34
BRANCH   6  36
ATOM     36  O   UNL     1      -6.469  12.459  23.882  0.00  0.00    +0.000 OA
ATOM     37  C   UNL     1      -7.481  13.415  24.200  0.00  0.00    +0.000 C 
ENDBRANCH   6  36
TORSDOF 6
ENDMDL
MODEL 4
REMARK VINA RESULT:      -6.5      2.709      7.034
REMARK  Name = 
REMARK  12 active torsions:
REMARK  status: ('A' for Active; 'I' for Inactive)
REMARK    1  A    between atoms: C_1  and  O_2
REMARK    2  A    between atoms: O_2  and  C_3
REMARK    3  A    between atoms: C_6  and  C_7
REMARK    4  A    between atoms: C_8  and  C_9
REMARK    5  A    between atoms: C_16  and  C_17
REMARK    6  A    between atoms: C_21  and  O_22
REMARK    7  A    between atoms: O_22  and  C_23
REMARK    8  A    between atoms: C_24  and  O_25
REMARK    9  A    between atoms: O_25  and  C_26
REMARK   10  A    between atoms: N_31  and  C_32
REMARK   11  A    between atoms: C_34  and  O_35
REMARK   12  A    between atoms: O_35  and  C_36
REMARK                            x       y       z     vdW  Elec       q    Type
REMARK                         _______ _______ _______ _____ _____    ______ ____
ROOT
ATOM      1  C   UNL     1      -1.091  12.420  21.348  0.00  0.00    +0.000 C 
ATOM      2  C   UNL     1      -0.772  11.854  19.930  0.00  0.00    +0.000 C 
ATOM      3  C   UNL     1       0.026  10.565  19.988  0.00  0.00    +0.000 A 
ATOM      4  C   UNL     1       0.546  10.018  18.804  0.00  0.00    +0.000 A 
ATOM      5  C   UNL     1       1.336   8.865  18.820  0.00  0.00    +0.000 A 
ATOM      6  C   UNL     1       1.557   8.192  20.034  0.00  0.00    +0.000 A 
ATOM      7  C   UNL     1       1.001   8.710  21.208  0.00  0.00    +0.000 A 
ATOM      8  C   UNL     1       0.238   9.887  21.186  0.00  0.00    +0.000 A 
ATOM      9  C   UNL     1      -0.396  10.334  22.449  0.00  0.00    +0.000 C 
ATOM     10  O   UNL     1      -0.123   9.756  23.497  0.00  0.00    +0.000 OA
ATOM     11  N   UNL     1      -1.330  11.370  22.359  0.00  0.00    +0.000 N 
ATOM     12  C   UNL     1      -1.972  11.718  23.622  0.00  0.00    +0.000 C 
ENDROOT
BRANCH   2  13
ATOM     13  C   UNL     1      -0.030  12.913  19.078  0.00  0.00    +0.000 C 
ATOM     14  O   UNL     1      -0.499  13.342  18.024  0.00  0.00    +0.000 OA
ATOM     15  N   UNL     1       1.172  13.346  19.603  0.00  0.00    +0.000 N 
ATOM     16  C   UNL     1       1.932  14.355  18.999  0.00  0.00    +0.000 A 
ATOM     17  C   UNL     1       1.386  15.584  18.650  0.00  0.00    +0.000 A 
ATOM     18  C   UNL     1       2.227  16.543  18.087  0.00  0.00    +0.000 A 
ATOM     19  C   UNL     1       3.558  16.222  17.840  0.00  0.00    +0.000 A 
ATOM     20  C   UNL     1       4.017  14.963  18.211  0.00  0.00    +0.000 A 
ATOM     21  C   UNL     1       5.407  14.518  17.868  0.00  0.00    +0.000 C 
ATOM     22  N   UNL     1       3.235  14.052  18.841  0.00  0.00    +0.000 NA
ATOM     23  H   UNL     1       1.760  12.654  20.049  0.00  0.00    +0.000 HD
ENDBRANCH   2  13
BRANCH   1  27
ATOM     24  C   UNL     1      -4.186  15.390  20.743  0.00  0.00    +0.000 A 
ATOM     25  C   UNL     1      -2.961  15.739  21.334  0.00  0.00    +0.000 A 
ATOM     26  C   UNL     1      -1.977  14.780  21.565  0.00  0.00    +0.000 A 
ATOM     27  C   UNL     1      -2.225  13.437  21.277  0.00  0.00    +0.000 A 
ATOM     28  C   UNL     1      -3.522  13.074  20.883  0.00  0.00    +0.000 A 
ATOM     29  C   UNL     1      -4.494  14.036  20.564  0.00  0.00    +0.000 A 
BRANCH  24  31
ATOM     30  C   UNL     1      -5.951  16.809  21.416  0.00  0.00    +0.000 C 
ATOM     31  O   UNL     1      -5.079  16.357  20.368  0.00  0.00    +0.000 OA
ENDBRANCH  24  31
BRANCH  29  32
ATOM     32  O   UNL     1      -5.629  13.459  20.067  0.00  0.00    +0.000 OA
ATOM     33  C   UNL     1      -6.223  12.377  20.764  0.00  0.00    +0.000 C 
ENDBRANCH  29  32
ENDBRANCH   1  27
BRANCH   5  34
ATOM     34  O   UNL     1       1.892   8.332  17.681  0.00  0.00    +0.000 OA
ATOM     35  C   UNL     1       3.319   8.301  17.655  0.00  0.00    +0.000 C 
ENDBRANCH   5  34
BRANCH   6  36
ATOM     36  O   UNL     1       2.316   7.055  19.976  0.00  0.00    +0.000 OA
ATOM     37  C   UNL     1       1.749   5.871  20.535  0.00  0.00    +0.000 C 
ENDBRANCH   6  36
TORSDOF 6
ENDMDL
MODEL 5
REMARK VINA RESULT:      -6.4      1.306      2.195
REMARK  Name = 
REMARK  12 active torsions:
REMARK  status: ('A' for Active; 'I' for Inactive)
REMARK    1  A    between atoms: C_1  and  O_2
REMARK    2  A    between atoms: O_2  and  C_3
REMARK    3  A    between atoms: C_6  and  C_7
REMARK    4  A    between atoms: C_8  and  C_9
REMARK    5  A    between atoms: C_16  and  C_17
REMARK    6  A    between atoms: C_21  and  O_22
REMARK    7  A    between atoms: O_22  and  C_23
REMARK    8  A    between atoms: C_24  and  O_25
REMARK    9  A    between atoms: O_25  and  C_26
REMARK   10  A    between atoms: N_31  and  C_32
REMARK   11  A    between atoms: C_34  and  O_35
REMARK   12  A    between atoms: O_35  and  C_36
REMARK                            x       y       z     vdW  Elec       q    Type
REMARK                         _______ _______ _______ _____ _____    ______ ____
ROOT
ATOM      1  C   UNL     1      -0.886  13.988  20.979  0.00  0.00    +0.000 C 
ATOM      2  C   UNL     1      -1.816  13.377  19.886  0.00  0.00    +0.000 C 
ATOM      3  C   UNL     1      -3.184  13.008  20.429  0.00  0.00    +0.000 A 
ATOM      4  C   UNL     1      -4.079  12.287  19.623  0.00  0.00    +0.000 A 
ATOM      5  C   UNL     1      -5.326  11.878  20.106  0.00  0.00    +0.000 A 
ATOM      6  C   UNL     1      -5.728  12.256  21.398  0.00  0.00    +0.000 A 
ATOM      7  C   UNL     1      -4.856  13.015  22.186  0.00  0.00    +0.000 A 
ATOM      8  C   UNL     1      -3.594  13.391  21.705  0.00  0.00    +0.000 A 
ATOM      9  C   UNL     1      -2.754  14.268  22.555  0.00  0.00    +0.000 C 
ATOM     10  O   UNL     1      -3.113  14.519  23.702  0.00  0.00    +0.000 OA
ATOM     11  N   UNL     1      -1.608  14.814  21.968  0.00  0.00    +0.000 N 
ATOM     12  C   UNL     1      -0.862  15.724  22.830  0.00  0.00    +0.000 C 
ENDROOT
BRANCH   2  13
ATOM     13  C   UNL     1      -1.144  12.144  19.231  0.00  0.00    +0.000 C 
ATOM     14  O   UNL     1      -1.477  11.741  18.117  0.00  0.00    +0.000 OA
ATOM     15  N   UNL     1      -0.141  11.560  19.979  0.00  0.00    +0.000 N 
ATOM     16  C   UNL     1       0.619  10.485  19.502  0.00  0.00    +0.000 A 
ATOM     17  C   UNL     1       1.255  10.520  18.266  0.00  0.00    +0.000 A 
ATOM     18  C   UNL     1       2.021   9.419  17.888  0.00  0.00    +0.000 A 
ATOM     19  C   UNL     1       2.078   8.309  18.724  0.00  0.00    +0.000 A 
ATOM     20  C   UNL     1       1.401   8.356  19.938  0.00  0.00    +0.000 A 
ATOM     21  C   UNL     1       1.329   7.151  20.828  0.00  0.00    +0.000 C 
ATOM     22  N   UNL     1       0.725   9.453  20.360  0.00  0.00    +0.000 NA
ATOM     23  H   UNL     1      -0.282  11.500  20.979  0.00  0.00    +0.000 HD
ENDBRANCH   2  13
BRANCH   1  27
ATOM     24  C   UNL     1       2.418  15.795  18.839  0.00  0.00    +0.000 A 
ATOM     25  C   UNL     1       2.649  14.861  19.862  0.00  0.00    +0.000 A 
ATOM     26  C   UNL     1       1.592  14.305  20.579  0.00  0.00    +0.000 A 
ATOM     27  C   UNL     1       0.283  14.726  20.337  0.00  0.00    +0.000 A 
ATOM     28  C   UNL     1       0.086  15.806  19.462  0.00  0.00    +0.000 A 
ATOM     29  C   UNL     1       1.129  16.316  18.671  0.00  0.00    +0.000 A 
BRANCH  24  31
ATOM     30  C   UNL     1       4.570  15.325  17.987  0.00  0.00    +0.000 C 
ATOM     31  O   UNL     1       3.442  16.211  18.031  0.00  0.00    +0.000 OA
ENDBRANCH  24  31
BRANCH  29  32
ATOM     32  O   UNL     1       0.679  17.260  17.792  0.00  0.00    +0.000 OA
ATOM     33  C   UNL     1      -0.695  17.611  17.791  0.00  0.00    +0.000 C 
ENDBRANCH  29  32
ENDBRANCH   1  27
BRANCH   5  34
ATOM     34  O   UNL     1      -6.204  11.136  19.352  0.00  0.00    +0.000 OA
ATOM     35  C   UNL     1      -6.721  11.791  18.195  0.00  0.00    +0.000 C 
ENDBRANCH   5  34
BRANCH   6  36
ATOM     36  O   UNL     1      -6.970  11.846  21.799  0.00  0.00    +0.000 OA
ATOM     37  C   UNL     1      -7.467  12.389  23.021  0.00  0.00    +0.000 C 
ENDBRANCH   6  36
TORSDOF 6
ENDMDL
MODEL 6
REMARK VINA RESULT:      -6.3      2.550      6.271
REMARK  Name = 
REMARK  12 active torsions:
REMARK  status: ('A' for Active; 'I' for Inactive)
REMARK    1  A    between atoms: C_1  and  O_2
REMARK    2  A    between atoms: O_2  and  C_3
REMARK    3  A    between atoms: C_6  and  C_7
REMARK    4  A    between atoms: C_8  and  C_9
REMARK    5  A    between atoms: C_16  and  C_17
REMARK    6  A    between atoms: C_21  and  O_22
REMARK    7  A    between atoms: O_22  and  C_23
REMARK    8  A    between atoms: C_24  and  O_25
REMARK    9  A    between atoms: O_25  and  C_26
REMARK   10  A    between atoms: N_31  and  C_32
REMARK   11  A    between atoms: C_34  and  O_35
REMARK   12  A    between atoms: O_35  and  C_36
REMARK                            x       y       z     vdW  Elec       q    Type
REMARK                         _______ _______ _______ _____ _____    ______ ____
ROOT
ATOM      1  C   UNL     1      -1.457  11.429  19.166  0.00  0.00    +0.000 C 
ATOM      2  C   UNL     1      -1.400  12.079  20.582  0.00  0.00    +0.000 C 
ATOM      3  C   UNL     1      -2.648  12.881  20.902  0.00  0.00    +0.000 A 
ATOM      4  C   UNL     1      -2.686  13.674  22.061  0.00  0.00    +0.000 A 
ATOM      5  C   UNL     1      -3.793  14.472  22.361  0.00  0.00    +0.000 A 
ATOM      6  C   UNL     1      -4.925  14.429  21.530  0.00  0.00    +0.000 A 
ATOM      7  C   UNL     1      -4.907  13.604  20.400  0.00  0.00    +0.000 A 
ATOM      8  C   UNL     1      -3.779  12.833  20.089  0.00  0.00    +0.000 A 
ATOM      9  C   UNL     1      -3.857  11.914  18.929  0.00  0.00    +0.000 C 
ATOM     10  O   UNL     1      -4.837  11.957  18.191  0.00  0.00    +0.000 OA
ATOM     11  N   UNL     1      -2.814  10.996  18.774  0.00  0.00    +0.000 N 
ATOM     12  C   UNL     1      -2.982  10.072  17.657  0.00  0.00    +0.000 C 
ENDROOT
BRANCH   2  13
ATOM     13  C   UNL     1      -0.137  12.966  20.721  0.00  0.00    +0.000 C 
ATOM     14  O   UNL     1       0.702  12.765  21.598  0.00  0.00    +0.000 OA
ATOM     15  N   UNL     1      -0.023  13.969  19.778  0.00  0.00    +0.000 N 
ATOM     16  C   UNL     1       1.094  14.811  19.714  0.00  0.00    +0.000 A 
ATOM     17  C   UNL     1       2.392  14.316  19.670  0.00  0.00    +0.000 A 
ATOM     18  C   UNL     1       3.442  15.227  19.569  0.00  0.00    +0.000 A 
ATOM     19  C   UNL     1       3.165  16.590  19.574  0.00  0.00    +0.000 A 
ATOM     20  C   UNL     1       1.836  16.997  19.633  0.00  0.00    +0.000 A 
ATOM     21  C   UNL     1       1.480  18.448  19.757  0.00  0.00    +0.000 C 
ATOM     22  N   UNL     1       0.800  16.123  19.641  0.00  0.00    +0.000 NA
ATOM     23  H   UNL     1      -0.870  14.454  19.511  0.00  0.00    +0.000 HD
ENDBRANCH   2  13
BRANCH   1  27
ATOM     24  C   UNL     1       1.774   8.558  18.880  0.00  0.00    +0.000 A 
ATOM     25  C   UNL     1       1.216   9.130  17.725  0.00  0.00    +0.000 A 
ATOM     26  C   UNL     1       0.153  10.026  17.810  0.00  0.00    +0.000 A 
ATOM     27  C   UNL     1      -0.426  10.311  19.047  0.00  0.00    +0.000 A 
ATOM     28  C   UNL     1       0.002   9.577  20.164  0.00  0.00    +0.000 A 
ATOM     29  C   UNL     1       1.128   8.739  20.109  0.00  0.00    +0.000 A 
BRANCH  24  31
ATOM     30  C   UNL     1       2.718   6.437  18.446  0.00  0.00    +0.000 C 
ATOM     31  O   UNL     1       2.919   7.812  18.805  0.00  0.00    +0.000 OA
ENDBRANCH  24  31
BRANCH  29  32
ATOM     32  O   UNL     1       1.447   8.244  21.342  0.00  0.00    +0.000 OA
ATOM     33  C   UNL     1       1.291   9.068  22.485  0.00  0.00    +0.000 C 
ENDBRANCH  29  32
ENDBRANCH   1  27
BRANCH   5  34
ATOM     34  O   UNL     1      -3.839  15.289  23.466  0.00  0.00    +0.000 OA
ATOM     35  C   UNL     1      -3.384  14.697  24.682  0.00  0.00    +0.000 C 
ENDBRANCH   5  34
BRANCH   6  36
ATOM     36  O   UNL     1      -5.985  15.215  21.895  0.00  0.00    +0.000 OA
ATOM     37  C   UNL     1      -7.169  14.543  22.323  0.00  0.00    +0.000 C 
ENDBRANCH   6  36
TORSDOF 6
ENDMDL
MODEL 7
REMARK VINA RESULT:      -6.3      3.281      4.764
REMARK  Name = 
REMARK  12 active torsions:
REMARK  status: ('A' for Active; 'I' for Inactive)
REMARK    1  A    between atoms: C_1  and  O_2
REMARK    2  A    between atoms: O_2  and  C_3
REMARK    3  A    between atoms: C_6  and  C_7
REMARK    4  A    between atoms: C_8  and  C_9
REMARK    5  A    between atoms: C_16  and  C_17
REMARK    6  A    between atoms: C_21  and  O_22
REMARK    7  A    between atoms: O_22  and  C_23
REMARK    8  A    between atoms: C_24  and  O_25
REMARK    9  A    between atoms: O_25  and  C_26
REMARK   10  A    between atoms: N_31  and  C_32
REMARK   11  A    between atoms: C_34  and  O_35
REMARK   12  A    between atoms: O_35  and  C_36
REMARK                            x       y       z     vdW  Elec       q    Type
REMARK                         _______ _______ _______ _____ _____    ______ ____
ROOT
ATOM      1  C   UNL     1       0.845  13.029  19.942  0.00  0.00    +0.000 C 
ATOM      2  C   UNL     1       0.520  11.985  18.830  0.00  0.00    +0.000 C 
ATOM      3  C   UNL     1      -0.972  11.766  18.661  0.00  0.00    +0.000 A 
ATOM      4  C   UNL     1      -1.432  10.734  17.827  0.00  0.00    +0.000 A 
ATOM      5  C   UNL     1      -2.796  10.462  17.690  0.00  0.00    +0.000 A 
ATOM      6  C   UNL     1      -3.735  11.281  18.338  0.00  0.00    +0.000 A 
ATOM      7  C   UNL     1      -3.281  12.340  19.132  0.00  0.00    +0.000 A 
ATOM      8  C   UNL     1      -1.909  12.583  19.290  0.00  0.00    +0.000 A 
ATOM      9  C   UNL     1      -1.495  13.772  20.072  0.00  0.00    +0.000 C 
ATOM     10  O   UNL     1      -2.344  14.422  20.676  0.00  0.00    +0.000 OA
ATOM     11  N   UNL     1      -0.143  14.123  20.027  0.00  0.00    +0.000 N 
ATOM     12  C   UNL     1       0.191  15.341  20.757  0.00  0.00    +0.000 C 
ENDROOT
BRANCH   2  13
ATOM     13  C   UNL     1       1.234  10.641  19.122  0.00  0.00    +0.000 C 
ATOM     14  O   UNL     1       1.449  10.258  20.271  0.00  0.00    +0.000 OA
ATOM     15  N   UNL     1       1.581   9.911  18.002  0.00  0.00    +0.000 N 
ATOM     16  C   UNL     1       2.164   8.641  18.089  0.00  0.00    +0.000 A 
ATOM     17  C   UNL     1       1.609   7.623  18.854  0.00  0.00    +0.000 A 
ATOM     18  C   UNL     1       2.237   6.378  18.852  0.00  0.00    +0.000 A 
ATOM     19  C   UNL     1       3.419   6.213  18.139  0.00  0.00    +0.000 A 
ATOM     20  C   UNL     1       3.911   7.291  17.409  0.00  0.00    +0.000 A 
ATOM     21  C   UNL     1       5.238   7.210  16.716  0.00  0.00    +0.000 C 
ATOM     22  N   UNL     1       3.265   8.480  17.329  0.00  0.00    +0.000 NA
ATOM     23  H   UNL     1       1.928  10.425  17.202  0.00  0.00    +0.000 HD
ENDBRANCH   2  13
BRANCH   1  27
ATOM     24  C   UNL     1       4.745  14.871  19.534  0.00  0.00    +0.000 A 
ATOM     25  C   UNL     1       4.029  14.445  18.403  0.00  0.00    +0.000 A 
ATOM     26  C   UNL     1       2.792  13.818  18.531  0.00  0.00    +0.000 A 
ATOM     27  C   UNL     1       2.276  13.538  19.797  0.00  0.00    +0.000 A 
ATOM     28  C   UNL     1       3.092  13.779  20.913  0.00  0.00    +0.000 A 
ATOM     29  C   UNL     1       4.300  14.488  20.805  0.00  0.00    +0.000 A 
BRANCH  24  31
ATOM     30  C   UNL     1       5.643  17.044  19.307  0.00  0.00    +0.000 C 
ATOM     31  O   UNL     1       5.875  15.631  19.398  0.00  0.00    +0.000 OA
ENDBRANCH  24  31
BRANCH  29  32
ATOM     32  O   UNL     1       4.851  14.734  22.031  0.00  0.00    +0.000 OA
ATOM     33  C   UNL     1       5.622  13.725  22.663  0.00  0.00    +0.000 C 
ENDBRANCH  29  32
ENDBRANCH   1  27
BRANCH   5  34
ATOM     34  O   UNL     1      -3.271   9.431  16.914  0.00  0.00    +0.000 OA
ATOM     35  C   UNL     1      -3.125   9.610  15.506  0.00  0.00    +0.000 C 
ENDBRANCH   5  34
BRANCH   6  36
ATOM     36  O   UNL     1      -5.055  10.977  18.140  0.00  0.00    +0.000 OA
ATOM     37  C   UNL     1      -5.847  11.949  17.458  0.00  0.00    +0.000 C 
ENDBRANCH   6  36
TORSDOF 6
ENDMDL
MODEL 8
REMARK VINA RESULT:      -6.2      1.921      2.602
REMARK  Name = 
REMARK  12 active torsions:
REMARK  status: ('A' for Active; 'I' for Inactive)
REMARK    1  A    between atoms: C_1  and  O_2
REMARK    2  A    between atoms: O_2  and  C_3
REMARK    3  A    between atoms: C_6  and  C_7
REMARK    4  A    between atoms: C_8  and  C_9
REMARK    5  A    between atoms: C_16  and  C_17
REMARK    6  A    between atoms: C_21  and  O_22
REMARK    7  A    between atoms: O_22  and  C_23
REMARK    8  A    between atoms: C_24  and  O_25
REMARK    9  A    between atoms: O_25  and  C_26
REMARK   10  A    between atoms: N_31  and  C_32
REMARK   11  A    between atoms: C_34  and  O_35
REMARK   12  A    between atoms: O_35  and  C_36
REMARK                            x       y       z     vdW  Elec       q    Type
REMARK                         _______ _______ _______ _____ _____    ______ ____
ROOT
ATOM      1  C   UNL     1      -0.168  13.506  20.845  0.00  0.00    +0.000 C 
ATOM      2  C   UNL     1      -1.108  13.006  19.705  0.00  0.00    +0.000 C 
ATOM      3  C   UNL     1      -2.534  12.797  20.180  0.00  0.00    +0.000 A 
ATOM      4  C   UNL     1      -3.466  12.184  19.328  0.00  0.00    +0.000 A 
ATOM      5  C   UNL     1      -4.773  11.920  19.748  0.00  0.00    +0.000 A 
ATOM      6  C   UNL     1      -5.190  12.340  21.022  0.00  0.00    +0.000 A 
ATOM      7  C   UNL     1      -4.276  12.993  21.855  0.00  0.00    +0.000 A 
ATOM      8  C   UNL     1      -2.958  13.223  21.438  0.00  0.00    +0.000 A 
ATOM      9  C   UNL     1      -2.065  13.997  22.332  0.00  0.00    +0.000 C 
ATOM     10  O   UNL     1      -2.448  14.286  23.462  0.00  0.00    +0.000 OA
ATOM     11  N   UNL     1      -0.838  14.408  21.804  0.00  0.00    +0.000 N 
ATOM     12  C   UNL     1      -0.034  15.225  22.706  0.00  0.00    +0.000 C 
ENDROOT
BRANCH   2  13
ATOM     13  C   UNL     1      -0.551  11.706  19.074  0.00  0.00    +0.000 C 
ATOM     14  O   UNL     1      -0.955  11.288  17.989  0.00  0.00    +0.000 OA
ATOM     15  N   UNL     1       0.436  11.079  19.808  0.00  0.00    +0.000 N 
ATOM     16  C   UNL     1       1.099   9.935  19.345  0.00  0.00    +0.000 A 
ATOM     17  C   UNL     1       1.688   9.879  18.087  0.00  0.00    +0.000 A 
ATOM     18  C   UNL     1       2.359   8.713  17.724  0.00  0.00    +0.000 A 
ATOM     19  C   UNL     1       2.369   7.632  18.600  0.00  0.00    +0.000 A 
ATOM     20  C   UNL     1       1.744   7.772  19.835  0.00  0.00    +0.000 A 
ATOM     21  C   UNL     1       1.622   6.608  20.773  0.00  0.00    +0.000 C 
ATOM     22  N   UNL     1       1.165   8.929  20.238  0.00  0.00    +0.000 NA
ATOM     23  H   UNL     1       0.329  11.064  20.814  0.00  0.00    +0.000 HD
ENDBRANCH   2  13
BRANCH   1  27
ATOM     24  C   UNL     1       3.393  15.546  19.458  0.00  0.00    +0.000 A 
ATOM     25  C   UNL     1       2.172  15.687  18.778  0.00  0.00    +0.000 A 
ATOM     26  C   UNL     1       1.033  15.004  19.198  0.00  0.00    +0.000 A 
ATOM     27  C   UNL     1       1.108  14.106  20.264  0.00  0.00    +0.000 A 
ATOM     28  C   UNL     1       2.372  13.818  20.799  0.00  0.00    +0.000 A 
ATOM     29  C   UNL     1       3.511  14.560  20.446  0.00  0.00    +0.000 A 
BRANCH  24  31
ATOM     30  C   UNL     1       4.681  17.435  20.047  0.00  0.00    +0.000 C 
ATOM     31  O   UNL     1       4.461  16.341  19.144  0.00  0.00    +0.000 OA
ENDBRANCH  24  31
BRANCH  29  32
ATOM     32  O   UNL     1       4.596  14.205  21.196  0.00  0.00    +0.000 OA
ATOM     33  C   UNL     1       4.654  14.586  22.561  0.00  0.00    +0.000 C 
ENDBRANCH  29  32
ENDBRANCH   1  27
BRANCH   5  34
ATOM     34  O   UNL     1      -5.693  11.283  18.949  0.00  0.00    +0.000 OA
ATOM     35  C   UNL     1      -5.553  11.522  17.548  0.00  0.00    +0.000 C 
ENDBRANCH   5  34
BRANCH   6  36
ATOM     36  O   UNL     1      -6.490  12.074  21.361  0.00  0.00    +0.000 OA
ATOM     37  C   UNL     1      -7.360  13.195  21.512  0.00  0.00    +0.000 C 
ENDBRANCH   6  36
TORSDOF 6
ENDMDL
MODEL 9
REMARK VINA RESULT:      -6.1      2.060      8.293
REMARK  Name = 
REMARK  12 active torsions:
REMARK  status: ('A' for Active; 'I' for Inactive)
REMARK    1  A    between atoms: C_1  and  O_2
REMARK    2  A    between atoms: O_2  and  C_3
REMARK    3  A    between atoms: C_6  and  C_7
REMARK    4  A    between atoms: C_8  and  C_9
REMARK    5  A    between atoms: C_16  and  C_17
REMARK    6  A    between atoms: C_21  and  O_22
REMARK    7  A    between atoms: O_22  and  C_23
REMARK    8  A    between atoms: C_24  and  O_25
REMARK    9  A    between atoms: O_25  and  C_26
REMARK   10  A    between atoms: N_31  and  C_32
REMARK   11  A    between atoms: C_34  and  O_35
REMARK   12  A    between atoms: O_35  and  C_36
REMARK                            x       y       z     vdW  Elec       q    Type
REMARK                         _______ _______ _______ _____ _____    ______ ____
ROOT
ATOM      1  C   UNL     1      -1.219  12.914  20.221  0.00  0.00    +0.000 C 
ATOM      2  C   UNL     1      -1.014  14.377  19.721  0.00  0.00    +0.000 C 
ATOM      3  C   UNL     1       0.354  14.590  19.100  0.00  0.00    +0.000 A 
ATOM      4  C   UNL     1       0.767  15.888  18.759  0.00  0.00    +0.000 A 
ATOM      5  C   UNL     1       2.041  16.134  18.240  0.00  0.00    +0.000 A 
ATOM      6  C   UNL     1       2.904  15.057  17.981  0.00  0.00    +0.000 A 
ATOM      7  C   UNL     1       2.477  13.758  18.276  0.00  0.00    +0.000 A 
ATOM      8  C   UNL     1       1.210  13.525  18.829  0.00  0.00    +0.000 A 
ATOM      9  C   UNL     1       0.784  12.120  19.036  0.00  0.00    +0.000 C 
ATOM     10  O   UNL     1       1.593  11.214  18.860  0.00  0.00    +0.000 OA
ATOM     11  N   UNL     1      -0.556  11.905  19.370  0.00  0.00    +0.000 N 
ATOM     12  C   UNL     1      -0.931  10.501  19.491  0.00  0.00    +0.000 C 
ENDROOT
BRANCH   2  13
ATOM     13  C   UNL     1      -1.246  15.383  20.876  0.00  0.00    +0.000 C 
ATOM     14  O   UNL     1      -2.015  16.337  20.760  0.00  0.00    +0.000 OA
ATOM     15  N   UNL     1      -0.548  15.109  22.036  0.00  0.00    +0.000 N 
ATOM     16  C   UNL     1      -0.701  15.873  23.199  0.00  0.00    +0.000 A 
ATOM     17  C   UNL     1      -1.950  16.141  23.749  0.00  0.00    +0.000 A 
ATOM     18  C   UNL     1      -2.006  16.879  24.930  0.00  0.00    +0.000 A 
ATOM     19  C   UNL     1      -0.827  17.369  25.484  0.00  0.00    +0.000 A 
ATOM     20  C   UNL     1       0.378  17.063  24.860  0.00  0.00    +0.000 A 
ATOM     21  C   UNL     1       1.668  17.656  25.341  0.00  0.00    +0.000 C 
ATOM     22  N   UNL     1       0.456  16.272  23.762  0.00  0.00    +0.000 NA
ATOM     23  H   UNL     1       0.399  14.768  21.938  0.00  0.00    +0.000 HD
ENDBRANCH   2  13
BRANCH   1  27
ATOM     24  C   UNL     1      -5.495  12.509  20.788  0.00  0.00    +0.000 A 
ATOM     25  C   UNL     1      -4.629  12.604  21.889  0.00  0.00    +0.000 A 
ATOM     26  C   UNL     1      -3.250  12.697  21.714  0.00  0.00    +0.000 A 
ATOM     27  C   UNL     1      -2.701  12.623  20.433  0.00  0.00    +0.000 A 
ATOM     28  C   UNL     1      -3.557  12.320  19.362  0.00  0.00    +0.000 A 
ATOM     29  C   UNL     1      -4.953  12.311  19.512  0.00  0.00    +0.000 A 
BRANCH  24  31
ATOM     30  C   UNL     1      -7.507  11.320  21.130  0.00  0.00    +0.000 C 
ATOM     31  O   UNL     1      -6.851  12.586  20.958  0.00  0.00    +0.000 OA
ENDBRANCH  24  31
BRANCH  29  32
ATOM     32  O   UNL     1      -5.587  12.139  18.314  0.00  0.00    +0.000 OA
ATOM     33  C   UNL     1      -4.840  11.713  17.186  0.00  0.00    +0.000 C 
ENDBRANCH  29  32
ENDBRANCH   1  27
BRANCH   5  34
ATOM     34  O   UNL     1       2.485  17.400  17.937  0.00  0.00    +0.000 OA
ATOM     35  C   UNL     1       1.618  18.169  17.104  0.00  0.00    +0.000 C 
ENDBRANCH   5  34
BRANCH   6  36
ATOM     36  O   UNL     1       4.127  15.365  17.447  0.00  0.00    +0.000 OA
ATOM     37  C   UNL     1       5.263  14.721  18.022  0.00  0.00    +0.000 C 
ENDBRANCH   6  36
TORSDOF 6
ENDMDL
