MODEL 1
REMARK VINA RESULT:      -7.0      0.000      0.000
REMARK  Name = 
REMARK  5 active torsions:
REMARK  status: ('A' for Active; 'I' for Inactive)
REMARK    1  A    between atoms: C_1  and  N_2
REMARK    2  A    between atoms: N_2  and  C_3
REMARK    3  A    between atoms: N_2  and  C_14
REMARK    4  A    between atoms: C_3  and  C_4
REMARK    5  A    between atoms: N_6  and  C_7
REMARK                            x       y       z     vdW  Elec       q    Type
REMARK                         _______ _______ _______ _____ _____    ______ ____
ROOT
ATOM      1  C   UNL     1       2.172   7.320  17.966  0.00  0.00    +0.000 C 
ENDROOT
BRANCH   1   2
ATOM      2  C   UNL     1       1.837   8.819  18.154  0.00  0.00    +0.000 C 
ATOM      3  O   UNL     1       2.175   9.734  17.407  0.00  0.00    +0.000 OA
ATOM      4  N   UNL     1       1.105   9.055  19.311  0.00  0.00    +0.000 N 
ATOM      5  H   UNL     1       0.901   8.254  19.904  0.00  0.00    +0.000 HD
BRANCH   4   6
ATOM      6  C   UNL     1       0.690  10.382  19.764  0.00  0.00    +0.000 C 
ATOM      7  C   UNL     1      -0.806  10.598  19.479  0.00  0.00    +0.000 C 
ATOM      8  C   UNL     1      -1.253  11.803  20.287  0.00  0.00    +0.000 C 
ATOM      9  S   UNL     1      -0.403  11.638  21.838  0.00  0.00    +0.000 S 
ATOM     10  O   UNL     1      -1.247  10.860  22.728  0.00  0.00    +0.000 OA
ATOM     11  O   UNL     1       0.118  12.936  22.214  0.00  0.00    +0.000 OA
ATOM     12  C   UNL     1       0.921  10.598  21.264  0.00  0.00    +0.000 C 
ENDBRANCH   4   6
ENDBRANCH   1   2
BRANCH   1  14
ATOM     13  C   UNL     1       4.437   6.779  17.349  0.00  0.00    +0.000 C 
ATOM     14  N   UNL     1       3.482   6.838  18.467  0.00  0.00    +0.000 NA
BRANCH  14  15
ATOM     15  C   UNL     1       3.465   5.591  19.292  0.00  0.00    +0.000 C 
ATOM     16  C   UNL     1       2.216   5.591  20.220  0.00  0.00    +0.000 C 
ATOM     17  C   UNL     1       2.124   4.479  21.268  0.00  0.00    +0.000 C 
ATOM     18  C   UNL     1       1.833   3.049  20.819  0.00  0.00    +0.000 C 
ATOM     19  C   UNL     1       0.836   2.903  19.673  0.00  0.00    +0.000 C 
ATOM     20  C   UNL     1       1.482   2.699  18.300  0.00  0.00    +0.000 C 
ATOM     21  C   UNL     1       2.249   3.889  17.706  0.00  0.00    +0.000 C 
ATOM     22  C   UNL     1       3.529   4.278  18.459  0.00  0.00    +0.000 C 
ENDBRANCH  14  15
ENDBRANCH   1  14
TORSDOF 4
ENDMDL
MODEL 2
REMARK VINA RESULT:      -6.6      3.965      7.742
REMARK  Name = 
REMARK  5 active torsions:
REMARK  status: ('A' for Active; 'I' for Inactive)
REMARK    1  A    between atoms: C_1  and  N_2
REMARK    2  A    between atoms: N_2  and  C_3
REMARK    3  A    between atoms: N_2  and  C_14
REMARK    4  A    between atoms: C_3  and  C_4
REMARK    5  A    between atoms: N_6  and  C_7
REMARK                            x       y       z     vdW  Elec       q    Type
REMARK                         _______ _______ _______ _____ _____    ______ ____
ROOT
ATOM      1  C   UNL     1       1.941   8.989  18.040  0.00  0.00    +0.000 C 
ENDROOT
BRANCH   1   2
ATOM      2  C   UNL     1       2.654   7.688  18.481  0.00  0.00    +0.000 C 
ATOM      3  O   UNL     1       2.380   7.013  19.470  0.00  0.00    +0.000 OA
ATOM      4  N   UNL     1       3.700   7.345  17.632  0.00  0.00    +0.000 N 
ATOM      5  H   UNL     1       3.898   7.977  16.859  0.00  0.00    +0.000 HD
BRANCH   4   6
ATOM      6  C   UNL     1       4.575   6.192  17.831  0.00  0.00    +0.000 C 
ATOM      7  C   UNL     1       4.296   5.120  16.763  0.00  0.00    +0.000 C 
ATOM      8  C   UNL     1       5.456   4.142  16.788  0.00  0.00    +0.000 C 
ATOM      9  S   UNL     1       6.891   5.160  17.030  0.00  0.00    +0.000 S 
ATOM     10  O   UNL     1       7.387   5.551  15.722  0.00  0.00    +0.000 OA
ATOM     11  O   UNL     1       7.743   4.523  18.014  0.00  0.00    +0.000 OA
ATOM     12  C   UNL     1       6.063   6.554  17.760  0.00  0.00    +0.000 C 
ENDBRANCH   4   6
ENDBRANCH   1   2
BRANCH   1  14
ATOM     13  C   UNL     1      -0.345   9.701  17.778  0.00  0.00    +0.000 C 
ATOM     14  N   UNL     1       0.701   9.374  18.758  0.00  0.00    +0.000 NA
BRANCH  14  15
ATOM     15  C   UNL     1       0.844  10.404  19.833  0.00  0.00    +0.000 C 
ATOM     16  C   UNL     1      -0.406  11.329  19.844  0.00  0.00    +0.000 C 
ATOM     17  C   UNL     1      -0.359  12.557  20.759  0.00  0.00    +0.000 C 
ATOM     18  C   UNL     1      -0.444  12.367  22.270  0.00  0.00    +0.000 C 
ATOM     19  C   UNL     1      -1.394  11.273  22.751  0.00  0.00    +0.000 C 
ATOM     20  C   UNL     1      -0.706   9.952  23.099  0.00  0.00    +0.000 C 
ATOM     21  C   UNL     1      -0.102   9.151  21.937  0.00  0.00    +0.000 C 
ATOM     22  C   UNL     1       1.101   9.813  21.249  0.00  0.00    +0.000 C 
ENDBRANCH  14  15
ENDBRANCH   1  14
TORSDOF 4
ENDMDL
MODEL 3
REMARK VINA RESULT:      -6.5      2.088      3.436
REMARK  Name = 
REMARK  5 active torsions:
REMARK  status: ('A' for Active; 'I' for Inactive)
REMARK    1  A    between atoms: C_1  and  N_2
REMARK    2  A    between atoms: N_2  and  C_3
REMARK    3  A    between atoms: N_2  and  C_14
REMARK    4  A    between atoms: C_3  and  C_4
REMARK    5  A    between atoms: N_6  and  C_7
REMARK                            x       y       z     vdW  Elec       q    Type
REMARK                         _______ _______ _______ _____ _____    ______ ____
ROOT
ATOM      1  C   UNL     1       2.210   7.350  19.001  0.00  0.00    +0.000 C 
ENDROOT
BRANCH   1   2
ATOM      2  C   UNL     1       1.777   8.688  18.355  0.00  0.00    +0.000 C 
ATOM      3  O   UNL     1       2.164   9.129  17.276  0.00  0.00    +0.000 OA
ATOM      4  N   UNL     1       0.886   9.395  19.154  0.00  0.00    +0.000 N 
ATOM      5  H   UNL     1       0.647   8.990  20.056  0.00  0.00    +0.000 HD
BRANCH   4   6
ATOM      6  C   UNL     1       0.348  10.712  18.817  0.00  0.00    +0.000 C 
ATOM      7  C   UNL     1      -1.024  10.567  18.134  0.00  0.00    +0.000 C 
ATOM      8  C   UNL     1      -1.685  11.934  18.149  0.00  0.00    +0.000 C 
ATOM      9  S   UNL     1      -1.271  12.609  19.739  0.00  0.00    +0.000 S 
ATOM     10  O   UNL     1      -2.309  12.214  20.676  0.00  0.00    +0.000 OA
ATOM     11  O   UNL     1      -0.887  13.995  19.560  0.00  0.00    +0.000 OA
ATOM     12  C   UNL     1       0.173  11.616  20.042  0.00  0.00    +0.000 C 
ENDBRANCH   4   6
ENDBRANCH   1   2
BRANCH   1  14
ATOM     13  C   UNL     1       2.598   5.037  18.449  0.00  0.00    +0.000 C 
ATOM     14  N   UNL     1       3.024   6.420  18.180  0.00  0.00    +0.000 NA
BRANCH  14  15
ATOM     15  C   UNL     1       4.508   6.600  18.239  0.00  0.00    +0.000 C 
ATOM     16  C   UNL     1       5.160   5.368  18.929  0.00  0.00    +0.000 C 
ATOM     17  C   UNL     1       6.657   5.454  19.242  0.00  0.00    +0.000 C 
ATOM     18  C   UNL     1       7.665   5.391  18.098  0.00  0.00    +0.000 C 
ATOM     19  C   UNL     1       7.324   4.427  16.964  0.00  0.00    +0.000 C 
ATOM     20  C   UNL     1       6.692   5.094  15.741  0.00  0.00    +0.000 C 
ATOM     21  C   UNL     1       5.276   5.664  15.910  0.00  0.00    +0.000 C 
ATOM     22  C   UNL     1       5.169   6.868  16.857  0.00  0.00    +0.000 C 
ENDBRANCH  14  15
ENDBRANCH   1  14
TORSDOF 4
ENDMDL
MODEL 4
REMARK VINA RESULT:      -6.5      3.369      7.005
REMARK  Name = 
REMARK  5 active torsions:
REMARK  status: ('A' for Active; 'I' for Inactive)
REMARK    1  A    between atoms: C_1  and  N_2
REMARK    2  A    between atoms: N_2  and  C_3
REMARK    3  A    between atoms: N_2  and  C_14
REMARK    4  A    between atoms: C_3  and  C_4
REMARK    5  A    between atoms: N_6  and  C_7
REMARK                            x       y       z     vdW  Elec       q    Type
REMARK                         _______ _______ _______ _____ _____    ______ ____
ROOT
ATOM      1  C   UNL     1       1.869   9.364  17.876  0.00  0.00    +0.000 C 
ENDROOT
BRANCH   1   2
ATOM      2  C   UNL     1       2.684   8.064  18.076  0.00  0.00    +0.000 C 
ATOM      3  O   UNL     1       3.762   7.798  17.550  0.00  0.00    +0.000 OA
ATOM      4  N   UNL     1       2.048   7.167  18.926  0.00  0.00    +0.000 N 
ATOM      5  H   UNL     1       1.136   7.436  19.288  0.00  0.00    +0.000 HD
BRANCH   4   6
ATOM      6  C   UNL     1       2.565   5.841  19.257  0.00  0.00    +0.000 C 
ATOM      7  C   UNL     1       2.114   5.431  20.670  0.00  0.00    +0.000 C 
ATOM      8  C   UNL     1       2.354   3.938  20.808  0.00  0.00    +0.000 C 
ATOM      9  S   UNL     1       1.897   3.267  19.228  0.00  0.00    +0.000 S 
ATOM     10  O   UNL     1       0.484   2.937  19.275  0.00  0.00    +0.000 OA
ATOM     11  O   UNL     1       2.899   2.296  18.837  0.00  0.00    +0.000 OA
ATOM     12  C   UNL     1       2.098   4.758  18.278  0.00  0.00    +0.000 C 
ENDBRANCH   4   6
ENDBRANCH   1   2
BRANCH   1  14
ATOM     13  C   UNL     1      -0.505   9.764  17.820  0.00  0.00    +0.000 C 
ATOM     14  N   UNL     1       0.652   9.549  18.703  0.00  0.00    +0.000 NA
BRANCH  14  15
ATOM     15  C   UNL     1       0.741  10.550  19.811  0.00  0.00    +0.000 C 
ATOM     16  C   UNL     1      -0.610  11.312  19.940  0.00  0.00    +0.000 C 
ATOM     17  C   UNL     1      -0.650  12.502  20.903  0.00  0.00    +0.000 C 
ATOM     18  C   UNL     1      -0.608  12.250  22.407  0.00  0.00    +0.000 C 
ATOM     19  C   UNL     1      -1.384  11.031  22.899  0.00  0.00    +0.000 C 
ATOM     20  C   UNL     1      -0.519   9.793  23.145  0.00  0.00    +0.000 C 
ATOM     21  C   UNL     1       0.098   9.115  21.913  0.00  0.00    +0.000 C 
ATOM     22  C   UNL     1       1.163   9.945  21.180  0.00  0.00    +0.000 C 
ENDBRANCH  14  15
ENDBRANCH   1  14
TORSDOF 4
ENDMDL
MODEL 5
REMARK VINA RESULT:      -6.4      1.179      2.116
REMARK  Name = 
REMARK  5 active torsions:
REMARK  status: ('A' for Active; 'I' for Inactive)
REMARK    1  A    between atoms: C_1  and  N_2
REMARK    2  A    between atoms: N_2  and  C_3
REMARK    3  A    between atoms: N_2  and  C_14
REMARK    4  A    between atoms: C_3  and  C_4
REMARK    5  A    between atoms: N_6  and  C_7
REMARK                            x       y       z     vdW  Elec       q    Type
REMARK                         _______ _______ _______ _____ _____    ______ ____
ROOT
ATOM      1  C   UNL     1       3.100   7.892  17.932  0.00  0.00    +0.000 C 
ENDROOT
BRANCH   1   2
ATOM      2  C   UNL     1       1.784   8.664  18.188  0.00  0.00    +0.000 C 
ATOM      3  O   UNL     1       0.936   8.947  17.345  0.00  0.00    +0.000 OA
ATOM      4  N   UNL     1       1.647   9.050  19.516  0.00  0.00    +0.000 N 
ATOM      5  H   UNL     1       2.411   8.820  20.148  0.00  0.00    +0.000 HD
BRANCH   4   6
ATOM      6  C   UNL     1       0.526   9.832  20.033  0.00  0.00    +0.000 C 
ATOM      7  C   UNL     1       0.454   9.710  21.566  0.00  0.00    +0.000 C 
ATOM      8  C   UNL     1      -0.465  10.810  22.065  0.00  0.00    +0.000 C 
ATOM      9  S   UNL     1      -0.070  12.215  21.053  0.00  0.00    +0.000 S 
ATOM     10  O   UNL     1       0.995  12.952  21.709  0.00  0.00    +0.000 OA
ATOM     11  O   UNL     1      -1.308  12.850  20.650  0.00  0.00    +0.000 OA
ATOM     12  C   UNL     1       0.624  11.320  19.681  0.00  0.00    +0.000 C 
ENDBRANCH   4   6
ENDBRANCH   1   2
BRANCH   1  14
ATOM     13  C   UNL     1       4.555   5.991  18.204  0.00  0.00    +0.000 C 
ATOM     14  N   UNL     1       3.310   6.622  18.670  0.00  0.00    +0.000 NA
BRANCH  14  15
ATOM     15  C   UNL     1       2.152   5.676  18.715  0.00  0.00    +0.000 C 
ATOM     16  C   UNL     1       2.567   4.307  18.106  0.00  0.00    +0.000 C 
ATOM     17  C   UNL     1       1.460   3.269  17.901  0.00  0.00    +0.000 C 
ATOM     18  C   UNL     1       0.846   2.580  19.117  0.00  0.00    +0.000 C 
ATOM     19  C   UNL     1       1.814   2.238  20.246  0.00  0.00    +0.000 C 
ATOM     20  C   UNL     1       1.809   3.240  21.403  0.00  0.00    +0.000 C 
ATOM     21  C   UNL     1       2.372   4.640  21.117  0.00  0.00    +0.000 C 
ATOM     22  C   UNL     1       1.546   5.483  20.135  0.00  0.00    +0.000 C 
ENDBRANCH  14  15
ENDBRANCH   1  14
TORSDOF 4
ENDMDL
MODEL 6
REMARK VINA RESULT:      -6.4      1.407      2.070
REMARK  Name = 
REMARK  5 active torsions:
REMARK  status: ('A' for Active; 'I' for Inactive)
REMARK    1  A    between atoms: C_1  and  N_2
REMARK    2  A    between atoms: N_2  and  C_3
REMARK    3  A    between atoms: N_2  and  C_14
REMARK    4  A    between atoms: C_3  and  C_4
REMARK    5  A    between atoms: N_6  and  C_7
REMARK                            x       y       z     vdW  Elec       q    Type
REMARK                         _______ _______ _______ _____ _____    ______ ____
ROOT
ATOM      1  C   UNL     1       3.225   7.332  17.190  0.00  0.00    +0.000 C 
ENDROOT
BRANCH   1   2
ATOM      2  C   UNL     1       2.519   8.528  17.872  0.00  0.00    +0.000 C 
ATOM      3  O   UNL     1       2.290   9.621  17.360  0.00  0.00    +0.000 OA
ATOM      4  N   UNL     1       2.171   8.254  19.190  0.00  0.00    +0.000 N 
ATOM      5  H   UNL     1       2.434   7.345  19.561  0.00  0.00    +0.000 HD
BRANCH   4   6
ATOM      6  C   UNL     1       1.535   9.216  20.088  0.00  0.00    +0.000 C 
ATOM      7  C   UNL     1       0.121   9.559  19.587  0.00  0.00    +0.000 C 
ATOM      8  C   UNL     1      -0.610  10.246  20.726  0.00  0.00    +0.000 C 
ATOM      9  S   UNL     1      -0.101   9.361  22.180  0.00  0.00    +0.000 S 
ATOM     10  O   UNL     1      -1.033   8.265  22.384  0.00  0.00    +0.000 OA
ATOM     11  O   UNL     1       0.191  10.324  23.222  0.00  0.00    +0.000 OA
ATOM     12  C   UNL     1       1.415   8.699  21.526  0.00  0.00    +0.000 C 
ENDBRANCH   4   6
ENDBRANCH   1   2
BRANCH   1  14
ATOM     13  C   UNL     1       5.142   6.081  17.938  0.00  0.00    +0.000 C 
ATOM     14  N   UNL     1       3.681   6.217  18.054  0.00  0.00    +0.000 NA
BRANCH  14  15
ATOM     15  C   UNL     1       2.956   4.917  17.906  0.00  0.00    +0.000 C 
ATOM     16  C   UNL     1       3.845   3.755  18.438  0.00  0.00    +0.000 C 
ATOM     17  C   UNL     1       3.343   2.328  18.204  0.00  0.00    +0.000 C 
ATOM     18  C   UNL     1       2.142   1.817  18.995  0.00  0.00    +0.000 C 
ATOM     19  C   UNL     1       2.066   2.269  20.452  0.00  0.00    +0.000 C 
ATOM     20  C   UNL     1       1.124   3.451  20.694  0.00  0.00    +0.000 C 
ATOM     21  C   UNL     1       1.547   4.810  20.118  0.00  0.00    +0.000 C 
ATOM     22  C   UNL     1       1.557   4.890  18.585  0.00  0.00    +0.000 C 
ENDBRANCH  14  15
ENDBRANCH   1  14
TORSDOF 4
ENDMDL
MODEL 7
REMARK VINA RESULT:      -6.3      1.862      2.455
REMARK  Name = 
REMARK  5 active torsions:
REMARK  status: ('A' for Active; 'I' for Inactive)
REMARK    1  A    between atoms: C_1  and  N_2
REMARK    2  A    between atoms: N_2  and  C_3
REMARK    3  A    between atoms: N_2  and  C_14
REMARK    4  A    between atoms: C_3  and  C_4
REMARK    5  A    between atoms: N_6  and  C_7
REMARK                            x       y       z     vdW  Elec       q    Type
REMARK                         _______ _______ _______ _____ _____    ______ ____
ROOT
ATOM      1  C   UNL     1       2.859   7.447  17.599  0.00  0.00    +0.000 C 
ENDROOT
BRANCH   1   2
ATOM      2  C   UNL     1       2.184   8.251  18.736  0.00  0.00    +0.000 C 
ATOM      3  O   UNL     1       2.038   7.879  19.897  0.00  0.00    +0.000 OA
ATOM      4  N   UNL     1       1.710   9.483  18.300  0.00  0.00    +0.000 N 
ATOM      5  H   UNL     1       1.825   9.704  17.314  0.00  0.00    +0.000 HD
BRANCH   4   6
ATOM      6  C   UNL     1       0.988  10.431  19.147  0.00  0.00    +0.000 C 
ATOM      7  C   UNL     1       1.332  11.876  18.743  0.00  0.00    +0.000 C 
ATOM      8  C   UNL     1       0.298  12.785  19.382  0.00  0.00    +0.000 C 
ATOM      9  S   UNL     1      -1.231  11.895  19.229  0.00  0.00    +0.000 S 
ATOM     10  O   UNL     1      -1.840  12.268  17.964  0.00  0.00    +0.000 OA
ATOM     11  O   UNL     1      -1.947  11.997  20.484  0.00  0.00    +0.000 OA
ATOM     12  C   UNL     1      -0.534  10.267  19.062  0.00  0.00    +0.000 C 
ENDBRANCH   4   6
ENDBRANCH   1   2
BRANCH   1  14
ATOM     13  C   UNL     1       5.083   6.523  17.527  0.00  0.00    +0.000 C 
ATOM     14  N   UNL     1       3.703   6.289  17.982  0.00  0.00    +0.000 NA
BRANCH  14  15
ATOM     15  C   UNL     1       3.185   4.934  17.617  0.00  0.00    +0.000 C 
ATOM     16  C   UNL     1       4.058   3.837  18.291  0.00  0.00    +0.000 C 
ATOM     17  C   UNL     1       3.790   2.384  17.887  0.00  0.00    +0.000 C 
ATOM     18  C   UNL     1       2.509   1.702  18.357  0.00  0.00    +0.000 C 
ATOM     19  C   UNL     1       2.054   2.044  19.773  0.00  0.00    +0.000 C 
ATOM     20  C   UNL     1       0.953   3.104  19.840  0.00  0.00    +0.000 C 
ATOM     21  C   UNL     1       1.335   4.535  19.435  0.00  0.00    +0.000 C 
ATOM     22  C   UNL     1       1.681   4.719  17.950  0.00  0.00    +0.000 C 
ENDBRANCH  14  15
ENDBRANCH   1  14
TORSDOF 4
ENDMDL
MODEL 8
REMARK VINA RESULT:      -6.3      0.812      1.816
REMARK  Name = 
REMARK  5 active torsions:
REMARK  status: ('A' for Active; 'I' for Inactive)
REMARK    1  A    between atoms: C_1  and  N_2
REMARK    2  A    between atoms: N_2  and  C_3
REMARK    3  A    between atoms: N_2  and  C_14
REMARK    4  A    between atoms: C_3  and  C_4
REMARK    5  A    between atoms: N_6  and  C_7
REMARK                            x       y       z     vdW  Elec       q    Type
REMARK                         _______ _______ _______ _____ _____    ______ ____
ROOT
ATOM      1  C   UNL     1       2.875   7.586  17.770  0.00  0.00    +0.000 C 
ENDROOT
BRANCH   1   2
ATOM      2  C   UNL     1       2.185   8.930  18.101  0.00  0.00    +0.000 C 
ATOM      3  O   UNL     1       2.145   9.921  17.374  0.00  0.00    +0.000 OA
ATOM      4  N   UNL     1       1.605   8.930  19.364  0.00  0.00    +0.000 N 
ATOM      5  H   UNL     1       1.718   8.091  19.927  0.00  0.00    +0.000 HD
BRANCH   4   6
ATOM      6  C   UNL     1       0.926  10.081  19.957  0.00  0.00    +0.000 C 
ATOM      7  C   UNL     1      -0.586  10.007  19.682  0.00  0.00    +0.000 C 
ATOM      8  C   UNL     1      -1.265  10.994  20.614  0.00  0.00    +0.000 C 
ATOM      9  S   UNL     1      -0.378  10.842  22.145  0.00  0.00    +0.000 S 
ATOM     10  O   UNL     1      -1.027   9.811  22.936  0.00  0.00    +0.000 OA
ATOM     11  O   UNL     1      -0.138  12.172  22.667  0.00  0.00    +0.000 OA
ATOM     12  C   UNL     1       1.127  10.175  21.473  0.00  0.00    +0.000 C 
ENDBRANCH   4   6
ENDBRANCH   1   2
BRANCH   1  14
ATOM     13  C   UNL     1       4.323   5.986  18.841  0.00  0.00    +0.000 C 
ATOM     14  N   UNL     1       2.976   6.578  18.854  0.00  0.00    +0.000 NA
BRANCH  14  15
ATOM     15  C   UNL     1       1.885   5.557  18.920  0.00  0.00    +0.000 C 
ATOM     16  C   UNL     1       2.363   4.232  18.258  0.00  0.00    +0.000 C 
ATOM     17  C   UNL     1       1.318   3.129  18.070  0.00  0.00    +0.000 C 
ATOM     18  C   UNL     1       0.802   2.372  19.291  0.00  0.00    +0.000 C 
ATOM     19  C   UNL     1       1.837   2.067  20.371  0.00  0.00    +0.000 C 
ATOM     20  C   UNL     1       1.815   3.039  21.553  0.00  0.00    +0.000 C 
ATOM     21  C   UNL     1       2.273   4.479  21.282  0.00  0.00    +0.000 C 
ATOM     22  C   UNL     1       1.353   5.290  20.358  0.00  0.00    +0.000 C 
ENDBRANCH  14  15
ENDBRANCH   1  14
TORSDOF 4
ENDMDL
MODEL 9
REMARK VINA RESULT:      -6.3      5.648      7.325
REMARK  Name = 
REMARK  5 active torsions:
REMARK  status: ('A' for Active; 'I' for Inactive)
REMARK    1  A    between atoms: C_1  and  N_2
REMARK    2  A    between atoms: N_2  and  C_3
REMARK    3  A    between atoms: N_2  and  C_14
REMARK    4  A    between atoms: C_3  and  C_4
REMARK    5  A    between atoms: N_6  and  C_7
REMARK                            x       y       z     vdW  Elec       q    Type
REMARK                         _______ _______ _______ _____ _____    ______ ____
ROOT
ATOM      1  C   UNL     1       7.814   7.055  17.642  0.00  0.00    +0.000 C 
ENDROOT
BRANCH   1   2
ATOM      2  C   UNL     1       7.807   8.596  17.779  0.00  0.00    +0.000 C 
ATOM      3  O   UNL     1       7.069   9.372  17.177  0.00  0.00    +0.000 OA
ATOM      4  N   UNL     1       8.774   9.051  18.668  0.00  0.00    +0.000 N 
ATOM      5  H   UNL     1       9.379   8.354  19.094  0.00  0.00    +0.000 HD
BRANCH   4   6
ATOM      6  C   UNL     1       9.025  10.462  18.957  0.00  0.00    +0.000 C 
ATOM      7  C   UNL     1       9.454  10.637  20.424  0.00  0.00    +0.000 C 
ATOM      8  C   UNL     1      10.050  12.027  20.560  0.00  0.00    +0.000 C 
ATOM      9  S   UNL     1      10.982  12.259  19.066  0.00  0.00    +0.000 S 
ATOM     10  O   UNL     1      12.331  11.773  19.302  0.00  0.00    +0.000 OA
ATOM     11  O   UNL     1      10.724  13.595  18.570  0.00  0.00    +0.000 OA
ATOM     12  C   UNL     1      10.119  11.066  18.069  0.00  0.00    +0.000 C 
ENDBRANCH   4   6
ENDBRANCH   1   2
BRANCH   1  14
ATOM     13  C   UNL     1       7.664   5.529  19.500  0.00  0.00    +0.000 C 
ATOM     14  N   UNL     1       6.886   6.282  18.504  0.00  0.00    +0.000 NA
BRANCH  14  15
ATOM     15  C   UNL     1       5.862   5.447  17.803  0.00  0.00    +0.000 C 
ATOM     16  C   UNL     1       5.203   4.465  18.814  0.00  0.00    +0.000 C 
ATOM     17  C   UNL     1       4.257   3.404  18.243  0.00  0.00    +0.000 C 
ATOM     18  C   UNL     1       2.891   3.829  17.712  0.00  0.00    +0.000 C 
ATOM     19  C   UNL     1       2.184   4.929  18.500  0.00  0.00    +0.000 C 
ATOM     20  C   UNL     1       2.327   6.327  17.894  0.00  0.00    +0.000 C 
ATOM     21  C   UNL     1       3.723   6.964  17.930  0.00  0.00    +0.000 C 
ATOM     22  C   UNL     1       4.777   6.271  17.053  0.00  0.00    +0.000 C 
ENDBRANCH  14  15
ENDBRANCH   1  14
TORSDOF 4
ENDMDL
