MODEL 1
REMARK VINA RESULT:      -7.9      0.000      0.000
REMARK  Name = 
REMARK  3 active torsions:
REMARK  status: ('A' for Active; 'I' for Inactive)
REMARK    1  A    between atoms: C_2  and  C_11
REMARK    2  A    between atoms: C_16  and  O_17
REMARK    3  A    between atoms: C_18  and  O_19
REMARK                            x       y       z     vdW  Elec       q    Type
REMARK                         _______ _______ _______ _____ _____    ______ ____
ROOT
ATOM      1  C   UNL     1       2.660   7.421  18.612  0.00  0.00    +0.000 A 
ATOM      2  C   UNL     1       3.610   7.065  17.654  0.00  0.00    +0.000 A 
ATOM      3  C   UNL     1       4.273   5.840  17.766  0.00  0.00    +0.000 A 
ATOM      4  C   UNL     1       3.988   4.951  18.798  0.00  0.00    +0.000 A 
ATOM      5  N   UNL     1       4.617   3.755  18.862  0.00  0.00    +0.000 NA
ATOM      6  C   UNL     1       4.232   2.964  19.870  0.00  0.00    +0.000 A 
ATOM      7  C   UNL     1       3.269   3.317  20.803  0.00  0.00    +0.000 A 
ATOM      8  N   UNL     1       2.650   4.506  20.772  0.00  0.00    +0.000 NA
ATOM      9  C   UNL     1       3.001   5.322  19.763  0.00  0.00    +0.000 A 
ATOM     10  C   UNL     1       2.368   6.549  19.663  0.00  0.00    +0.000 A 
ENDROOT
BRANCH   1  12
ATOM     11  O   UNL     1       1.957   9.303  17.423  0.00  0.00    +0.000 OA
ATOM     12  C   UNL     1       1.909   8.690  18.483  0.00  0.00    +0.000 C 
ATOM     13  N   UNL     1       1.265   9.093  19.630  0.00  0.00    +0.000 N 
ATOM     14  C   UNL     1       0.538  10.277  19.718  0.00  0.00    +0.000 A 
ATOM     15  C   UNL     1      -0.354  10.672  18.725  0.00  0.00    +0.000 A 
ATOM     16  C   UNL     1      -1.045  11.873  18.885  0.00  0.00    +0.000 A 
ATOM     17  C   UNL     1      -0.793  12.651  20.007  0.00  0.00    +0.000 A 
ATOM     18 CL   UNL     1      -1.562  14.170  20.214  0.00  0.00    +0.000 Cl
ATOM     19  C   UNL     1       0.099  12.169  20.953  0.00  0.00    +0.000 A 
ATOM     20  N   UNL     1       0.733  10.974  20.856  0.00  0.00    +0.000 NA
ATOM     21  H   UNL     1       1.653   8.796  20.517  0.00  0.00    +0.000 HD
ENDBRANCH   1  12
BRANCH   6  22
ATOM     22  O   UNL     1       4.854   1.755  19.916  0.00  0.00    +0.000 OA
ATOM     23  H   UNL     1       4.177   1.226  20.378  0.00  0.00    +0.000 HD
ENDBRANCH   6  22
BRANCH   7  24
ATOM     24  O   UNL     1       2.887   2.464  21.798  0.00  0.00    +0.000 OA
ATOM     25  H   UNL     1       3.175   2.895  22.622  0.00  0.00    +0.000 HD
ENDBRANCH   7  24
TORSDOF 3
ENDMDL
MODEL 2
REMARK VINA RESULT:      -7.9      2.910      3.910
REMARK  Name = 
REMARK  3 active torsions:
REMARK  status: ('A' for Active; 'I' for Inactive)
REMARK    1  A    between atoms: C_2  and  C_11
REMARK    2  A    between atoms: C_16  and  O_17
REMARK    3  A    between atoms: C_18  and  O_19
REMARK                            x       y       z     vdW  Elec       q    Type
REMARK                         _______ _______ _______ _____ _____    ______ ____
ROOT
ATOM      1  C   UNL     1       2.630   5.879  18.877  0.00  0.00    +0.000 A 
ATOM      2  C   UNL     1       2.177   4.633  18.442  0.00  0.00    +0.000 A 
ATOM      3  C   UNL     1       2.905   3.937  17.473  0.00  0.00    +0.000 A 
ATOM      4  C   UNL     1       4.090   4.446  16.949  0.00  0.00    +0.000 A 
ATOM      5  N   UNL     1       4.795   3.735  16.039  0.00  0.00    +0.000 NA
ATOM      6  C   UNL     1       5.939   4.302  15.640  0.00  0.00    +0.000 A 
ATOM      7  C   UNL     1       6.393   5.529  16.096  0.00  0.00    +0.000 A 
ATOM      8  N   UNL     1       5.699   6.262  16.980  0.00  0.00    +0.000 NA
ATOM      9  C   UNL     1       4.550   5.717  17.416  0.00  0.00    +0.000 A 
ATOM     10  C   UNL     1       3.810   6.414  18.355  0.00  0.00    +0.000 A 
ENDROOT
BRANCH   1  12
ATOM     11  O   UNL     1       1.431   5.975  20.878  0.00  0.00    +0.000 OA
ATOM     12  C   UNL     1       1.903   6.608  19.941  0.00  0.00    +0.000 C 
ATOM     13  N   UNL     1       1.773   7.960  19.721  0.00  0.00    +0.000 N 
ATOM     14  C   UNL     1       1.091   8.809  20.589  0.00  0.00    +0.000 A 
ATOM     15  C   UNL     1       1.261   8.749  21.969  0.00  0.00    +0.000 A 
ATOM     16  C   UNL     1       0.541   9.633  22.772  0.00  0.00    +0.000 A 
ATOM     17  C   UNL     1      -0.349  10.514  22.173  0.00  0.00    +0.000 A 
ATOM     18 CL   UNL     1      -1.312  11.570  23.122  0.00  0.00    +0.000 Cl
ATOM     19  C   UNL     1      -0.440  10.516  20.790  0.00  0.00    +0.000 A 
ATOM     20  N   UNL     1       0.298   9.715  19.982  0.00  0.00    +0.000 NA
ATOM     21  H   UNL     1       1.772   8.284  18.763  0.00  0.00    +0.000 HD
ENDBRANCH   1  12
BRANCH   6  22
ATOM     22  O   UNL     1       6.653   3.572  14.741  0.00  0.00    +0.000 OA
ATOM     23  H   UNL     1       6.014   3.523  14.006  0.00  0.00    +0.000 HD
ENDBRANCH   6  22
BRANCH   7  24
ATOM     24  O   UNL     1       7.583   6.055  15.682  0.00  0.00    +0.000 OA
ATOM     25  H   UNL     1       7.894   5.451  14.984  0.00  0.00    +0.000 HD
ENDBRANCH   7  24
TORSDOF 3
ENDMDL
MODEL 3
REMARK VINA RESULT:      -7.9      2.154      3.080
REMARK  Name = 
REMARK  3 active torsions:
REMARK  status: ('A' for Active; 'I' for Inactive)
REMARK    1  A    between atoms: C_2  and  C_11
REMARK    2  A    between atoms: C_16  and  O_17
REMARK    3  A    between atoms: C_18  and  O_19
REMARK                            x       y       z     vdW  Elec       q    Type
REMARK                         _______ _______ _______ _____ _____    ______ ____
ROOT
ATOM      1  C   UNL     1       2.793   7.676  18.353  0.00  0.00    +0.000 A 
ATOM      2  C   UNL     1       2.789   6.727  19.376  0.00  0.00    +0.000 A 
ATOM      3  C   UNL     1       3.773   5.734  19.397  0.00  0.00    +0.000 A 
ATOM      4  C   UNL     1       4.776   5.686  18.434  0.00  0.00    +0.000 A 
ATOM      5  N   UNL     1       5.739   4.737  18.499  0.00  0.00    +0.000 NA
ATOM      6  C   UNL     1       6.677   4.814  17.548  0.00  0.00    +0.000 A 
ATOM      7  C   UNL     1       6.686   5.776  16.550  0.00  0.00    +0.000 A 
ATOM      8  N   UNL     1       5.730   6.712  16.453  0.00  0.00    +0.000 NA
ATOM      9  C   UNL     1       4.778   6.674  17.402  0.00  0.00    +0.000 A 
ATOM     10  C   UNL     1       3.785   7.637  17.370  0.00  0.00    +0.000 A 
ENDROOT
BRANCH   1  12
ATOM     11  O   UNL     1       1.644   9.425  17.319  0.00  0.00    +0.000 OA
ATOM     12  C   UNL     1       1.793   8.767  18.342  0.00  0.00    +0.000 C 
ATOM     13  N   UNL     1       1.161   8.976  19.547  0.00  0.00    +0.000 N 
ATOM     14  C   UNL     1       0.216   9.979  19.745  0.00  0.00    +0.000 A 
ATOM     15  C   UNL     1      -0.803  10.227  18.830  0.00  0.00    +0.000 A 
ATOM     16  C   UNL     1      -1.711  11.250  19.100  0.00  0.00    +0.000 A 
ATOM     17  C   UNL     1      -1.546  12.012  20.250  0.00  0.00    +0.000 A 
ATOM     18 CL   UNL     1      -2.591  13.329  20.589  0.00  0.00    +0.000 Cl
ATOM     19  C   UNL     1      -0.513  11.682  21.112  0.00  0.00    +0.000 A 
ATOM     20  N   UNL     1       0.343  10.649  20.909  0.00  0.00    +0.000 NA
ATOM     21  H   UNL     1       1.660   8.724  20.390  0.00  0.00    +0.000 HD
ENDBRANCH   1  12
BRANCH   6  22
ATOM     22  O   UNL     1       7.652   3.869  17.632  0.00  0.00    +0.000 OA
ATOM     23  H   UNL     1       8.154   4.063  16.818  0.00  0.00    +0.000 HD
ENDBRANCH   6  22
BRANCH   7  24
ATOM     24  O   UNL     1       7.681   5.833  15.618  0.00  0.00    +0.000 OA
ATOM     25  H   UNL     1       8.007   4.918  15.542  0.00  0.00    +0.000 HD
ENDBRANCH   7  24
TORSDOF 3
ENDMDL
MODEL 4
REMARK VINA RESULT:      -7.8      2.672      3.509
REMARK  Name = 
REMARK  3 active torsions:
REMARK  status: ('A' for Active; 'I' for Inactive)
REMARK    1  A    between atoms: C_2  and  C_11
REMARK    2  A    between atoms: C_16  and  O_17
REMARK    3  A    between atoms: C_18  and  O_19
REMARK                            x       y       z     vdW  Elec       q    Type
REMARK                         _______ _______ _______ _____ _____    ______ ____
ROOT
ATOM      1  C   UNL     1       2.713   7.221  18.140  0.00  0.00    +0.000 A 
ATOM      2  C   UNL     1       2.239   5.936  18.407  0.00  0.00    +0.000 A 
ATOM      3  C   UNL     1       2.914   4.831  17.881  0.00  0.00    +0.000 A 
ATOM      4  C   UNL     1       4.068   4.981  17.118  0.00  0.00    +0.000 A 
ATOM      5  N   UNL     1       4.724   3.893  16.652  0.00  0.00    +0.000 NA
ATOM      6  C   UNL     1       5.844   4.155  15.969  0.00  0.00    +0.000 A 
ATOM      7  C   UNL     1       6.321   5.434  15.730  0.00  0.00    +0.000 A 
ATOM      8  N   UNL     1       5.675   6.528  16.163  0.00  0.00    +0.000 NA
ATOM      9  C   UNL     1       4.552   6.302  16.866  0.00  0.00    +0.000 A 
ATOM     10  C   UNL     1       3.863   7.393  17.365  0.00  0.00    +0.000 A 
ENDROOT
BRANCH   1  12
ATOM     11  O   UNL     1       2.212   9.500  18.214  0.00  0.00    +0.000 OA
ATOM     12  C   UNL     1       2.044   8.402  18.731  0.00  0.00    +0.000 C 
ATOM     13  N   UNL     1       1.331   8.141  19.879  0.00  0.00    +0.000 N 
ATOM     14  C   UNL     1       0.664   9.126  20.600  0.00  0.00    +0.000 A 
ATOM     15  C   UNL     1      -0.121  10.094  19.979  0.00  0.00    +0.000 A 
ATOM     16  C   UNL     1      -0.758  11.050  20.771  0.00  0.00    +0.000 A 
ATOM     17  C   UNL     1      -0.557  11.028  22.145  0.00  0.00    +0.000 A 
ATOM     18 CL   UNL     1      -1.257  12.226  23.153  0.00  0.00    +0.000 Cl
ATOM     19  C   UNL     1       0.227  10.018  22.677  0.00  0.00    +0.000 A 
ATOM     20  N   UNL     1       0.802   9.036  21.938  0.00  0.00    +0.000 NA
ATOM     21  H   UNL     1       1.628   7.360  20.450  0.00  0.00    +0.000 HD
ENDBRANCH   1  12
BRANCH   6  22
ATOM     22  O   UNL     1       6.510   3.056  15.522  0.00  0.00    +0.000 OA
ATOM     23  H   UNL     1       7.025   3.447  14.792  0.00  0.00    +0.000 HD
ENDBRANCH   6  22
BRANCH   7  24
ATOM     24  O   UNL     1       7.486   5.652  15.053  0.00  0.00    +0.000 OA
ATOM     25  H   UNL     1       8.189   5.369  15.665  0.00  0.00    +0.000 HD
ENDBRANCH   7  24
TORSDOF 3
ENDMDL
MODEL 5
REMARK VINA RESULT:      -7.7      1.384      1.384
REMARK  Name = 
REMARK  3 active torsions:
REMARK  status: ('A' for Active; 'I' for Inactive)
REMARK    1  A    between atoms: C_2  and  C_11
REMARK    2  A    between atoms: C_16  and  O_17
REMARK    3  A    between atoms: C_18  and  O_19
REMARK                            x       y       z     vdW  Elec       q    Type
REMARK                         _______ _______ _______ _____ _____    ______ ____
ROOT
ATOM      1  C   UNL     1       2.680   7.260  18.098  0.00  0.00    +0.000 A 
ATOM      2  C   UNL     1       3.964   7.123  17.570  0.00  0.00    +0.000 A 
ATOM      3  C   UNL     1       4.527   5.849  17.455  0.00  0.00    +0.000 A 
ATOM      4  C   UNL     1       3.826   4.707  17.830  0.00  0.00    +0.000 A 
ATOM      5  N   UNL     1       4.380   3.483  17.673  0.00  0.00    +0.000 NA
ATOM      6  C   UNL     1       3.599   2.456  18.026  0.00  0.00    +0.000 A 
ATOM      7  C   UNL     1       2.314   2.601  18.526  0.00  0.00    +0.000 A 
ATOM      8  N   UNL     1       1.753   3.806  18.712  0.00  0.00    +0.000 NA
ATOM      9  C   UNL     1       2.505   4.861  18.354  0.00  0.00    +0.000 A 
ATOM     10  C   UNL     1       1.963   6.127  18.493  0.00  0.00    +0.000 A 
ENDROOT
BRANCH   1  12
ATOM     11  O   UNL     1       2.218   9.391  17.265  0.00  0.00    +0.000 OA
ATOM     12  C   UNL     1       2.044   8.594  18.179  0.00  0.00    +0.000 C 
ATOM     13  N   UNL     1       1.353   8.829  19.346  0.00  0.00    +0.000 N 
ATOM     14  C   UNL     1       0.718  10.036  19.624  0.00  0.00    +0.000 A 
ATOM     15  C   UNL     1      -0.064  10.695  18.680  0.00  0.00    +0.000 A 
ATOM     16  C   UNL     1      -0.667  11.902  19.034  0.00  0.00    +0.000 A 
ATOM     17  C   UNL     1      -0.435  12.425  20.300  0.00  0.00    +0.000 A 
ATOM     18 CL   UNL     1      -1.092  13.941  20.757  0.00  0.00    +0.000 Cl
ATOM     19  C   UNL     1       0.344  11.691  21.180  0.00  0.00    +0.000 A 
ATOM     20  N   UNL     1       0.886  10.483  20.886  0.00  0.00    +0.000 NA
ATOM     21  H   UNL     1       1.650   8.333  20.177  0.00  0.00    +0.000 HD
ENDBRANCH   1  12
BRANCH   6  22
ATOM     22  O   UNL     1       4.155   1.228  17.846  0.00  0.00    +0.000 OA
ATOM     23  H   UNL     1       4.131   0.888  18.760  0.00  0.00    +0.000 HD
ENDBRANCH   6  22
BRANCH   7  24
ATOM     24  O   UNL     1       1.542   1.522  18.845  0.00  0.00    +0.000 OA
ATOM     25  H   UNL     1       1.969   0.768  18.402  0.00  0.00    +0.000 HD
ENDBRANCH   7  24
TORSDOF 3
ENDMDL
MODEL 6
REMARK VINA RESULT:      -7.5      2.498      3.423
REMARK  Name = 
REMARK  3 active torsions:
REMARK  status: ('A' for Active; 'I' for Inactive)
REMARK    1  A    between atoms: C_2  and  C_11
REMARK    2  A    between atoms: C_16  and  O_17
REMARK    3  A    between atoms: C_18  and  O_19
REMARK                            x       y       z     vdW  Elec       q    Type
REMARK                         _______ _______ _______ _____ _____    ______ ____
ROOT
ATOM      1  C   UNL     1       2.581   7.003  18.455  0.00  0.00    +0.000 A 
ATOM      2  C   UNL     1       2.106   5.697  18.584  0.00  0.00    +0.000 A 
ATOM      3  C   UNL     1       2.781   4.654  17.943  0.00  0.00    +0.000 A 
ATOM      4  C   UNL     1       3.936   4.884  17.201  0.00  0.00    +0.000 A 
ATOM      5  N   UNL     1       4.592   3.851  16.623  0.00  0.00    +0.000 NA
ATOM      6  C   UNL     1       5.713   4.184  15.973  0.00  0.00    +0.000 A 
ATOM      7  C   UNL     1       6.190   5.481  15.872  0.00  0.00    +0.000 A 
ATOM      8  N   UNL     1       5.544   6.523  16.418  0.00  0.00    +0.000 NA
ATOM      9  C   UNL     1       4.420   6.224  17.092  0.00  0.00    +0.000 A 
ATOM     10  C   UNL     1       3.732   7.256  17.705  0.00  0.00    +0.000 A 
ENDROOT
BRANCH   1  12
ATOM     11  O   UNL     1       1.881   8.100  20.393  0.00  0.00    +0.000 OA
ATOM     12  C   UNL     1       1.912   8.114  19.169  0.00  0.00    +0.000 C 
ATOM     13  N   UNL     1       1.318   9.045  18.348  0.00  0.00    +0.000 N 
ATOM     14  C   UNL     1       0.609  10.142  18.830  0.00  0.00    +0.000 A 
ATOM     15  C   UNL     1       1.087  10.930  19.874  0.00  0.00    +0.000 A 
ATOM     16  C   UNL     1       0.318  12.013  20.302  0.00  0.00    +0.000 A 
ATOM     17  C   UNL     1      -0.913  12.243  19.702  0.00  0.00    +0.000 A 
ATOM     18 CL   UNL     1      -1.929  13.515  20.242  0.00  0.00    +0.000 Cl
ATOM     19  C   UNL     1      -1.300  11.417  18.658  0.00  0.00    +0.000 A 
ATOM     20  N   UNL     1      -0.542  10.400  18.177  0.00  0.00    +0.000 NA
ATOM     21  H   UNL     1       1.005   8.738  17.436  0.00  0.00    +0.000 HD
ENDBRANCH   1  12
BRANCH   6  22
ATOM     22  O   UNL     1       6.378   3.138  15.411  0.00  0.00    +0.000 OA
ATOM     23  H   UNL     1       5.704   2.817  14.784  0.00  0.00    +0.000 HD
ENDBRANCH   6  22
BRANCH   7  24
ATOM     24  O   UNL     1       7.356   5.769  15.223  0.00  0.00    +0.000 OA
ATOM     25  H   UNL     1       7.081   6.111  14.353  0.00  0.00    +0.000 HD
ENDBRANCH   7  24
TORSDOF 3
ENDMDL
MODEL 7
REMARK VINA RESULT:      -7.5      2.079      2.581
REMARK  Name = 
REMARK  3 active torsions:
REMARK  status: ('A' for Active; 'I' for Inactive)
REMARK    1  A    between atoms: C_2  and  C_11
REMARK    2  A    between atoms: C_16  and  O_17
REMARK    3  A    between atoms: C_18  and  O_19
REMARK                            x       y       z     vdW  Elec       q    Type
REMARK                         _______ _______ _______ _____ _____    ______ ____
ROOT
ATOM      1  C   UNL     1       2.015   7.607  19.738  0.00  0.00    +0.000 A 
ATOM      2  C   UNL     1       2.331   8.140  18.488  0.00  0.00    +0.000 A 
ATOM      3  C   UNL     1       3.227   7.460  17.658  0.00  0.00    +0.000 A 
ATOM      4  C   UNL     1       3.793   6.247  18.038  0.00  0.00    +0.000 A 
ATOM      5  N   UNL     1       4.628   5.591  17.200  0.00  0.00    +0.000 NA
ATOM      6  C   UNL     1       5.076   4.414  17.652  0.00  0.00    +0.000 A 
ATOM      7  C   UNL     1       4.736   3.881  18.885  0.00  0.00    +0.000 A 
ATOM      8  N   UNL     1       3.928   4.524  19.741  0.00  0.00    +0.000 NA
ATOM      9  C   UNL     1       3.447   5.704  19.315  0.00  0.00    +0.000 A 
ATOM     10  C   UNL     1       2.581   6.396  20.144  0.00  0.00    +0.000 A 
ENDROOT
BRANCH   1  12
ATOM     11  O   UNL     1       0.396   7.615  21.420  0.00  0.00    +0.000 OA
ATOM     12  C   UNL     1       1.027   8.283  20.610  0.00  0.00    +0.000 C 
ATOM     13  N   UNL     1       0.872   9.627  20.362  0.00  0.00    +0.000 N 
ATOM     14  C   UNL     1      -0.035  10.427  21.052  0.00  0.00    +0.000 A 
ATOM     15  C   UNL     1      -0.174  10.363  22.436  0.00  0.00    +0.000 A 
ATOM     16  C   UNL     1      -1.106  11.197  23.055  0.00  0.00    +0.000 A 
ATOM     17  C   UNL     1      -1.889  12.031  22.268  0.00  0.00    +0.000 A 
ATOM     18 CL   UNL     1      -3.100  13.020  22.974  0.00  0.00    +0.000 Cl
ATOM     19  C   UNL     1      -1.670  12.041  20.900  0.00  0.00    +0.000 A 
ATOM     20  N   UNL     1      -0.725  11.291  20.280  0.00  0.00    +0.000 NA
ATOM     21  H   UNL     1       1.065   9.959  19.426  0.00  0.00    +0.000 HD
ENDBRANCH   1  12
BRANCH   6  22
ATOM     22  O   UNL     1       5.899   3.750  16.795  0.00  0.00    +0.000 OA
ATOM     23  H   UNL     1       5.955   4.398  16.068  0.00  0.00    +0.000 HD
ENDBRANCH   6  22
BRANCH   7  24
ATOM     24  O   UNL     1       5.195   2.661  19.292  0.00  0.00    +0.000 OA
ATOM     25  H   UNL     1       4.848   2.550  20.195  0.00  0.00    +0.000 HD
ENDBRANCH   7  24
TORSDOF 3
ENDMDL
MODEL 8
REMARK VINA RESULT:      -7.4      1.307      2.155
REMARK  Name = 
REMARK  3 active torsions:
REMARK  status: ('A' for Active; 'I' for Inactive)
REMARK    1  A    between atoms: C_2  and  C_11
REMARK    2  A    between atoms: C_16  and  O_17
REMARK    3  A    between atoms: C_18  and  O_19
REMARK                            x       y       z     vdW  Elec       q    Type
REMARK                         _______ _______ _______ _____ _____    ______ ____
ROOT
ATOM      1  C   UNL     1       2.160   7.791  18.929  0.00  0.00    +0.000 A 
ATOM      2  C   UNL     1       1.786   7.165  20.119  0.00  0.00    +0.000 A 
ATOM      3  C   UNL     1       2.284   5.892  20.412  0.00  0.00    +0.000 A 
ATOM      4  C   UNL     1       3.169   5.243  19.556  0.00  0.00    +0.000 A 
ATOM      5  N   UNL     1       3.666   4.027  19.882  0.00  0.00    +0.000 NA
ATOM      6  C   UNL     1       4.540   3.519  19.007  0.00  0.00    +0.000 A 
ATOM      7  C   UNL     1       4.925   4.159  17.839  0.00  0.00    +0.000 A 
ATOM      8  N   UNL     1       4.427   5.354  17.485  0.00  0.00    +0.000 NA
ATOM      9  C   UNL     1       3.556   5.903  18.349  0.00  0.00    +0.000 A 
ATOM     10  C   UNL     1       3.037   7.151  18.050  0.00  0.00    +0.000 A 
ENDROOT
BRANCH   1  12
ATOM     11  O   UNL     1       1.927   9.639  17.523  0.00  0.00    +0.000 OA
ATOM     12  C   UNL     1       1.686   9.160  18.624  0.00  0.00    +0.000 C 
ATOM     13  N   UNL     1       1.061   9.795  19.673  0.00  0.00    +0.000 N 
ATOM     14  C   UNL     1       0.580  11.099  19.593  0.00  0.00    +0.000 A 
ATOM     15  C   UNL     1      -0.147  11.554  18.496  0.00  0.00    +0.000 A 
ATOM     16  C   UNL     1      -0.594  12.875  18.490  0.00  0.00    +0.000 A 
ATOM     17  C   UNL     1      -0.267  13.702  19.556  0.00  0.00    +0.000 A 
ATOM     18 CL   UNL     1      -0.729  15.353  19.561  0.00  0.00    +0.000 Cl
ATOM     19  C   UNL     1       0.446  13.158  20.613  0.00  0.00    +0.000 A 
ATOM     20  N   UNL     1       0.834  11.860  20.677  0.00  0.00    +0.000 NA
ATOM     21  H   UNL     1       1.322   9.522  20.611  0.00  0.00    +0.000 HD
ENDBRANCH   1  12
BRANCH   6  22
ATOM     22  O   UNL     1       5.052   2.306  19.351  0.00  0.00    +0.000 OA
ATOM     23  H   UNL     1       4.387   2.013  20.002  0.00  0.00    +0.000 HD
ENDBRANCH   6  22
BRANCH   7  24
ATOM     24  O   UNL     1       5.844   3.614  16.990  0.00  0.00    +0.000 OA
ATOM     25  H   UNL     1       5.569   3.905  16.103  0.00  0.00    +0.000 HD
ENDBRANCH   7  24
TORSDOF 3
ENDMDL
MODEL 9
REMARK VINA RESULT:      -7.3      2.218      3.213
REMARK  Name = 
REMARK  3 active torsions:
REMARK  status: ('A' for Active; 'I' for Inactive)
REMARK    1  A    between atoms: C_2  and  C_11
REMARK    2  A    between atoms: C_16  and  O_17
REMARK    3  A    between atoms: C_18  and  O_19
REMARK                            x       y       z     vdW  Elec       q    Type
REMARK                         _______ _______ _______ _____ _____    ______ ____
ROOT
ATOM      1  C   UNL     1       2.302   7.050  19.528  0.00  0.00    +0.000 A 
ATOM      2  C   UNL     1       2.302   5.767  20.077  0.00  0.00    +0.000 A 
ATOM      3  C   UNL     1       3.028   4.751  19.449  0.00  0.00    +0.000 A 
ATOM      4  C   UNL     1       3.776   4.995  18.301  0.00  0.00    +0.000 A 
ATOM      5  N   UNL     1       4.501   4.002  17.735  0.00  0.00    +0.000 NA
ATOM      6  C   UNL     1       5.216   4.362  16.663  0.00  0.00    +0.000 A 
ATOM      7  C   UNL     1       5.229   5.646  16.140  0.00  0.00    +0.000 A 
ATOM      8  N   UNL     1       4.501   6.639  16.671  0.00  0.00    +0.000 NA
ATOM      9  C   UNL     1       3.780   6.318  17.760  0.00  0.00    +0.000 A 
ATOM     10  C   UNL     1       3.037   7.313  18.369  0.00  0.00    +0.000 A 
ENDROOT
BRANCH   1  12
ATOM     11  O   UNL     1       1.376   8.073  21.411  0.00  0.00    +0.000 OA
ATOM     12  C   UNL     1       1.583   8.152  20.206  0.00  0.00    +0.000 C 
ATOM     13  N   UNL     1       1.151   9.154  19.368  0.00  0.00    +0.000 N 
ATOM     14  C   UNL     1       0.426  10.256  19.812  0.00  0.00    +0.000 A 
ATOM     15  C   UNL     1       0.781  10.963  20.958  0.00  0.00    +0.000 A 
ATOM     16  C   UNL     1       0.003  12.056  21.338  0.00  0.00    +0.000 A 
ATOM     17  C   UNL     1      -1.119  12.379  20.586  0.00  0.00    +0.000 A 
ATOM     18 CL   UNL     1      -2.149  13.668  21.055  0.00  0.00    +0.000 Cl
ATOM     19  C   UNL     1      -1.385  11.631  19.451  0.00  0.00    +0.000 A 
ATOM     20  N   UNL     1      -0.608  10.606  19.020  0.00  0.00    +0.000 NA
ATOM     21  H   UNL     1       0.960   8.912  18.404  0.00  0.00    +0.000 HD
ENDBRANCH   1  12
BRANCH   6  22
ATOM     22  O   UNL     1       5.958   3.364  16.111  0.00  0.00    +0.000 OA
ATOM     23  H   UNL     1       6.845   3.603  16.438  0.00  0.00    +0.000 HD
ENDBRANCH   6  22
BRANCH   7  24
ATOM     24  O   UNL     1       5.998   5.974  15.061  0.00  0.00    +0.000 OA
ATOM     25  H   UNL     1       6.304   6.881  15.237  0.00  0.00    +0.000 HD
ENDBRANCH   7  24
TORSDOF 3
ENDMDL
