MODEL 1
REMARK VINA RESULT:      -8.3      0.000      0.000
REMARK  Name = 
REMARK  9 active torsions:
REMARK  status: ('A' for Active; 'I' for Inactive)
REMARK    1  A    between atoms: C_1  and  N_2
REMARK    2  A    between atoms: N_2  and  C_10
REMARK    3  A    between atoms: C_3  and  C_5
REMARK    4  A    between atoms: C_13  and  O_14
REMARK    5  A    between atoms: O_14  and  C_15
REMARK    6  A    between atoms: C_15  and  C_16
REMARK    7  A    between atoms: N_18  and  C_19
REMARK    8  A    between atoms: C_22  and  C_23
REMARK    9  A    between atoms: C_23  and  O_25
REMARK                            x       y       z     vdW  Elec       q    Type
REMARK                         _______ _______ _______ _____ _____    ______ ____
ROOT
ATOM      1  O   UNL     1       1.841   9.274  17.533  0.00  0.00    +0.000 OA
ENDROOT
BRANCH   1   5
ATOM      2  C   UNL     1       4.076   5.968  18.678  0.00  0.00    +0.000 A 
ATOM      3  C   UNL     1       4.262   6.572  17.435  0.00  0.00    +0.000 A 
ATOM      4  C   UNL     1       3.479   7.673  17.085  0.00  0.00    +0.000 A 
ATOM      5  C   UNL     1       2.518   8.169  17.970  0.00  0.00    +0.000 A 
ATOM      6  C   UNL     1       2.341   7.566  19.218  0.00  0.00    +0.000 A 
ATOM      7  C   UNL     1       3.100   6.446  19.561  0.00  0.00    +0.000 A 
BRANCH   2   9
ATOM      8  C   UNL     1       6.327   5.279  19.227  0.00  0.00    +0.000 C 
ATOM      9  N   UNL     1       4.916   4.922  19.109  0.00  0.00    +0.000 N 
ATOM     10  C   UNL     1       4.471   3.640  19.501  0.00  0.00    +0.000 C 
ATOM     11  O   UNL     1       5.297   2.813  19.896  0.00  0.00    +0.000 OA
BRANCH  10  12
ATOM     12  C   UNL     1       3.037   3.318  19.452  0.00  0.00    +0.000 A 
ATOM     13  C   UNL     1       2.036   3.374  20.415  0.00  0.00    +0.000 A 
ATOM     14  C   UNL     1       0.790   2.849  19.985  0.00  0.00    +0.000 A 
ATOM     15  C   UNL     1       0.818   2.515  18.654  0.00  0.00    +0.000 A 
ATOM     16  S   UNL     1       2.353   2.797  17.955  0.00  0.00    +0.000 S 
ENDBRANCH  10  12
ENDBRANCH   2   9
ENDBRANCH   1   5
BRANCH   1  17
ATOM     17  C   UNL     1       1.487  10.200  18.555  0.00  0.00    +0.000 C 
BRANCH  17  18
ATOM     18  C   UNL     1      -0.023  10.269  18.722  0.00  0.00    +0.000 C 
ATOM     19  O   UNL     1      -0.535   9.816  19.749  0.00  0.00    +0.000 OA
ATOM     20  N   UNL     1      -0.697  10.880  17.672  0.00  0.00    +0.000 N 
ATOM     21  H   UNL     1      -0.146  11.059  16.837  0.00  0.00    +0.000 HD
BRANCH  20  22
ATOM     22  C   UNL     1      -2.082  11.146  17.628  0.00  0.00    +0.000 A 
ATOM     23  C   UNL     1      -2.772  11.654  18.731  0.00  0.00    +0.000 A 
ATOM     24  C   UNL     1      -4.136  11.936  18.668  0.00  0.00    +0.000 A 
ATOM     25  C   UNL     1      -4.845  11.691  17.494  0.00  0.00    +0.000 A 
ATOM     26  C   UNL     1      -4.167  11.192  16.375  0.00  0.00    +0.000 A 
ATOM     27  C   UNL     1      -2.786  10.928  16.439  0.00  0.00    +0.000 A 
BRANCH  25  28
ATOM     28  C   UNL     1      -6.287  12.025  17.392  0.00  0.00    +0.000 C 
ATOM     29  O   UNL     1      -6.690  13.015  16.804  0.00  0.00    +0.000 OA
BRANCH  28  30
ATOM     30  O   UNL     1      -7.108  11.132  17.981  0.00  0.00    +0.000 OA
ATOM     31  H   UNL     1      -7.429  10.409  17.410  0.00  0.00    +0.000 HD
ENDBRANCH  28  30
ENDBRANCH  25  28
ENDBRANCH  20  22
ENDBRANCH  17  18
ENDBRANCH   1  17
TORSDOF 8
ENDMDL
MODEL 2
REMARK VINA RESULT:      -8.0      7.041     10.835
REMARK  Name = 
REMARK  9 active torsions:
REMARK  status: ('A' for Active; 'I' for Inactive)
REMARK    1  A    between atoms: C_1  and  N_2
REMARK    2  A    between atoms: N_2  and  C_10
REMARK    3  A    between atoms: C_3  and  C_5
REMARK    4  A    between atoms: C_13  and  O_14
REMARK    5  A    between atoms: O_14  and  C_15
REMARK    6  A    between atoms: C_15  and  C_16
REMARK    7  A    between atoms: N_18  and  C_19
REMARK    8  A    between atoms: C_22  and  C_23
REMARK    9  A    between atoms: C_23  and  O_25
REMARK                            x       y       z     vdW  Elec       q    Type
REMARK                         _______ _______ _______ _____ _____    ______ ____
ROOT
ATOM      1  O   UNL     1       8.593   9.123  18.777  0.00  0.00    +0.000 OA
ENDROOT
BRANCH   1   5
ATOM      2  C   UNL     1      10.115  12.956  18.294  0.00  0.00    +0.000 A 
ATOM      3  C   UNL     1       8.949  12.552  17.644  0.00  0.00    +0.000 A 
ATOM      4  C   UNL     1       8.480  11.250  17.824  0.00  0.00    +0.000 A 
ATOM      5  C   UNL     1       9.170  10.356  18.648  0.00  0.00    +0.000 A 
ATOM      6  C   UNL     1      10.332  10.768  19.305  0.00  0.00    +0.000 A 
ATOM      7  C   UNL     1      10.822  12.058  19.104  0.00  0.00    +0.000 A 
BRANCH   2   9
ATOM      8  C   UNL     1      11.449  14.578  17.099  0.00  0.00    +0.000 C 
ATOM      9  N   UNL     1      10.560  14.290  18.221  0.00  0.00    +0.000 N 
ATOM     10  C   UNL     1      10.136  15.330  19.079  0.00  0.00    +0.000 C 
ATOM     11  O   UNL     1      10.567  16.471  18.897  0.00  0.00    +0.000 OA
BRANCH  10  12
ATOM     12  C   UNL     1       9.178  15.042  20.157  0.00  0.00    +0.000 A 
ATOM     13  C   UNL     1       7.790  14.963  20.174  0.00  0.00    +0.000 A 
ATOM     14  C   UNL     1       7.237  14.782  21.468  0.00  0.00    +0.000 A 
ATOM     15  C   UNL     1       8.217  14.595  22.411  0.00  0.00    +0.000 A 
ATOM     16  S   UNL     1       9.784  14.683  21.733  0.00  0.00    +0.000 S 
ENDBRANCH  10  12
ENDBRANCH   2   9
ENDBRANCH   1   5
BRANCH   1  17
ATOM     17  C   UNL     1       8.198   8.518  17.551  0.00  0.00    +0.000 C 
BRANCH  17  18
ATOM     18  C   UNL     1       7.397   7.250  17.807  0.00  0.00    +0.000 C 
ATOM     19  O   UNL     1       7.816   6.432  18.630  0.00  0.00    +0.000 OA
ATOM     20  N   UNL     1       6.219   7.149  17.078  0.00  0.00    +0.000 N 
ATOM     21  H   UNL     1       6.098   7.831  16.336  0.00  0.00    +0.000 HD
BRANCH  20  22
ATOM     22  C   UNL     1       5.261   6.119  17.202  0.00  0.00    +0.000 A 
ATOM     23  C   UNL     1       5.527   4.811  16.793  0.00  0.00    +0.000 A 
ATOM     24  C   UNL     1       4.583   3.797  16.942  0.00  0.00    +0.000 A 
ATOM     25  C   UNL     1       3.334   4.083  17.489  0.00  0.00    +0.000 A 
ATOM     26  C   UNL     1       3.054   5.388  17.914  0.00  0.00    +0.000 A 
ATOM     27  C   UNL     1       4.019   6.402  17.778  0.00  0.00    +0.000 A 
BRANCH  25  28
ATOM     28  C   UNL     1       2.330   3.010  17.697  0.00  0.00    +0.000 C 
ATOM     29  O   UNL     1       1.143   3.245  17.851  0.00  0.00    +0.000 OA
BRANCH  28  30
ATOM     30  O   UNL     1       2.838   1.761  17.678  0.00  0.00    +0.000 OA
ATOM     31  H   UNL     1       3.032   1.396  16.794  0.00  0.00    +0.000 HD
ENDBRANCH  28  30
ENDBRANCH  25  28
ENDBRANCH  20  22
ENDBRANCH  17  18
ENDBRANCH   1  17
TORSDOF 8
ENDMDL
MODEL 3
REMARK VINA RESULT:      -8.0      2.861      3.419
REMARK  Name = 
REMARK  9 active torsions:
REMARK  status: ('A' for Active; 'I' for Inactive)
REMARK    1  A    between atoms: C_1  and  N_2
REMARK    2  A    between atoms: N_2  and  C_10
REMARK    3  A    between atoms: C_3  and  C_5
REMARK    4  A    between atoms: C_13  and  O_14
REMARK    5  A    between atoms: O_14  and  C_15
REMARK    6  A    between atoms: C_15  and  C_16
REMARK    7  A    between atoms: N_18  and  C_19
REMARK    8  A    between atoms: C_22  and  C_23
REMARK    9  A    between atoms: C_23  and  O_25
REMARK                            x       y       z     vdW  Elec       q    Type
REMARK                         _______ _______ _______ _____ _____    ______ ____
ROOT
ATOM      1  O   UNL     1       1.566   9.213  17.665  0.00  0.00    +0.000 OA
ENDROOT
BRANCH   1   5
ATOM      2  C   UNL     1       3.921   5.964  18.731  0.00  0.00    +0.000 A 
ATOM      3  C   UNL     1       4.045   6.569  17.480  0.00  0.00    +0.000 A 
ATOM      4  C   UNL     1       3.223   7.651  17.158  0.00  0.00    +0.000 A 
ATOM      5  C   UNL     1       2.285   8.126  18.078  0.00  0.00    +0.000 A 
ATOM      6  C   UNL     1       2.171   7.523  19.333  0.00  0.00    +0.000 A 
ATOM      7  C   UNL     1       2.968   6.423  19.649  0.00  0.00    +0.000 A 
BRANCH   2   9
ATOM      8  C   UNL     1       6.201   5.344  19.243  0.00  0.00    +0.000 C 
ATOM      9  N   UNL     1       4.802   4.941  19.131  0.00  0.00    +0.000 N 
ATOM     10  C   UNL     1       4.406   3.636  19.502  0.00  0.00    +0.000 C 
ATOM     11  O   UNL     1       5.264   2.830  19.871  0.00  0.00    +0.000 OA
BRANCH  10  12
ATOM     12  C   UNL     1       2.983   3.265  19.460  0.00  0.00    +0.000 A 
ATOM     13  C   UNL     1       1.978   3.319  20.419  0.00  0.00    +0.000 A 
ATOM     14  C   UNL     1       0.751   2.739  20.004  0.00  0.00    +0.000 A 
ATOM     15  C   UNL     1       0.795   2.363  18.684  0.00  0.00    +0.000 A 
ATOM     16  S   UNL     1       2.321   2.673  17.980  0.00  0.00    +0.000 S 
ENDBRANCH  10  12
ENDBRANCH   2   9
ENDBRANCH   1   5
BRANCH   1  17
ATOM     17  C   UNL     1       1.652  10.346  18.522  0.00  0.00    +0.000 C 
BRANCH  17  18
ATOM     18  C   UNL     1       0.338  10.569  19.257  0.00  0.00    +0.000 C 
ATOM     19  O   UNL     1      -0.673   9.977  18.871  0.00  0.00    +0.000 OA
ATOM     20  N   UNL     1       0.419  11.432  20.343  0.00  0.00    +0.000 N 
ATOM     21  H   UNL     1       1.286  11.952  20.432  0.00  0.00    +0.000 HD
BRANCH  20  22
ATOM     22  C   UNL     1      -0.634  11.730  21.235  0.00  0.00    +0.000 A 
ATOM     23  C   UNL     1      -0.787  11.057  22.449  0.00  0.00    +0.000 A 
ATOM     24  C   UNL     1      -1.816  11.376  23.332  0.00  0.00    +0.000 A 
ATOM     25  C   UNL     1      -2.733  12.373  23.003  0.00  0.00    +0.000 A 
ATOM     26  C   UNL     1      -2.587  13.067  21.795  0.00  0.00    +0.000 A 
ATOM     27  C   UNL     1      -1.535  12.751  20.916  0.00  0.00    +0.000 A 
BRANCH  25  28
ATOM     28  C   UNL     1      -3.809  12.760  23.949  0.00  0.00    +0.000 C 
ATOM     29  O   UNL     1      -4.488  11.937  24.540  0.00  0.00    +0.000 OA
BRANCH  28  30
ATOM     30  O   UNL     1      -3.954  14.091  24.113  0.00  0.00    +0.000 OA
ATOM     31  H   UNL     1      -4.863  14.401  24.286  0.00  0.00    +0.000 HD
ENDBRANCH  28  30
ENDBRANCH  25  28
ENDBRANCH  20  22
ENDBRANCH  17  18
ENDBRANCH   1  17
TORSDOF 8
ENDMDL
MODEL 4
REMARK VINA RESULT:      -7.9      0.742      1.165
REMARK  Name = 
REMARK  9 active torsions:
REMARK  status: ('A' for Active; 'I' for Inactive)
REMARK    1  A    between atoms: C_1  and  N_2
REMARK    2  A    between atoms: N_2  and  C_10
REMARK    3  A    between atoms: C_3  and  C_5
REMARK    4  A    between atoms: C_13  and  O_14
REMARK    5  A    between atoms: O_14  and  C_15
REMARK    6  A    between atoms: C_15  and  C_16
REMARK    7  A    between atoms: N_18  and  C_19
REMARK    8  A    between atoms: C_22  and  C_23
REMARK    9  A    between atoms: C_23  and  O_25
REMARK                            x       y       z     vdW  Elec       q    Type
REMARK                         _______ _______ _______ _____ _____    ______ ____
ROOT
ATOM      1  O   UNL     1       1.725   8.891  17.373  0.00  0.00    +0.000 OA
ENDROOT
BRANCH   1   5
ATOM      2  C   UNL     1       4.212   5.861  18.741  0.00  0.00    +0.000 A 
ATOM      3  C   UNL     1       3.145   6.324  19.510  0.00  0.00    +0.000 A 
ATOM      4  C   UNL     1       2.342   7.354  19.017  0.00  0.00    +0.000 A 
ATOM      5  C   UNL     1       2.602   7.917  17.765  0.00  0.00    +0.000 A 
ATOM      6  C   UNL     1       3.666   7.444  16.994  0.00  0.00    +0.000 A 
ATOM      7  C   UNL     1       4.490   6.436  17.495  0.00  0.00    +0.000 A 
BRANCH   2   9
ATOM      8  C   UNL     1       6.411   5.011  19.275  0.00  0.00    +0.000 C 
ATOM      9  N   UNL     1       4.979   4.755  19.157  0.00  0.00    +0.000 N 
ATOM     10  C   UNL     1       4.446   3.502  19.538  0.00  0.00    +0.000 C 
ATOM     11  O   UNL     1       5.213   2.615  19.921  0.00  0.00    +0.000 OA
BRANCH  10  12
ATOM     12  C   UNL     1       2.993   3.281  19.489  0.00  0.00    +0.000 A 
ATOM     13  C   UNL     1       1.997   3.414  20.451  0.00  0.00    +0.000 A 
ATOM     14  C   UNL     1       0.718   2.975  20.024  0.00  0.00    +0.000 A 
ATOM     15  C   UNL     1       0.723   2.631  18.695  0.00  0.00    +0.000 A 
ATOM     16  S   UNL     1       2.274   2.801  17.995  0.00  0.00    +0.000 S 
ENDBRANCH  10  12
ENDBRANCH   2   9
ENDBRANCH   1   5
BRANCH   1  17
ATOM     17  C   UNL     1       1.604   9.983  18.277  0.00  0.00    +0.000 C 
BRANCH  17  18
ATOM     18  C   UNL     1       0.176  10.106  18.788  0.00  0.00    +0.000 C 
ATOM     19  O   UNL     1      -0.062   9.854  19.972  0.00  0.00    +0.000 OA
ATOM     20  N   UNL     1      -0.747  10.530  17.839  0.00  0.00    +0.000 N 
ATOM     21  H   UNL     1      -0.418  10.546  16.879  0.00  0.00    +0.000 HD
BRANCH  20  22
ATOM     22  C   UNL     1      -2.109  10.807  18.084  0.00  0.00    +0.000 A 
ATOM     23  C   UNL     1      -2.514  11.874  18.888  0.00  0.00    +0.000 A 
ATOM     24  C   UNL     1      -3.862  12.152  19.103  0.00  0.00    +0.000 A 
ATOM     25  C   UNL     1      -4.840  11.344  18.527  0.00  0.00    +0.000 A 
ATOM     26  C   UNL     1      -4.453  10.275  17.709  0.00  0.00    +0.000 A 
ATOM     27  C   UNL     1      -3.090  10.012  17.481  0.00  0.00    +0.000 A 
BRANCH  25  28
ATOM     28  C   UNL     1      -6.282  11.648  18.707  0.00  0.00    +0.000 C 
ATOM     29  O   UNL     1      -6.676  12.713  19.152  0.00  0.00    +0.000 OA
BRANCH  28  30
ATOM     30  O   UNL     1      -7.112  10.660  18.315  0.00  0.00    +0.000 OA
ATOM     31  H   UNL     1      -6.754   9.755  18.378  0.00  0.00    +0.000 HD
ENDBRANCH  28  30
ENDBRANCH  25  28
ENDBRANCH  20  22
ENDBRANCH  17  18
ENDBRANCH   1  17
TORSDOF 8
ENDMDL
MODEL 5
REMARK VINA RESULT:      -7.9      2.834      3.609
REMARK  Name = 
REMARK  9 active torsions:
REMARK  status: ('A' for Active; 'I' for Inactive)
REMARK    1  A    between atoms: C_1  and  N_2
REMARK    2  A    between atoms: N_2  and  C_10
REMARK    3  A    between atoms: C_3  and  C_5
REMARK    4  A    between atoms: C_13  and  O_14
REMARK    5  A    between atoms: O_14  and  C_15
REMARK    6  A    between atoms: C_15  and  C_16
REMARK    7  A    between atoms: N_18  and  C_19
REMARK    8  A    between atoms: C_22  and  C_23
REMARK    9  A    between atoms: C_23  and  O_25
REMARK                            x       y       z     vdW  Elec       q    Type
REMARK                         _______ _______ _______ _____ _____    ______ ____
ROOT
ATOM      1  O   UNL     1       1.312   8.946  17.713  0.00  0.00    +0.000 OA
ENDROOT
BRANCH   1   5
ATOM      2  C   UNL     1       4.038   6.018  18.822  0.00  0.00    +0.000 A 
ATOM      3  C   UNL     1       3.028   6.432  19.690  0.00  0.00    +0.000 A 
ATOM      4  C   UNL     1       2.141   7.430  19.281  0.00  0.00    +0.000 A 
ATOM      5  C   UNL     1       2.261   8.009  18.015  0.00  0.00    +0.000 A 
ATOM      6  C   UNL     1       3.269   7.584  17.145  0.00  0.00    +0.000 A 
ATOM      7  C   UNL     1       4.177   6.609  17.560  0.00  0.00    +0.000 A 
BRANCH   2   9
ATOM      8  C   UNL     1       6.295   5.296  19.301  0.00  0.00    +0.000 C 
ATOM      9  N   UNL     1       4.885   4.944  19.158  0.00  0.00    +0.000 N 
ATOM     10  C   UNL     1       4.448   3.630  19.440  0.00  0.00    +0.000 C 
ATOM     11  O   UNL     1       5.279   2.776  19.759  0.00  0.00    +0.000 OA
BRANCH  10  12
ATOM     12  C   UNL     1       3.015   3.306  19.369  0.00  0.00    +0.000 A 
ATOM     13  C   UNL     1       2.168   3.058  18.294  0.00  0.00    +0.000 A 
ATOM     14  C   UNL     1       0.805   2.905  18.655  0.00  0.00    +0.000 A 
ATOM     15  C   UNL     1       0.643   2.910  20.019  0.00  0.00    +0.000 A 
ATOM     16  S   UNL     1       2.125   3.141  20.839  0.00  0.00    +0.000 S 
ENDBRANCH  10  12
ENDBRANCH   2   9
ENDBRANCH   1   5
BRANCH   1  17
ATOM     17  C   UNL     1       1.488  10.202  18.358  0.00  0.00    +0.000 C 
BRANCH  17  18
ATOM     18  C   UNL     1       0.210  10.631  19.065  0.00  0.00    +0.000 C 
ATOM     19  O   UNL     1      -0.875  10.449  18.506  0.00  0.00    +0.000 OA
ATOM     20  N   UNL     1       0.401  11.183  20.326  0.00  0.00    +0.000 N 
ATOM     21  H   UNL     1       1.361  11.402  20.573  0.00  0.00    +0.000 HD
BRANCH  20  22
ATOM     22  C   UNL     1      -0.624  11.574  21.215  0.00  0.00    +0.000 A 
ATOM     23  C   UNL     1      -1.512  12.607  20.910  0.00  0.00    +0.000 A 
ATOM     24  C   UNL     1      -2.535  12.968  21.785  0.00  0.00    +0.000 A 
ATOM     25  C   UNL     1      -2.674  12.307  23.004  0.00  0.00    +0.000 A 
ATOM     26  C   UNL     1      -1.799  11.261  23.322  0.00  0.00    +0.000 A 
ATOM     27  C   UNL     1      -0.780  10.890  22.425  0.00  0.00    +0.000 A 
BRANCH  25  28
ATOM     28  C   UNL     1      -3.783  12.646  23.932  0.00  0.00    +0.000 C 
ATOM     29  O   UNL     1      -4.258  13.767  24.002  0.00  0.00    +0.000 OA
BRANCH  28  30
ATOM     30  O   UNL     1      -4.231  11.608  24.666  0.00  0.00    +0.000 OA
ATOM     31  H   UNL     1      -4.942  11.077  24.260  0.00  0.00    +0.000 HD
ENDBRANCH  28  30
ENDBRANCH  25  28
ENDBRANCH  20  22
ENDBRANCH  17  18
ENDBRANCH   1  17
TORSDOF 8
ENDMDL
MODEL 6
REMARK VINA RESULT:      -7.9      7.979     11.177
REMARK  Name = 
REMARK  9 active torsions:
REMARK  status: ('A' for Active; 'I' for Inactive)
REMARK    1  A    between atoms: C_1  and  N_2
REMARK    2  A    between atoms: N_2  and  C_10
REMARK    3  A    between atoms: C_3  and  C_5
REMARK    4  A    between atoms: C_13  and  O_14
REMARK    5  A    between atoms: O_14  and  C_15
REMARK    6  A    between atoms: C_15  and  C_16
REMARK    7  A    between atoms: N_18  and  C_19
REMARK    8  A    between atoms: C_22  and  C_23
REMARK    9  A    between atoms: C_23  and  O_25
REMARK                            x       y       z     vdW  Elec       q    Type
REMARK                         _______ _______ _______ _____ _____    ______ ____
ROOT
ATOM      1  O   UNL     1       8.913   9.120  18.855  0.00  0.00    +0.000 OA
ENDROOT
BRANCH   1   5
ATOM      2  C   UNL     1       9.979  13.099  18.334  0.00  0.00    +0.000 A 
ATOM      3  C   UNL     1       8.873  12.554  17.682  0.00  0.00    +0.000 A 
ATOM      4  C   UNL     1       8.559  11.208  17.875  0.00  0.00    +0.000 A 
ATOM      5  C   UNL     1       9.342  10.411  18.714  0.00  0.00    +0.000 A 
ATOM      6  C   UNL     1      10.444  10.963  19.372  0.00  0.00    +0.000 A 
ATOM      7  C   UNL     1      10.781  12.300  19.159  0.00  0.00    +0.000 A 
BRANCH   2   9
ATOM      8  C   UNL     1      11.112  14.854  17.119  0.00  0.00    +0.000 C 
ATOM      9  N   UNL     1      10.266  14.475  18.247  0.00  0.00    +0.000 N 
ATOM     10  C   UNL     1       9.726  15.466  19.097  0.00  0.00    +0.000 C 
ATOM     11  O   UNL     1      10.021  16.649  18.903  0.00  0.00    +0.000 OA
BRANCH  10  12
ATOM     12  C   UNL     1       8.812  15.079  20.182  0.00  0.00    +0.000 A 
ATOM     13  C   UNL     1       7.435  14.892  20.218  0.00  0.00    +0.000 A 
ATOM     14  C   UNL     1       6.919  14.637  21.515  0.00  0.00    +0.000 A 
ATOM     15  C   UNL     1       7.926  14.505  22.438  0.00  0.00    +0.000 A 
ATOM     16  S   UNL     1       9.470  14.731  21.739  0.00  0.00    +0.000 S 
ENDBRANCH  10  12
ENDBRANCH   2   9
ENDBRANCH   1   5
BRANCH   1  17
ATOM     17  C   UNL     1       8.044   8.665  17.825  0.00  0.00    +0.000 C 
BRANCH  17  18
ATOM     18  C   UNL     1       7.557   7.252  18.113  0.00  0.00    +0.000 C 
ATOM     19  O   UNL     1       8.214   6.534  18.871  0.00  0.00    +0.000 OA
ATOM     20  N   UNL     1       6.364   6.910  17.488  0.00  0.00    +0.000 N 
ATOM     21  H   UNL     1       6.033   7.557  16.780  0.00  0.00    +0.000 HD
BRANCH  20  22
ATOM     22  C   UNL     1       5.662   5.697  17.665  0.00  0.00    +0.000 A 
ATOM     23  C   UNL     1       5.345   5.205  18.933  0.00  0.00    +0.000 A 
ATOM     24  C   UNL     1       4.631   4.020  19.094  0.00  0.00    +0.000 A 
ATOM     25  C   UNL     1       4.236   3.286  17.977  0.00  0.00    +0.000 A 
ATOM     26  C   UNL     1       4.536   3.771  16.697  0.00  0.00    +0.000 A 
ATOM     27  C   UNL     1       5.241   4.978  16.542  0.00  0.00    +0.000 A 
BRANCH  25  28
ATOM     28  C   UNL     1       3.437   2.044  18.125  0.00  0.00    +0.000 C 
ATOM     29  O   UNL     1       2.218   2.039  18.065  0.00  0.00    +0.000 OA
BRANCH  28  30
ATOM     30  O   UNL     1       4.171   0.928  18.305  0.00  0.00    +0.000 OA
ATOM     31  H   UNL     1       4.007   0.205  17.670  0.00  0.00    +0.000 HD
ENDBRANCH  28  30
ENDBRANCH  25  28
ENDBRANCH  20  22
ENDBRANCH  17  18
ENDBRANCH   1  17
TORSDOF 8
ENDMDL
MODEL 7
REMARK VINA RESULT:      -7.9      1.491      2.720
REMARK  Name = 
REMARK  9 active torsions:
REMARK  status: ('A' for Active; 'I' for Inactive)
REMARK    1  A    between atoms: C_1  and  N_2
REMARK    2  A    between atoms: N_2  and  C_10
REMARK    3  A    between atoms: C_3  and  C_5
REMARK    4  A    between atoms: C_13  and  O_14
REMARK    5  A    between atoms: O_14  and  C_15
REMARK    6  A    between atoms: C_15  and  C_16
REMARK    7  A    between atoms: N_18  and  C_19
REMARK    8  A    between atoms: C_22  and  C_23
REMARK    9  A    between atoms: C_23  and  O_25
REMARK                            x       y       z     vdW  Elec       q    Type
REMARK                         _______ _______ _______ _____ _____    ______ ____
ROOT
ATOM      1  O   UNL     1       1.960   8.775  19.917  0.00  0.00    +0.000 OA
ENDROOT
BRANCH   1   5
ATOM      2  C   UNL     1       2.154   4.738  18.965  0.00  0.00    +0.000 A 
ATOM      3  C   UNL     1       2.321   5.721  17.989  0.00  0.00    +0.000 A 
ATOM      4  C   UNL     1       2.234   7.067  18.351  0.00  0.00    +0.000 A 
ATOM      5  C   UNL     1       1.984   7.428  19.678  0.00  0.00    +0.000 A 
ATOM      6  C   UNL     1       1.828   6.441  20.653  0.00  0.00    +0.000 A 
ATOM      7  C   UNL     1       1.883   5.095  20.291  0.00  0.00    +0.000 A 
BRANCH   2   9
ATOM      8  C   UNL     1       1.130   2.561  18.739  0.00  0.00    +0.000 C 
ATOM      9  N   UNL     1       2.339   3.376  18.659  0.00  0.00    +0.000 N 
ATOM     10  C   UNL     1       3.552   2.807  18.209  0.00  0.00    +0.000 C 
ATOM     11  O   UNL     1       3.586   1.605  17.936  0.00  0.00    +0.000 OA
BRANCH  10  12
ATOM     12  C   UNL     1       4.744   3.655  18.057  0.00  0.00    +0.000 A 
ATOM     13  C   UNL     1       5.573   4.272  18.987  0.00  0.00    +0.000 A 
ATOM     14  C   UNL     1       6.557   5.119  18.413  0.00  0.00    +0.000 A 
ATOM     15  C   UNL     1       6.550   5.038  17.042  0.00  0.00    +0.000 A 
ATOM     16  S   UNL     1       5.335   3.981  16.468  0.00  0.00    +0.000 S 
ENDBRANCH  10  12
ENDBRANCH   2   9
ENDBRANCH   1   5
BRANCH   1  17
ATOM     17  C   UNL     1       1.472   9.564  18.838  0.00  0.00    +0.000 C 
BRANCH  17  18
ATOM     18  C   UNL     1      -0.000   9.895  19.035  0.00  0.00    +0.000 C 
ATOM     19  O   UNL     1      -0.498   9.778  20.157  0.00  0.00    +0.000 OA
ATOM     20  N   UNL     1      -0.654  10.337  17.891  0.00  0.00    +0.000 N 
ATOM     21  H   UNL     1      -0.143  10.230  17.020  0.00  0.00    +0.000 HD
BRANCH  20  22
ATOM     22  C   UNL     1      -1.990  10.789  17.830  0.00  0.00    +0.000 A 
ATOM     23  C   UNL     1      -2.536  11.614  18.816  0.00  0.00    +0.000 A 
ATOM     24  C   UNL     1      -3.849  12.074  18.734  0.00  0.00    +0.000 A 
ATOM     25  C   UNL     1      -4.654  11.694  17.661  0.00  0.00    +0.000 A 
ATOM     26  C   UNL     1      -4.120  10.876  16.658  0.00  0.00    +0.000 A 
ATOM     27  C   UNL     1      -2.787  10.431  16.739  0.00  0.00    +0.000 A 
BRANCH  25  28
ATOM     28  C   UNL     1      -6.041  12.208  17.531  0.00  0.00    +0.000 C 
ATOM     29  O   UNL     1      -7.015  11.551  17.858  0.00  0.00    +0.000 OA
BRANCH  28  30
ATOM     30  O   UNL     1      -6.126  13.463  17.046  0.00  0.00    +0.000 OA
ATOM     31  H   UNL     1      -5.275  13.916  16.889  0.00  0.00    +0.000 HD
ENDBRANCH  28  30
ENDBRANCH  25  28
ENDBRANCH  20  22
ENDBRANCH  17  18
ENDBRANCH   1  17
TORSDOF 8
ENDMDL
MODEL 8
REMARK VINA RESULT:      -7.8      2.792      3.485
REMARK  Name = 
REMARK  9 active torsions:
REMARK  status: ('A' for Active; 'I' for Inactive)
REMARK    1  A    between atoms: C_1  and  N_2
REMARK    2  A    between atoms: N_2  and  C_10
REMARK    3  A    between atoms: C_3  and  C_5
REMARK    4  A    between atoms: C_13  and  O_14
REMARK    5  A    between atoms: O_14  and  C_15
REMARK    6  A    between atoms: C_15  and  C_16
REMARK    7  A    between atoms: N_18  and  C_19
REMARK    8  A    between atoms: C_22  and  C_23
REMARK    9  A    between atoms: C_23  and  O_25
REMARK                            x       y       z     vdW  Elec       q    Type
REMARK                         _______ _______ _______ _____ _____    ______ ____
ROOT
ATOM      1  O   UNL     1       1.390   8.944  17.933  0.00  0.00    +0.000 OA
ENDROOT
BRANCH   1   5
ATOM      2  C   UNL     1       4.078   5.929  18.894  0.00  0.00    +0.000 A 
ATOM      3  C   UNL     1       3.091   6.332  19.793  0.00  0.00    +0.000 A 
ATOM      4  C   UNL     1       2.216   7.360  19.434  0.00  0.00    +0.000 A 
ATOM      5  C   UNL     1       2.326   7.979  18.187  0.00  0.00    +0.000 A 
ATOM      6  C   UNL     1       3.311   7.567  17.286  0.00  0.00    +0.000 A 
ATOM      7  C   UNL     1       4.207   6.562  17.651  0.00  0.00    +0.000 A 
BRANCH   2   9
ATOM      8  C   UNL     1       6.329   5.149  19.305  0.00  0.00    +0.000 C 
ATOM      9  N   UNL     1       4.910   4.829  19.178  0.00  0.00    +0.000 N 
ATOM     10  C   UNL     1       4.452   3.515  19.427  0.00  0.00    +0.000 C 
ATOM     11  O   UNL     1       5.272   2.635  19.701  0.00  0.00    +0.000 OA
BRANCH  10  12
ATOM     12  C   UNL     1       3.012   3.221  19.373  0.00  0.00    +0.000 A 
ATOM     13  C   UNL     1       2.141   3.021  18.308  0.00  0.00    +0.000 A 
ATOM     14  C   UNL     1       0.782   2.884  18.691  0.00  0.00    +0.000 A 
ATOM     15  C   UNL     1       0.645   2.852  20.056  0.00  0.00    +0.000 A 
ATOM     16  S   UNL     1       2.147   3.030  20.855  0.00  0.00    +0.000 S 
ENDBRANCH  10  12
ENDBRANCH   2   9
ENDBRANCH   1   5
BRANCH   1  17
ATOM     17  C   UNL     1       1.884  10.278  17.964  0.00  0.00    +0.000 C 
BRANCH  17  18
ATOM     18  C   UNL     1       1.212  11.079  19.069  0.00  0.00    +0.000 C 
ATOM     19  O   UNL     1       1.632  12.208  19.334  0.00  0.00    +0.000 OA
ATOM     20  N   UNL     1       0.136  10.442  19.676  0.00  0.00    +0.000 N 
ATOM     21  H   UNL     1       0.017   9.460  19.448  0.00  0.00    +0.000 HD
BRANCH  20  22
ATOM     22  C   UNL     1      -0.705  11.007  20.660  0.00  0.00    +0.000 A 
ATOM     23  C   UNL     1      -0.549  10.720  22.017  0.00  0.00    +0.000 A 
ATOM     24  C   UNL     1      -1.370  11.302  22.981  0.00  0.00    +0.000 A 
ATOM     25  C   UNL     1      -2.386  12.175  22.597  0.00  0.00    +0.000 A 
ATOM     26  C   UNL     1      -2.550  12.482  21.240  0.00  0.00    +0.000 A 
ATOM     27  C   UNL     1      -1.705  11.905  20.274  0.00  0.00    +0.000 A 
BRANCH  25  28
ATOM     28  C   UNL     1      -3.242  12.840  23.611  0.00  0.00    +0.000 C 
ATOM     29  O   UNL     1      -2.847  13.770  24.293  0.00  0.00    +0.000 OA
BRANCH  28  30
ATOM     30  O   UNL     1      -4.494  12.344  23.694  0.00  0.00    +0.000 OA
ATOM     31  H   UNL     1      -4.656  11.518  23.200  0.00  0.00    +0.000 HD
ENDBRANCH  28  30
ENDBRANCH  25  28
ENDBRANCH  20  22
ENDBRANCH  17  18
ENDBRANCH   1  17
TORSDOF 8
ENDMDL
MODEL 9
REMARK VINA RESULT:      -7.8      0.920      1.363
REMARK  Name = 
REMARK  9 active torsions:
REMARK  status: ('A' for Active; 'I' for Inactive)
REMARK    1  A    between atoms: C_1  and  N_2
REMARK    2  A    between atoms: N_2  and  C_10
REMARK    3  A    between atoms: C_3  and  C_5
REMARK    4  A    between atoms: C_13  and  O_14
REMARK    5  A    between atoms: O_14  and  C_15
REMARK    6  A    between atoms: C_15  and  C_16
REMARK    7  A    between atoms: N_18  and  C_19
REMARK    8  A    between atoms: C_22  and  C_23
REMARK    9  A    between atoms: C_23  and  O_25
REMARK                            x       y       z     vdW  Elec       q    Type
REMARK                         _______ _______ _______ _____ _____    ______ ____
ROOT
ATOM      1  O   UNL     1       1.534   9.247  17.935  0.00  0.00    +0.000 OA
ENDROOT
BRANCH   1   5
ATOM      2  C   UNL     1       3.891   5.944  18.814  0.00  0.00    +0.000 A 
ATOM      3  C   UNL     1       4.002   6.608  17.592  0.00  0.00    +0.000 A 
ATOM      4  C   UNL     1       3.180   7.706  17.333  0.00  0.00    +0.000 A 
ATOM      5  C   UNL     1       2.254   8.139  18.286  0.00  0.00    +0.000 A 
ATOM      6  C   UNL     1       2.153   7.476  19.512  0.00  0.00    +0.000 A 
ATOM      7  C   UNL     1       2.950   6.360  19.764  0.00  0.00    +0.000 A 
BRANCH   2   9
ATOM      8  C   UNL     1       6.171   5.298  19.291  0.00  0.00    +0.000 C 
ATOM      9  N   UNL     1       4.773   4.900  19.153  0.00  0.00    +0.000 N 
ATOM     10  C   UNL     1       4.379   3.574  19.444  0.00  0.00    +0.000 C 
ATOM     11  O   UNL     1       5.238   2.749  19.766  0.00  0.00    +0.000 OA
BRANCH  10  12
ATOM     12  C   UNL     1       2.957   3.203  19.378  0.00  0.00    +0.000 A 
ATOM     13  C   UNL     1       2.119   2.910  18.308  0.00  0.00    +0.000 A 
ATOM     14  C   UNL     1       0.761   2.720  18.672  0.00  0.00    +0.000 A 
ATOM     15  C   UNL     1       0.599   2.742  20.035  0.00  0.00    +0.000 A 
ATOM     16  S   UNL     1       2.072   3.035  20.851  0.00  0.00    +0.000 S 
ENDBRANCH  10  12
ENDBRANCH   2   9
ENDBRANCH   1   5
BRANCH   1  17
ATOM     17  C   UNL     1       1.298  10.166  18.995  0.00  0.00    +0.000 C 
BRANCH  17  18
ATOM     18  C   UNL     1       0.083  11.033  18.700  0.00  0.00    +0.000 C 
ATOM     19  O   UNL     1       0.235  12.248  18.549  0.00  0.00    +0.000 OA
ATOM     20  N   UNL     1      -1.116  10.338  18.602  0.00  0.00    +0.000 N 
ATOM     21  H   UNL     1      -1.092   9.369  18.904  0.00  0.00    +0.000 HD
BRANCH  20  22
ATOM     22  C   UNL     1      -2.364  10.898  18.249  0.00  0.00    +0.000 A 
ATOM     23  C   UNL     1      -2.879  10.797  16.956  0.00  0.00    +0.000 A 
ATOM     24  C   UNL     1      -4.122  11.332  16.625  0.00  0.00    +0.000 A 
ATOM     25  C   UNL     1      -4.871  12.004  17.590  0.00  0.00    +0.000 A 
ATOM     26  C   UNL     1      -4.374  12.105  18.896  0.00  0.00    +0.000 A 
ATOM     27  C   UNL     1      -3.126  11.545  19.227  0.00  0.00    +0.000 A 
BRANCH  25  28
ATOM     28  C   UNL     1      -6.216  12.543  17.271  0.00  0.00    +0.000 C 
ATOM     29  O   UNL     1      -6.376  13.615  16.711  0.00  0.00    +0.000 OA
BRANCH  28  30
ATOM     30  O   UNL     1      -7.237  11.738  17.629  0.00  0.00    +0.000 OA
ATOM     31  H   UNL     1      -6.999  10.975  18.188  0.00  0.00    +0.000 HD
ENDBRANCH  28  30
ENDBRANCH  25  28
ENDBRANCH  20  22
ENDBRANCH  17  18
ENDBRANCH   1  17
TORSDOF 8
ENDMDL
