MODEL 1
REMARK VINA RESULT:      -8.4      0.000      0.000
REMARK  Name = 
REMARK  4 active torsions:
REMARK  status: ('A' for Active; 'I' for Inactive)
REMARK    1  A    between atoms: C_1  and  O_2
REMARK    2  A    between atoms: O_2  and  C_3
REMARK    3  A    between atoms: N_11  and  C_12
REMARK    4  A    between atoms: C_15  and  C_16
REMARK                            x       y       z     vdW  Elec       q    Type
REMARK                         _______ _______ _______ _____ _____    ______ ____
ROOT
ATOM      1  C   UNL     1       2.398   7.067  18.817  0.00  0.00    +0.000 A 
ATOM      2  C   UNL     1       2.084   7.093  20.181  0.00  0.00    +0.000 A 
ATOM      3  C   UNL     1       1.440   8.210  20.725  0.00  0.00    +0.000 A 
ATOM      4  C   UNL     1       1.048   9.281  19.907  0.00  0.00    +0.000 A 
ATOM      5  C   UNL     1       1.426   9.264  18.555  0.00  0.00    +0.000 A 
ATOM      6  C   UNL     1       2.094   8.167  18.009  0.00  0.00    +0.000 A 
ENDROOT
BRANCH   1  15
ATOM      7  C   UNL     1       5.987   4.829  15.677  0.00  0.00    +0.000 A 
ATOM      8  C   UNL     1       6.012   6.162  16.098  0.00  0.00    +0.000 A 
ATOM      9  C   UNL     1       5.036   6.670  16.962  0.00  0.00    +0.000 A 
ATOM     10  C   UNL     1       4.038   5.787  17.391  0.00  0.00    +0.000 A 
ATOM     11  C   UNL     1       4.014   4.449  17.014  0.00  0.00    +0.000 A 
ATOM     12  C   UNL     1       4.980   3.963  16.122  0.00  0.00    +0.000 A 
ATOM     13  N   UNL     1       2.997   3.806  17.662  0.00  0.00    +0.000 NA
ATOM     14  N   UNL     1       2.412   4.679  18.474  0.00  0.00    +0.000 NA
ATOM     15  N   UNL     1       2.958   5.899  18.250  0.00  0.00    +0.000 N 
BRANCH   7  17
ATOM     16  C   UNL     1       6.462   3.905  13.539  0.00  0.00    +0.000 C 
ATOM     17  O   UNL     1       6.910   4.252  14.844  0.00  0.00    +0.000 OA
ENDBRANCH   7  17
ENDBRANCH   1  15
BRANCH   4  18
ATOM     18  C   UNL     1       0.165  10.325  20.454  0.00  0.00    +0.000 A 
ATOM     19  N   UNL     1      -0.131  10.485  21.726  0.00  0.00    +0.000 NA
ATOM     20  C   UNL     1      -1.119  11.449  21.871  0.00  0.00    +0.000 A 
ATOM     21  C   UNL     1      -1.702  11.873  23.081  0.00  0.00    +0.000 A 
ATOM     22  C   UNL     1      -2.721  12.833  23.064  0.00  0.00    +0.000 A 
ATOM     23  C   UNL     1      -3.162  13.377  21.861  0.00  0.00    +0.000 A 
ATOM     24  C   UNL     1      -2.593  12.984  20.649  0.00  0.00    +0.000 A 
ATOM     25  C   UNL     1      -1.570  12.020  20.681  0.00  0.00    +0.000 A 
ATOM     26  S   UNL     1      -0.705  11.345  19.368  0.00  0.00    +0.000 S 
ENDBRANCH   4  18
TORSDOF 3
ENDMDL
MODEL 2
REMARK VINA RESULT:      -8.2      0.868      1.272
REMARK  Name = 
REMARK  4 active torsions:
REMARK  status: ('A' for Active; 'I' for Inactive)
REMARK    1  A    between atoms: C_1  and  O_2
REMARK    2  A    between atoms: O_2  and  C_3
REMARK    3  A    between atoms: N_11  and  C_12
REMARK    4  A    between atoms: C_15  and  C_16
REMARK                            x       y       z     vdW  Elec       q    Type
REMARK                         _______ _______ _______ _____ _____    ______ ____
ROOT
ATOM      1  C   UNL     1       2.548   6.787  18.894  0.00  0.00    +0.000 A 
ATOM      2  C   UNL     1       2.131   6.731  20.228  0.00  0.00    +0.000 A 
ATOM      3  C   UNL     1       1.426   7.805  20.782  0.00  0.00    +0.000 A 
ATOM      4  C   UNL     1       1.076   8.914  19.996  0.00  0.00    +0.000 A 
ATOM      5  C   UNL     1       1.556   8.979  18.678  0.00  0.00    +0.000 A 
ATOM      6  C   UNL     1       2.285   7.926  18.127  0.00  0.00    +0.000 A 
ENDROOT
BRANCH   1  15
ATOM      7  C   UNL     1       5.878   4.800  15.328  0.00  0.00    +0.000 A 
ATOM      8  C   UNL     1       5.778   6.153  15.662  0.00  0.00    +0.000 A 
ATOM      9  C   UNL     1       4.889   6.595  16.647  0.00  0.00    +0.000 A 
ATOM     10  C   UNL     1       4.108   5.625  17.287  0.00  0.00    +0.000 A 
ATOM     11  C   UNL     1       4.218   4.269  16.997  0.00  0.00    +0.000 A 
ATOM     12  C   UNL     1       5.089   3.847  15.984  0.00  0.00    +0.000 A 
ATOM     13  N   UNL     1       3.418   3.552  17.841  0.00  0.00    +0.000 NA
ATOM     14  N   UNL     1       2.850   4.401  18.689  0.00  0.00    +0.000 NA
ATOM     15  N   UNL     1       3.173   5.661  18.307  0.00  0.00    +0.000 N 
BRANCH   7  17
ATOM     16  C   UNL     1       6.132   3.732  13.219  0.00  0.00    +0.000 C 
ATOM     17  O   UNL     1       6.731   4.285  14.386  0.00  0.00    +0.000 OA
ENDBRANCH   7  17
ENDBRANCH   1  15
BRANCH   4  18
ATOM     18  C   UNL     1       0.133   9.911  20.530  0.00  0.00    +0.000 A 
ATOM     19  N   UNL     1      -0.518  10.805  19.816  0.00  0.00    +0.000 NA
ATOM     20  C   UNL     1      -1.184  11.692  20.649  0.00  0.00    +0.000 A 
ATOM     21  C   UNL     1      -1.967  12.791  20.246  0.00  0.00    +0.000 A 
ATOM     22  C   UNL     1      -2.548  13.624  21.210  0.00  0.00    +0.000 A 
ATOM     23  C   UNL     1      -2.363  13.374  22.566  0.00  0.00    +0.000 A 
ATOM     24  C   UNL     1      -1.603  12.284  22.994  0.00  0.00    +0.000 A 
ATOM     25  C   UNL     1      -1.026  11.456  22.015  0.00  0.00    +0.000 A 
ATOM     26  S   UNL     1      -0.046  10.072  22.238  0.00  0.00    +0.000 S 
ENDBRANCH   4  18
TORSDOF 3
ENDMDL
MODEL 3
REMARK VINA RESULT:      -8.0      1.120      1.490
REMARK  Name = 
REMARK  4 active torsions:
REMARK  status: ('A' for Active; 'I' for Inactive)
REMARK    1  A    between atoms: C_1  and  O_2
REMARK    2  A    between atoms: O_2  and  C_3
REMARK    3  A    between atoms: N_11  and  C_12
REMARK    4  A    between atoms: C_15  and  C_16
REMARK                            x       y       z     vdW  Elec       q    Type
REMARK                         _______ _______ _______ _____ _____    ______ ____
ROOT
ATOM      1  C   UNL     1       2.295   6.954  18.811  0.00  0.00    +0.000 A 
ATOM      2  C   UNL     1       2.012   8.117  18.086  0.00  0.00    +0.000 A 
ATOM      3  C   UNL     1       1.409   9.205  18.726  0.00  0.00    +0.000 A 
ATOM      4  C   UNL     1       1.139   9.169  20.102  0.00  0.00    +0.000 A 
ATOM      5  C   UNL     1       1.373   7.972  20.799  0.00  0.00    +0.000 A 
ATOM      6  C   UNL     1       1.948   6.871  20.163  0.00  0.00    +0.000 A 
ENDROOT
BRANCH   1  15
ATOM      7  C   UNL     1       6.457   5.277  16.050  0.00  0.00    +0.000 A 
ATOM      8  C   UNL     1       6.350   6.534  16.653  0.00  0.00    +0.000 A 
ATOM      9  C   UNL     1       5.221   6.889  17.399  0.00  0.00    +0.000 A 
ATOM     10  C   UNL     1       4.207   5.931  17.521  0.00  0.00    +0.000 A 
ATOM     11  C   UNL     1       4.308   4.663  16.962  0.00  0.00    +0.000 A 
ATOM     12  C   UNL     1       5.430   4.334  16.189  0.00  0.00    +0.000 A 
ATOM     13  N   UNL     1       3.227   3.911  17.328  0.00  0.00    +0.000 NA
ATOM     14  N   UNL     1       2.475   4.642  18.142  0.00  0.00    +0.000 NA
ATOM     15  N   UNL     1       2.994   5.893  18.189  0.00  0.00    +0.000 N 
BRANCH   7  17
ATOM     16  C   UNL     1       7.402   4.916  13.900  0.00  0.00    +0.000 C 
ATOM     17  O   UNL     1       7.531   4.848  15.315  0.00  0.00    +0.000 OA
ENDBRANCH   7  17
ENDBRANCH   1  15
BRANCH   4  18
ATOM     18  C   UNL     1       0.732  10.403  20.794  0.00  0.00    +0.000 A 
ATOM     19  N   UNL     1      -0.138  10.475  21.779  0.00  0.00    +0.000 NA
ATOM     20  C   UNL     1      -0.415  11.801  22.079  0.00  0.00    +0.000 A 
ATOM     21  C   UNL     1      -1.310  12.267  23.061  0.00  0.00    +0.000 A 
ATOM     22  C   UNL     1      -1.514  13.643  23.222  0.00  0.00    +0.000 A 
ATOM     23  C   UNL     1      -0.835  14.558  22.423  0.00  0.00    +0.000 A 
ATOM     24  C   UNL     1       0.069  14.124  21.451  0.00  0.00    +0.000 A 
ATOM     25  C   UNL     1       0.263  12.740  21.301  0.00  0.00    +0.000 A 
ATOM     26  S   UNL     1       1.286  11.925  20.198  0.00  0.00    +0.000 S 
ENDBRANCH   4  18
TORSDOF 3
ENDMDL
MODEL 4
REMARK VINA RESULT:      -7.9      3.845      9.709
REMARK  Name = 
REMARK  4 active torsions:
REMARK  status: ('A' for Active; 'I' for Inactive)
REMARK    1  A    between atoms: C_1  and  O_2
REMARK    2  A    between atoms: O_2  and  C_3
REMARK    3  A    between atoms: N_11  and  C_12
REMARK    4  A    between atoms: C_15  and  C_16
REMARK                            x       y       z     vdW  Elec       q    Type
REMARK                         _______ _______ _______ _____ _____    ______ ____
ROOT
ATOM      1  C   UNL     1       0.356   9.883  19.324  0.00  0.00    +0.000 A 
ATOM      2  C   UNL     1       0.923   9.999  18.050  0.00  0.00    +0.000 A 
ATOM      3  C   UNL     1       1.949   9.128  17.664  0.00  0.00    +0.000 A 
ATOM      4  C   UNL     1       2.374   8.098  18.517  0.00  0.00    +0.000 A 
ATOM      5  C   UNL     1       1.836   8.038  19.813  0.00  0.00    +0.000 A 
ATOM      6  C   UNL     1       0.834   8.920  20.217  0.00  0.00    +0.000 A 
ENDROOT
BRANCH   1  15
ATOM      7  C   UNL     1      -4.465  11.702  18.224  0.00  0.00    +0.000 A 
ATOM      8  C   UNL     1      -3.847  10.630  17.574  0.00  0.00    +0.000 A 
ATOM      9  C   UNL     1      -2.574  10.187  17.951  0.00  0.00    +0.000 A 
ATOM     10  C   UNL     1      -1.949  10.859  19.009  0.00  0.00    +0.000 A 
ATOM     11  C   UNL     1      -2.560  11.904  19.693  0.00  0.00    +0.000 A 
ATOM     12  C   UNL     1      -3.820  12.357  19.282  0.00  0.00    +0.000 A 
ATOM     13  N   UNL     1      -1.769  12.296  20.736  0.00  0.00    +0.000 NA
ATOM     14  N   UNL     1      -0.706  11.500  20.766  0.00  0.00    +0.000 NA
ATOM     15  N   UNL     1      -0.746  10.697  19.675  0.00  0.00    +0.000 N 
BRANCH   7  17
ATOM     16  C   UNL     1      -6.816  11.355  18.255  0.00  0.00    +0.000 C 
ATOM     17  O   UNL     1      -5.710  12.188  17.925  0.00  0.00    +0.000 OA
ENDBRANCH   7  17
ENDBRANCH   1  15
BRANCH   4  18
ATOM     18  C   UNL     1       3.275   7.055  18.000  0.00  0.00    +0.000 A 
ATOM     19  N   UNL     1       4.323   7.263  17.231  0.00  0.00    +0.000 NA
ATOM     20  C   UNL     1       4.842   6.054  16.790  0.00  0.00    +0.000 A 
ATOM     21  C   UNL     1       5.949   5.882  15.937  0.00  0.00    +0.000 A 
ATOM     22  C   UNL     1       6.334   4.593  15.547  0.00  0.00    +0.000 A 
ATOM     23  C   UNL     1       5.635   3.477  16.000  0.00  0.00    +0.000 A 
ATOM     24  C   UNL     1       4.543   3.619  16.858  0.00  0.00    +0.000 A 
ATOM     25  C   UNL     1       4.168   4.919  17.241  0.00  0.00    +0.000 A 
ATOM     26  S   UNL     1       2.879   5.396  18.260  0.00  0.00    +0.000 S 
ENDBRANCH   4  18
TORSDOF 3
ENDMDL
MODEL 5
REMARK VINA RESULT:      -7.9      3.658      9.821
REMARK  Name = 
REMARK  4 active torsions:
REMARK  status: ('A' for Active; 'I' for Inactive)
REMARK    1  A    between atoms: C_1  and  O_2
REMARK    2  A    between atoms: O_2  and  C_3
REMARK    3  A    between atoms: N_11  and  C_12
REMARK    4  A    between atoms: C_15  and  C_16
REMARK                            x       y       z     vdW  Elec       q    Type
REMARK                         _______ _______ _______ _____ _____    ______ ____
ROOT
ATOM      1  C   UNL     1       0.838   9.087  20.507  0.00  0.00    +0.000 A 
ATOM      2  C   UNL     1       1.256   7.840  20.984  0.00  0.00    +0.000 A 
ATOM      3  C   UNL     1       2.010   6.997  20.159  0.00  0.00    +0.000 A 
ATOM      4  C   UNL     1       2.406   7.413  18.879  0.00  0.00    +0.000 A 
ATOM      5  C   UNL     1       1.925   8.641  18.396  0.00  0.00    +0.000 A 
ATOM      6  C   UNL     1       1.149   9.475  19.200  0.00  0.00    +0.000 A 
ENDROOT
BRANCH   1  15
ATOM      7  C   UNL     1      -2.325  13.250  21.156  0.00  0.00    +0.000 A 
ATOM      8  C   UNL     1      -2.124  12.578  19.947  0.00  0.00    +0.000 A 
ATOM      9  C   UNL     1      -1.291  11.457  19.867  0.00  0.00    +0.000 A 
ATOM     10  C   UNL     1      -0.672  11.034  21.049  0.00  0.00    +0.000 A 
ATOM     11  C   UNL     1      -0.887  11.664  22.270  0.00  0.00    +0.000 A 
ATOM     12  C   UNL     1      -1.697  12.805  22.327  0.00  0.00    +0.000 A 
ATOM     13  N   UNL     1      -0.243  10.977  23.261  0.00  0.00    +0.000 NA
ATOM     14  N   UNL     1       0.324   9.907  22.718  0.00  0.00    +0.000 NA
ATOM     15  N   UNL     1       0.164   9.978  21.374  0.00  0.00    +0.000 N 
BRANCH   7  17
ATOM     16  C   UNL     1      -4.277  14.174  22.150  0.00  0.00    +0.000 C 
ATOM     17  O   UNL     1      -3.133  14.344  21.321  0.00  0.00    +0.000 OA
ENDBRANCH   7  17
ENDBRANCH   1  15
BRANCH   4  18
ATOM     18  C   UNL     1       3.392   6.616  18.131  0.00  0.00    +0.000 A 
ATOM     19  N   UNL     1       4.221   7.084  17.222  0.00  0.00    +0.000 NA
ATOM     20  C   UNL     1       4.887   6.041  16.597  0.00  0.00    +0.000 A 
ATOM     21  C   UNL     1       5.834   6.154  15.561  0.00  0.00    +0.000 A 
ATOM     22  C   UNL     1       6.397   5.001  15.001  0.00  0.00    +0.000 A 
ATOM     23  C   UNL     1       6.032   3.739  15.462  0.00  0.00    +0.000 A 
ATOM     24  C   UNL     1       5.105   3.598  16.496  0.00  0.00    +0.000 A 
ATOM     25  C   UNL     1       4.549   4.765  17.049  0.00  0.00    +0.000 A 
ATOM     26  S   UNL     1       3.395   4.900  18.305  0.00  0.00    +0.000 S 
ENDBRANCH   4  18
TORSDOF 3
ENDMDL
MODEL 6
REMARK VINA RESULT:      -7.9      1.348      1.842
REMARK  Name = 
REMARK  4 active torsions:
REMARK  status: ('A' for Active; 'I' for Inactive)
REMARK    1  A    between atoms: C_1  and  O_2
REMARK    2  A    between atoms: O_2  and  C_3
REMARK    3  A    between atoms: N_11  and  C_12
REMARK    4  A    between atoms: C_15  and  C_16
REMARK                            x       y       z     vdW  Elec       q    Type
REMARK                         _______ _______ _______ _____ _____    ______ ____
ROOT
ATOM      1  C   UNL     1       2.790   6.616  18.919  0.00  0.00    +0.000 A 
ATOM      2  C   UNL     1       2.599   7.775  18.158  0.00  0.00    +0.000 A 
ATOM      3  C   UNL     1       1.813   8.817  18.664  0.00  0.00    +0.000 A 
ATOM      4  C   UNL     1       1.265   8.741  19.954  0.00  0.00    +0.000 A 
ATOM      5  C   UNL     1       1.417   7.546  20.676  0.00  0.00    +0.000 A 
ATOM      6  C   UNL     1       2.174   6.490  20.168  0.00  0.00    +0.000 A 
ENDROOT
BRANCH   1  15
ATOM      7  C   UNL     1       6.016   4.801  15.170  0.00  0.00    +0.000 A 
ATOM      8  C   UNL     1       5.513   6.103  15.231  0.00  0.00    +0.000 A 
ATOM      9  C   UNL     1       4.687   6.516  16.282  0.00  0.00    +0.000 A 
ATOM     10  C   UNL     1       4.389   5.571  17.272  0.00  0.00    +0.000 A 
ATOM     11  C   UNL     1       4.909   4.281  17.251  0.00  0.00    +0.000 A 
ATOM     12  C   UNL     1       5.708   3.874  16.175  0.00  0.00    +0.000 A 
ATOM     13  N   UNL     1       4.539   3.618  18.387  0.00  0.00    +0.000 NA
ATOM     14  N   UNL     1       3.852   4.461  19.149  0.00  0.00    +0.000 NA
ATOM     15  N   UNL     1       3.664   5.607  18.450  0.00  0.00    +0.000 N 
BRANCH   7  17
ATOM     16  C   UNL     1       6.209   3.664  13.092  0.00  0.00    +0.000 C 
ATOM     17  O   UNL     1       6.839   4.323  14.184  0.00  0.00    +0.000 OA
ENDBRANCH   7  17
ENDBRANCH   1  15
BRANCH   4  18
ATOM     18  C   UNL     1       0.652   9.938  20.552  0.00  0.00    +0.000 A 
ATOM     19  N   UNL     1       1.009  11.181  20.309  0.00  0.00    +0.000 NA
ATOM     20  C   UNL     1       0.345  12.047  21.166  0.00  0.00    +0.000 A 
ATOM     21  C   UNL     1       0.486  13.447  21.213  0.00  0.00    +0.000 A 
ATOM     22  C   UNL     1      -0.228  14.188  22.164  0.00  0.00    +0.000 A 
ATOM     23  C   UNL     1      -1.081  13.552  23.062  0.00  0.00    +0.000 A 
ATOM     24  C   UNL     1      -1.249  12.167  23.028  0.00  0.00    +0.000 A 
ATOM     25  C   UNL     1      -0.527  11.437  22.068  0.00  0.00    +0.000 A 
ATOM     26  S   UNL     1      -0.523   9.747  21.801  0.00  0.00    +0.000 S 
ENDBRANCH   4  18
TORSDOF 3
ENDMDL
MODEL 7
REMARK VINA RESULT:      -7.8      4.255      9.296
REMARK  Name = 
REMARK  4 active torsions:
REMARK  status: ('A' for Active; 'I' for Inactive)
REMARK    1  A    between atoms: C_1  and  O_2
REMARK    2  A    between atoms: O_2  and  C_3
REMARK    3  A    between atoms: N_11  and  C_12
REMARK    4  A    between atoms: C_15  and  C_16
REMARK                            x       y       z     vdW  Elec       q    Type
REMARK                         _______ _______ _______ _____ _____    ______ ____
ROOT
ATOM      1  C   UNL     1       1.036  10.304  18.981  0.00  0.00    +0.000 A 
ATOM      2  C   UNL     1       1.689   9.777  17.862  0.00  0.00    +0.000 A 
ATOM      3  C   UNL     1       2.259   8.501  17.927  0.00  0.00    +0.000 A 
ATOM      4  C   UNL     1       2.129   7.715  19.082  0.00  0.00    +0.000 A 
ATOM      5  C   UNL     1       1.524   8.285  20.214  0.00  0.00    +0.000 A 
ATOM      6  C   UNL     1       0.979   9.568  20.168  0.00  0.00    +0.000 A 
ENDROOT
BRANCH   1  15
ATOM      7  C   UNL     1       1.296  15.558  18.689  0.00  0.00    +0.000 A 
ATOM      8  C   UNL     1       2.384  14.694  18.538  0.00  0.00    +0.000 A 
ATOM      9  C   UNL     1       2.222  13.305  18.596  0.00  0.00    +0.000 A 
ATOM     10  C   UNL     1       0.926  12.819  18.807  0.00  0.00    +0.000 A 
ATOM     11  C   UNL     1      -0.175  13.659  18.923  0.00  0.00    +0.000 A 
ATOM     12  C   UNL     1       0.007  15.048  18.896  0.00  0.00    +0.000 A 
ATOM     13  N   UNL     1      -1.316  12.912  19.015  0.00  0.00    +0.000 NA
ATOM     14  N   UNL     1      -0.978  11.632  18.907  0.00  0.00    +0.000 NA
ATOM     15  N   UNL     1       0.375  11.551  18.884  0.00  0.00    +0.000 N 
BRANCH   7  17
ATOM     16  C   UNL     1       0.254  17.598  18.056  0.00  0.00    +0.000 C 
ATOM     17  O   UNL     1       1.367  16.925  18.633  0.00  0.00    +0.000 OA
ENDBRANCH   7  17
ENDBRANCH   1  15
BRANCH   4  18
ATOM     18  C   UNL     1       2.521   6.297  19.042  0.00  0.00    +0.000 A 
ATOM     19  N   UNL     1       3.086   5.689  18.020  0.00  0.00    +0.000 NA
ATOM     20  C   UNL     1       3.163   4.324  18.256  0.00  0.00    +0.000 A 
ATOM     21  C   UNL     1       3.687   3.353  17.381  0.00  0.00    +0.000 A 
ATOM     22  C   UNL     1       3.661   2.001  17.745  0.00  0.00    +0.000 A 
ATOM     23  C   UNL     1       3.125   1.606  18.968  0.00  0.00    +0.000 A 
ATOM     24  C   UNL     1       2.611   2.550  19.859  0.00  0.00    +0.000 A 
ATOM     25  C   UNL     1       2.645   3.903  19.480  0.00  0.00    +0.000 A 
ATOM     26  S   UNL     1       2.083   5.264  20.353  0.00  0.00    +0.000 S 
ENDBRANCH   4  18
TORSDOF 3
ENDMDL
MODEL 8
REMARK VINA RESULT:      -7.8      1.975      2.612
REMARK  Name = 
REMARK  4 active torsions:
REMARK  status: ('A' for Active; 'I' for Inactive)
REMARK    1  A    between atoms: C_1  and  O_2
REMARK    2  A    between atoms: O_2  and  C_3
REMARK    3  A    between atoms: N_11  and  C_12
REMARK    4  A    between atoms: C_15  and  C_16
REMARK                            x       y       z     vdW  Elec       q    Type
REMARK                         _______ _______ _______ _____ _____    ______ ____
ROOT
ATOM      1  C   UNL     1       2.202   8.161  18.697  0.00  0.00    +0.000 A 
ATOM      2  C   UNL     1       1.839   8.043  20.043  0.00  0.00    +0.000 A 
ATOM      3  C   UNL     1       1.037   9.025  20.636  0.00  0.00    +0.000 A 
ATOM      4  C   UNL     1       0.540  10.097  19.880  0.00  0.00    +0.000 A 
ATOM      5  C   UNL     1       0.965  10.231  18.548  0.00  0.00    +0.000 A 
ATOM      6  C   UNL     1       1.788   9.272  17.957  0.00  0.00    +0.000 A 
ENDROOT
BRANCH   1  15
ATOM      7  C   UNL     1       2.925   3.008  17.876  0.00  0.00    +0.000 A 
ATOM      8  C   UNL     1       1.799   3.571  18.482  0.00  0.00    +0.000 A 
ATOM      9  C   UNL     1       1.670   4.956  18.632  0.00  0.00    +0.000 A 
ATOM     10  C   UNL     1       2.713   5.753  18.145  0.00  0.00    +0.000 A 
ATOM     11  C   UNL     1       3.824   5.217  17.505  0.00  0.00    +0.000 A 
ATOM     12  C   UNL     1       3.955   3.826  17.392  0.00  0.00    +0.000 A 
ATOM     13  N   UNL     1       4.621   6.227  17.044  0.00  0.00    +0.000 NA
ATOM     14  N   UNL     1       4.025   7.380  17.323  0.00  0.00    +0.000 NA
ATOM     15  N   UNL     1       2.927   7.119  18.074  0.00  0.00    +0.000 N 
BRANCH   7  17
ATOM     16  C   UNL     1       3.902   0.987  18.658  0.00  0.00    +0.000 C 
ATOM     17  O   UNL     1       3.123   1.666  17.680  0.00  0.00    +0.000 OA
ENDBRANCH   7  17
ENDBRANCH   1  15
BRANCH   4  18
ATOM     18  C   UNL     1      -0.489  10.977  20.459  0.00  0.00    +0.000 A 
ATOM     19  N   UNL     1      -0.731  11.127  21.744  0.00  0.00    +0.000 NA
ATOM     20  C   UNL     1      -1.872  11.892  21.932  0.00  0.00    +0.000 A 
ATOM     21  C   UNL     1      -2.448  12.245  23.167  0.00  0.00    +0.000 A 
ATOM     22  C   UNL     1      -3.630  12.996  23.196  0.00  0.00    +0.000 A 
ATOM     23  C   UNL     1      -4.241  13.401  22.013  0.00  0.00    +0.000 A 
ATOM     24  C   UNL     1      -3.684  13.076  20.775  0.00  0.00    +0.000 A 
ATOM     25  C   UNL     1      -2.497  12.323  20.761  0.00  0.00    +0.000 A 
ATOM     26  S   UNL     1      -1.603  11.774  19.410  0.00  0.00    +0.000 S 
ENDBRANCH   4  18
TORSDOF 3
ENDMDL
MODEL 9
REMARK VINA RESULT:      -7.8      1.105      1.288
REMARK  Name = 
REMARK  4 active torsions:
REMARK  status: ('A' for Active; 'I' for Inactive)
REMARK    1  A    between atoms: C_1  and  O_2
REMARK    2  A    between atoms: O_2  and  C_3
REMARK    3  A    between atoms: N_11  and  C_12
REMARK    4  A    between atoms: C_15  and  C_16
REMARK                            x       y       z     vdW  Elec       q    Type
REMARK                         _______ _______ _______ _____ _____    ______ ____
ROOT
ATOM      1  C   UNL     1       2.248   7.414  18.853  0.00  0.00    +0.000 A 
ATOM      2  C   UNL     1       1.906   7.571  20.201  0.00  0.00    +0.000 A 
ATOM      3  C   UNL     1       1.315   8.763  20.633  0.00  0.00    +0.000 A 
ATOM      4  C   UNL     1       1.001   9.781  19.720  0.00  0.00    +0.000 A 
ATOM      5  C   UNL     1       1.408   9.630  18.384  0.00  0.00    +0.000 A 
ATOM      6  C   UNL     1       2.025   8.457  17.949  0.00  0.00    +0.000 A 
ENDROOT
BRANCH   1  15
ATOM      7  C   UNL     1       5.697   4.733  15.909  0.00  0.00    +0.000 A 
ATOM      8  C   UNL     1       5.780   6.099  16.192  0.00  0.00    +0.000 A 
ATOM      9  C   UNL     1       4.838   6.729  17.013  0.00  0.00    +0.000 A 
ATOM     10  C   UNL     1       3.814   5.933  17.542  0.00  0.00    +0.000 A 
ATOM     11  C   UNL     1       3.734   4.566  17.303  0.00  0.00    +0.000 A 
ATOM     12  C   UNL     1       4.665   3.956  16.452  0.00  0.00    +0.000 A 
ATOM     13  N   UNL     1       2.704   4.032  18.025  0.00  0.00    +0.000 NA
ATOM     14  N   UNL     1       2.166   5.004  18.753  0.00  0.00    +0.000 NA
ATOM     15  N   UNL     1       2.754   6.173  18.399  0.00  0.00    +0.000 N 
BRANCH   7  17
ATOM     16  C   UNL     1       6.236   3.881  13.756  0.00  0.00    +0.000 C 
ATOM     17  O   UNL     1       6.583   4.039  15.126  0.00  0.00    +0.000 OA
ENDBRANCH   7  17
ENDBRANCH   1  15
BRANCH   4  18
ATOM     18  C   UNL     1       0.167  10.913  20.154  0.00  0.00    +0.000 A 
ATOM     19  N   UNL     1      -1.148  10.961  20.095  0.00  0.00    +0.000 NA
ATOM     20  C   UNL     1      -1.597  12.231  20.422  0.00  0.00    +0.000 A 
ATOM     21  C   UNL     1      -2.938  12.663  20.448  0.00  0.00    +0.000 A 
ATOM     22  C   UNL     1      -3.235  13.995  20.763  0.00  0.00    +0.000 A 
ATOM     23  C   UNL     1      -2.217  14.898  21.055  0.00  0.00    +0.000 A 
ATOM     24  C   UNL     1      -0.881  14.493  21.050  0.00  0.00    +0.000 A 
ATOM     25  C   UNL     1      -0.598  13.153  20.733  0.00  0.00    +0.000 A 
ATOM     26  S   UNL     1       0.928  12.384  20.637  0.00  0.00    +0.000 S 
ENDBRANCH   4  18
TORSDOF 3
ENDMDL
