MODEL 1
REMARK VINA RESULT:      -6.2      0.000      0.000
REMARK  Name = 
REMARK  10 active torsions:
REMARK  status: ('A' for Active; 'I' for Inactive)
REMARK    1  A    between atoms: C_1  and  O_2
REMARK    2  A    between atoms: O_2  and  C_3
REMARK    3  A    between atoms: N_5  and  C_6
REMARK    4  A    between atoms: N_5  and  C_7
REMARK    5  A    between atoms: C_7  and  C_8
REMARK    6  A    between atoms: C_8  and  O_10
REMARK    7  A    between atoms: O_10  and  C_11
REMARK    8  A    between atoms: C_14  and  N_15
REMARK    9  A    between atoms: N_15  and  C_16
REMARK   10  A    between atoms: N_15  and  C_17
REMARK                            x       y       z     vdW  Elec       q    Type
REMARK                         _______ _______ _______ _____ _____    ______ ____
ROOT
ATOM      1  O   UNL     1       6.727   5.598  18.871  0.00  0.00    +0.000 OA
ENDROOT
BRANCH   1   2
ATOM      2  C   UNL     1       5.517   4.993  19.226  0.00  0.00    +0.000 A 
ATOM      3  C   UNL     1       4.322   5.704  19.226  0.00  0.00    +0.000 A 
ATOM      4  C   UNL     1       3.114   5.032  19.437  0.00  0.00    +0.000 A 
ATOM      5  C   UNL     1       3.044   3.641  19.623  0.00  0.00    +0.000 A 
ATOM      6  C   UNL     1       4.275   2.957  19.616  0.00  0.00    +0.000 A 
ATOM      7  C   UNL     1       5.499   3.618  19.413  0.00  0.00    +0.000 A 
BRANCH   5   8
ATOM      8  N   UNL     1       1.828   3.006  19.818  0.00  0.00    +0.000 N 
ATOM      9  C   UNL     1       1.244   2.852  21.150  0.00  0.00    +0.000 C 
ATOM     10  C   UNL     1       0.945   2.641  18.716  0.00  0.00    +0.000 C 
ENDBRANCH   5   8
ENDBRANCH   1   2
BRANCH   1  11
ATOM     11  C   UNL     1       7.326   5.082  17.727  0.00  0.00    +0.000 C 
ATOM     12  O   UNL     1       8.187   4.210  17.709  0.00  0.00    +0.000 OA
BRANCH  11  13
ATOM     13  C   UNL     1       6.736   5.752  16.492  0.00  0.00    +0.000 C 
BRANCH  13  16
ATOM     14  C   UNL     1       6.745   4.665  14.265  0.00  0.00    +0.000 C 
ATOM     15  O   UNL     1       6.321   3.906  13.403  0.00  0.00    +0.000 OA
ATOM     16  N   UNL     1       6.174   4.829  15.512  0.00  0.00    +0.000 N 
ATOM     17  C   UNL     1       4.962   4.118  15.867  0.00  0.00    +0.000 C 
BRANCH  14  19
ATOM     18  C   UNL     1       8.273   5.624  12.756  0.00  0.00    +0.000 C 
ATOM     19  O   UNL     1       7.847   5.447  14.106  0.00  0.00    +0.000 OA
ENDBRANCH  14  19
ENDBRANCH  13  16
ENDBRANCH  11  13
ENDBRANCH   1  11
TORSDOF 6
ENDMDL
MODEL 2
REMARK VINA RESULT:      -6.1      2.561      6.398
REMARK  Name = 
REMARK  10 active torsions:
REMARK  status: ('A' for Active; 'I' for Inactive)
REMARK    1  A    between atoms: C_1  and  O_2
REMARK    2  A    between atoms: O_2  and  C_3
REMARK    3  A    between atoms: N_5  and  C_6
REMARK    4  A    between atoms: N_5  and  C_7
REMARK    5  A    between atoms: C_7  and  C_8
REMARK    6  A    between atoms: C_8  and  O_10
REMARK    7  A    between atoms: O_10  and  C_11
REMARK    8  A    between atoms: C_14  and  N_15
REMARK    9  A    between atoms: N_15  and  C_16
REMARK   10  A    between atoms: N_15  and  C_17
REMARK                            x       y       z     vdW  Elec       q    Type
REMARK                         _______ _______ _______ _____ _____    ______ ____
ROOT
ATOM      1  O   UNL     1       5.451   5.606  19.195  0.00  0.00    +0.000 OA
ENDROOT
BRANCH   1   2
ATOM      2  C   UNL     1       5.876   5.468  17.869  0.00  0.00    +0.000 A 
ATOM      3  C   UNL     1       6.935   4.635  17.528  0.00  0.00    +0.000 A 
ATOM      4  C   UNL     1       7.232   4.405  16.182  0.00  0.00    +0.000 A 
ATOM      5  C   UNL     1       6.479   4.963  15.135  0.00  0.00    +0.000 A 
ATOM      6  C   UNL     1       5.415   5.800  15.521  0.00  0.00    +0.000 A 
ATOM      7  C   UNL     1       5.108   6.049  16.870  0.00  0.00    +0.000 A 
BRANCH   5   8
ATOM      8  N   UNL     1       6.795   4.704  13.810  0.00  0.00    +0.000 N 
ATOM      9  C   UNL     1       7.941   5.332  13.155  0.00  0.00    +0.000 C 
ATOM     10  C   UNL     1       6.157   3.642  13.041  0.00  0.00    +0.000 C 
ENDBRANCH   5   8
ENDBRANCH   1   2
BRANCH   1  11
ATOM     11  C   UNL     1       4.164   5.146  19.448  0.00  0.00    +0.000 C 
ATOM     12  O   UNL     1       3.211   5.846  19.771  0.00  0.00    +0.000 OA
BRANCH  11  13
ATOM     13  C   UNL     1       4.108   3.636  19.245  0.00  0.00    +0.000 C 
BRANCH  13  16
ATOM     14  C   UNL     1       1.926   2.465  19.289  0.00  0.00    +0.000 C 
ATOM     15  O   UNL     1       0.888   2.040  18.797  0.00  0.00    +0.000 OA
ATOM     16  N   UNL     1       2.897   3.157  18.591  0.00  0.00    +0.000 N 
ATOM     17  C   UNL     1       2.759   3.385  17.166  0.00  0.00    +0.000 C 
BRANCH  14  19
ATOM     18  C   UNL     1       1.377   2.961  21.521  0.00  0.00    +0.000 C 
ATOM     19  O   UNL     1       2.255   2.315  20.600  0.00  0.00    +0.000 OA
ENDBRANCH  14  19
ENDBRANCH  13  16
ENDBRANCH  11  13
ENDBRANCH   1  11
TORSDOF 6
ENDMDL
MODEL 3
REMARK VINA RESULT:      -5.9      0.930      1.738
REMARK  Name = 
REMARK  10 active torsions:
REMARK  status: ('A' for Active; 'I' for Inactive)
REMARK    1  A    between atoms: C_1  and  O_2
REMARK    2  A    between atoms: O_2  and  C_3
REMARK    3  A    between atoms: N_5  and  C_6
REMARK    4  A    between atoms: N_5  and  C_7
REMARK    5  A    between atoms: C_7  and  C_8
REMARK    6  A    between atoms: C_8  and  O_10
REMARK    7  A    between atoms: O_10  and  C_11
REMARK    8  A    between atoms: C_14  and  N_15
REMARK    9  A    between atoms: N_15  and  C_16
REMARK   10  A    between atoms: N_15  and  C_17
REMARK                            x       y       z     vdW  Elec       q    Type
REMARK                         _______ _______ _______ _____ _____    ______ ____
ROOT
ATOM      1  O   UNL     1       6.117   6.121  18.393  0.00  0.00    +0.000 OA
ENDROOT
BRANCH   1   2
ATOM      2  C   UNL     1       5.010   5.303  18.641  0.00  0.00    +0.000 A 
ATOM      3  C   UNL     1       5.131   4.108  19.340  0.00  0.00    +0.000 A 
ATOM      4  C   UNL     1       3.984   3.394  19.702  0.00  0.00    +0.000 A 
ATOM      5  C   UNL     1       2.687   3.851  19.413  0.00  0.00    +0.000 A 
ATOM      6  C   UNL     1       2.606   5.066  18.705  0.00  0.00    +0.000 A 
ATOM      7  C   UNL     1       3.750   5.791  18.327  0.00  0.00    +0.000 A 
BRANCH   5   8
ATOM      8  N   UNL     1       1.571   3.125  19.796  0.00  0.00    +0.000 N 
ATOM      9  C   UNL     1       0.738   2.421  18.822  0.00  0.00    +0.000 C 
ATOM     10  C   UNL     1       1.267   2.826  21.191  0.00  0.00    +0.000 C 
ENDBRANCH   5   8
ENDBRANCH   1   2
BRANCH   1  11
ATOM     11  C   UNL     1       6.441   6.277  17.051  0.00  0.00    +0.000 C 
ATOM     12  O   UNL     1       6.191   7.266  16.371  0.00  0.00    +0.000 OA
BRANCH  11  13
ATOM     13  C   UNL     1       7.174   5.038  16.551  0.00  0.00    +0.000 C 
BRANCH  13  16
ATOM     14  C   UNL     1       6.937   4.568  14.130  0.00  0.00    +0.000 C 
ATOM     15  O   UNL     1       6.436   4.027  13.152  0.00  0.00    +0.000 OA
ATOM     16  N   UNL     1       6.529   4.360  15.434  0.00  0.00    +0.000 N 
ATOM     17  C   UNL     1       5.405   3.492  15.724  0.00  0.00    +0.000 C 
BRANCH  14  19
ATOM     18  C   UNL     1       8.378   5.798  12.737  0.00  0.00    +0.000 C 
ATOM     19  O   UNL     1       7.974   5.445  14.059  0.00  0.00    +0.000 OA
ENDBRANCH  14  19
ENDBRANCH  13  16
ENDBRANCH  11  13
ENDBRANCH   1  11
TORSDOF 6
ENDMDL
MODEL 4
REMARK VINA RESULT:      -5.9      2.612      6.478
REMARK  Name = 
REMARK  10 active torsions:
REMARK  status: ('A' for Active; 'I' for Inactive)
REMARK    1  A    between atoms: C_1  and  O_2
REMARK    2  A    between atoms: O_2  and  C_3
REMARK    3  A    between atoms: N_5  and  C_6
REMARK    4  A    between atoms: N_5  and  C_7
REMARK    5  A    between atoms: C_7  and  C_8
REMARK    6  A    between atoms: C_8  and  O_10
REMARK    7  A    between atoms: O_10  and  C_11
REMARK    8  A    between atoms: C_14  and  N_15
REMARK    9  A    between atoms: N_15  and  C_16
REMARK   10  A    between atoms: N_15  and  C_17
REMARK                            x       y       z     vdW  Elec       q    Type
REMARK                         _______ _______ _______ _____ _____    ______ ____
ROOT
ATOM      1  O   UNL     1       5.261   5.704  18.880  0.00  0.00    +0.000 OA
ENDROOT
BRANCH   1   2
ATOM      2  C   UNL     1       5.588   5.339  17.570  0.00  0.00    +0.000 A 
ATOM      3  C   UNL     1       4.939   5.899  16.476  0.00  0.00    +0.000 A 
ATOM      4  C   UNL     1       5.395   5.626  15.183  0.00  0.00    +0.000 A 
ATOM      5  C   UNL     1       6.518   4.819  14.931  0.00  0.00    +0.000 A 
ATOM      6  C   UNL     1       7.147   4.271  16.065  0.00  0.00    +0.000 A 
ATOM      7  C   UNL     1       6.697   4.529  17.371  0.00  0.00    +0.000 A 
BRANCH   5   8
ATOM      8  N   UNL     1       6.950   4.578  13.637  0.00  0.00    +0.000 N 
ATOM      9  C   UNL     1       6.245   3.653  12.750  0.00  0.00    +0.000 C 
ATOM     10  C   UNL     1       7.989   5.372  12.992  0.00  0.00    +0.000 C 
ENDBRANCH   5   8
ENDBRANCH   1   2
BRANCH   1  11
ATOM     11  C   UNL     1       3.992   5.320  19.296  0.00  0.00    +0.000 C 
ATOM     12  O   UNL     1       3.099   6.083  19.650  0.00  0.00    +0.000 OA
BRANCH  11  13
ATOM     13  C   UNL     1       3.866   3.803  19.228  0.00  0.00    +0.000 C 
BRANCH  13  16
ATOM     14  C   UNL     1       1.736   2.550  19.400  0.00  0.00    +0.000 C 
ATOM     15  O   UNL     1       0.668   2.120  18.982  0.00  0.00    +0.000 OA
ATOM     16  N   UNL     1       2.611   3.322  18.663  0.00  0.00    +0.000 N 
ATOM     17  C   UNL     1       2.326   3.640  17.277  0.00  0.00    +0.000 C 
BRANCH  14  19
ATOM     18  C   UNL     1       1.347   2.790  21.707  0.00  0.00    +0.000 C 
ATOM     19  O   UNL     1       2.197   2.326  20.660  0.00  0.00    +0.000 OA
ENDBRANCH  14  19
ENDBRANCH  13  16
ENDBRANCH  11  13
ENDBRANCH   1  11
TORSDOF 6
ENDMDL
MODEL 5
REMARK VINA RESULT:      -5.9      2.444      6.562
REMARK  Name = 
REMARK  10 active torsions:
REMARK  status: ('A' for Active; 'I' for Inactive)
REMARK    1  A    between atoms: C_1  and  O_2
REMARK    2  A    between atoms: O_2  and  C_3
REMARK    3  A    between atoms: N_5  and  C_6
REMARK    4  A    between atoms: N_5  and  C_7
REMARK    5  A    between atoms: C_7  and  C_8
REMARK    6  A    between atoms: C_8  and  O_10
REMARK    7  A    between atoms: O_10  and  C_11
REMARK    8  A    between atoms: C_14  and  N_15
REMARK    9  A    between atoms: N_15  and  C_16
REMARK   10  A    between atoms: N_15  and  C_17
REMARK                            x       y       z     vdW  Elec       q    Type
REMARK                         _______ _______ _______ _____ _____    ______ ____
ROOT
ATOM      1  O   UNL     1       5.105   5.556  18.489  0.00  0.00    +0.000 OA
ENDROOT
BRANCH   1   2
ATOM      2  C   UNL     1       5.588   5.160  17.238  0.00  0.00    +0.000 A 
ATOM      3  C   UNL     1       4.757   4.573  16.290  0.00  0.00    +0.000 A 
ATOM      4  C   UNL     1       5.237   4.331  15.000  0.00  0.00    +0.000 A 
ATOM      5  C   UNL     1       6.536   4.685  14.597  0.00  0.00    +0.000 A 
ATOM      6  C   UNL     1       7.346   5.277  15.584  0.00  0.00    +0.000 A 
ATOM      7  C   UNL     1       6.882   5.520  16.889  0.00  0.00    +0.000 A 
BRANCH   5   8
ATOM      8  N   UNL     1       6.976   4.441  13.305  0.00  0.00    +0.000 N 
ATOM      9  C   UNL     1       6.315   3.467  12.438  0.00  0.00    +0.000 C 
ATOM     10  C   UNL     1       7.974   5.273  12.643  0.00  0.00    +0.000 C 
ENDBRANCH   5   8
ENDBRANCH   1   2
BRANCH   1  11
ATOM     11  C   UNL     1       4.682   4.517  19.310  0.00  0.00    +0.000 C 
ATOM     12  O   UNL     1       5.337   3.517  19.583  0.00  0.00    +0.000 OA
BRANCH  11  13
ATOM     13  C   UNL     1       3.284   4.816  19.839  0.00  0.00    +0.000 C 
BRANCH  13  16
ATOM     14  C   UNL     1       1.670   2.969  19.486  0.00  0.00    +0.000 C 
ATOM     15  O   UNL     1       0.763   2.389  18.903  0.00  0.00    +0.000 OA
ATOM     16  N   UNL     1       2.205   4.181  19.092  0.00  0.00    +0.000 N 
ATOM     17  C   UNL     1       1.736   4.836  17.886  0.00  0.00    +0.000 C 
BRANCH  14  19
ATOM     18  C   UNL     1       1.456   2.519  21.784  0.00  0.00    +0.000 C 
ATOM     19  O   UNL     1       2.268   2.495  20.612  0.00  0.00    +0.000 OA
ENDBRANCH  14  19
ENDBRANCH  13  16
ENDBRANCH  11  13
ENDBRANCH   1  11
TORSDOF 6
ENDMDL
MODEL 6
REMARK VINA RESULT:      -5.9      3.097      4.425
REMARK  Name = 
REMARK  10 active torsions:
REMARK  status: ('A' for Active; 'I' for Inactive)
REMARK    1  A    between atoms: C_1  and  O_2
REMARK    2  A    between atoms: O_2  and  C_3
REMARK    3  A    between atoms: N_5  and  C_6
REMARK    4  A    between atoms: N_5  and  C_7
REMARK    5  A    between atoms: C_7  and  C_8
REMARK    6  A    between atoms: C_8  and  O_10
REMARK    7  A    between atoms: O_10  and  C_11
REMARK    8  A    between atoms: C_14  and  N_15
REMARK    9  A    between atoms: N_15  and  C_16
REMARK   10  A    between atoms: N_15  and  C_17
REMARK                            x       y       z     vdW  Elec       q    Type
REMARK                         _______ _______ _______ _____ _____    ______ ____
ROOT
ATOM      1  O   UNL     1       4.135   4.577  18.653  0.00  0.00    +0.000 OA
ENDROOT
BRANCH   1   2
ATOM      2  C   UNL     1       3.307   5.691  18.827  0.00  0.00    +0.000 A 
ATOM      3  C   UNL     1       2.547   5.858  19.979  0.00  0.00    +0.000 A 
ATOM      4  C   UNL     1       1.852   7.054  20.185  0.00  0.00    +0.000 A 
ATOM      5  C   UNL     1       1.911   8.128  19.281  0.00  0.00    +0.000 A 
ATOM      6  C   UNL     1       2.691   7.920  18.128  0.00  0.00    +0.000 A 
ATOM      7  C   UNL     1       3.389   6.721  17.901  0.00  0.00    +0.000 A 
BRANCH   5   8
ATOM      8  N   UNL     1       1.219   9.305  19.522  0.00  0.00    +0.000 N 
ATOM      9  C   UNL     1       0.685   9.626  20.845  0.00  0.00    +0.000 C 
ATOM     10  C   UNL     1       1.157  10.395  18.556  0.00  0.00    +0.000 C 
ENDBRANCH   5   8
ENDBRANCH   1   2
BRANCH   1  11
ATOM     11  C   UNL     1       3.967   3.905  17.447  0.00  0.00    +0.000 C 
ATOM     12  O   UNL     1       2.890   3.574  16.964  0.00  0.00    +0.000 OA
BRANCH  11  13
ATOM     13  C   UNL     1       5.325   3.658  16.803  0.00  0.00    +0.000 C 
BRANCH  13  16
ATOM     14  C   UNL     1       7.052   5.431  16.919  0.00  0.00    +0.000 C 
ATOM     15  O   UNL     1       7.639   6.431  16.526  0.00  0.00    +0.000 OA
ATOM     16  N   UNL     1       5.974   4.853  16.277  0.00  0.00    +0.000 N 
ATOM     17  C   UNL     1       5.423   5.452  15.077  0.00  0.00    +0.000 C 
BRANCH  14  19
ATOM     18  C   UNL     1       7.692   5.564  19.178  0.00  0.00    +0.000 C 
ATOM     19  O   UNL     1       7.394   4.749  18.046  0.00  0.00    +0.000 OA
ENDBRANCH  14  19
ENDBRANCH  13  16
ENDBRANCH  11  13
ENDBRANCH   1  11
TORSDOF 6
ENDMDL
MODEL 7
REMARK VINA RESULT:      -5.8      3.007      4.308
REMARK  Name = 
REMARK  10 active torsions:
REMARK  status: ('A' for Active; 'I' for Inactive)
REMARK    1  A    between atoms: C_1  and  O_2
REMARK    2  A    between atoms: O_2  and  C_3
REMARK    3  A    between atoms: N_5  and  C_6
REMARK    4  A    between atoms: N_5  and  C_7
REMARK    5  A    between atoms: C_7  and  C_8
REMARK    6  A    between atoms: C_8  and  O_10
REMARK    7  A    between atoms: O_10  and  C_11
REMARK    8  A    between atoms: C_14  and  N_15
REMARK    9  A    between atoms: N_15  and  C_16
REMARK   10  A    between atoms: N_15  and  C_17
REMARK                            x       y       z     vdW  Elec       q    Type
REMARK                         _______ _______ _______ _____ _____    ______ ____
ROOT
ATOM      1  O   UNL     1       4.153   4.337  18.704  0.00  0.00    +0.000 OA
ENDROOT
BRANCH   1   2
ATOM      2  C   UNL     1       3.550   5.585  18.893  0.00  0.00    +0.000 A 
ATOM      3  C   UNL     1       3.634   6.586  17.933  0.00  0.00    +0.000 A 
ATOM      4  C   UNL     1       2.893   7.762  18.088  0.00  0.00    +0.000 A 
ATOM      5  C   UNL     1       2.028   7.973  19.174  0.00  0.00    +0.000 A 
ATOM      6  C   UNL     1       1.970   6.936  20.125  0.00  0.00    +0.000 A 
ATOM      7  C   UNL     1       2.715   5.751  19.988  0.00  0.00    +0.000 A 
BRANCH   5   8
ATOM      8  N   UNL     1       1.299   9.146  19.291  0.00  0.00    +0.000 N 
ATOM      9  C   UNL     1       0.650   9.527  20.545  0.00  0.00    +0.000 C 
ATOM     10  C   UNL     1       1.302  10.180  18.264  0.00  0.00    +0.000 C 
ENDBRANCH   5   8
ENDBRANCH   1   2
BRANCH   1  11
ATOM     11  C   UNL     1       3.987   3.793  17.436  0.00  0.00    +0.000 C 
ATOM     12  O   UNL     1       2.909   3.581  16.891  0.00  0.00    +0.000 OA
BRANCH  11  13
ATOM     13  C   UNL     1       5.349   3.514  16.813  0.00  0.00    +0.000 C 
BRANCH  13  16
ATOM     14  C   UNL     1       7.044   5.321  16.864  0.00  0.00    +0.000 C 
ATOM     15  O   UNL     1       7.629   6.302  16.422  0.00  0.00    +0.000 OA
ATOM     16  N   UNL     1       5.998   4.681  16.227  0.00  0.00    +0.000 N 
ATOM     17  C   UNL     1       5.482   5.186  14.970  0.00  0.00    +0.000 C 
BRANCH  14  19
ATOM     18  C   UNL     1       7.531   5.619  19.145  0.00  0.00    +0.000 C 
ATOM     19  O   UNL     1       7.355   4.726  18.047  0.00  0.00    +0.000 OA
ENDBRANCH  14  19
ENDBRANCH  13  16
ENDBRANCH  11  13
ENDBRANCH   1  11
TORSDOF 6
ENDMDL
MODEL 8
REMARK VINA RESULT:      -5.7      3.039      4.252
REMARK  Name = 
REMARK  10 active torsions:
REMARK  status: ('A' for Active; 'I' for Inactive)
REMARK    1  A    between atoms: C_1  and  O_2
REMARK    2  A    between atoms: O_2  and  C_3
REMARK    3  A    between atoms: N_5  and  C_6
REMARK    4  A    between atoms: N_5  and  C_7
REMARK    5  A    between atoms: C_7  and  C_8
REMARK    6  A    between atoms: C_8  and  O_10
REMARK    7  A    between atoms: O_10  and  C_11
REMARK    8  A    between atoms: C_14  and  N_15
REMARK    9  A    between atoms: N_15  and  C_16
REMARK   10  A    between atoms: N_15  and  C_17
REMARK                            x       y       z     vdW  Elec       q    Type
REMARK                         _______ _______ _______ _____ _____    ______ ____
ROOT
ATOM      1  O   UNL     1       3.441   4.565  18.104  0.00  0.00    +0.000 OA
ENDROOT
BRANCH   1   2
ATOM      2  C   UNL     1       2.769   5.620  18.729  0.00  0.00    +0.000 A 
ATOM      3  C   UNL     1       2.294   5.510  20.030  0.00  0.00    +0.000 A 
ATOM      4  C   UNL     1       1.764   6.632  20.674  0.00  0.00    +0.000 A 
ATOM      5  C   UNL     1       1.714   7.899  20.068  0.00  0.00    +0.000 A 
ATOM      6  C   UNL     1       2.204   7.970  18.750  0.00  0.00    +0.000 A 
ATOM      7  C   UNL     1       2.733   6.849  18.085  0.00  0.00    +0.000 A 
BRANCH   5   8
ATOM      8  N   UNL     1       1.192   8.993  20.739  0.00  0.00    +0.000 N 
ATOM      9  C   UNL     1       1.284   9.120  22.193  0.00  0.00    +0.000 C 
ATOM     10  C   UNL     1       0.716  10.187  20.049  0.00  0.00    +0.000 C 
ENDBRANCH   5   8
ENDBRANCH   1   2
BRANCH   1  11
ATOM     11  C   UNL     1       4.501   4.034  18.830  0.00  0.00    +0.000 C 
ATOM     12  O   UNL     1       4.456   3.012  19.506  0.00  0.00    +0.000 OA
BRANCH  11  13
ATOM     13  C   UNL     1       5.738   4.904  18.645  0.00  0.00    +0.000 C 
BRANCH  13  16
ATOM     14  C   UNL     1       7.176   5.908  16.894  0.00  0.00    +0.000 C 
ATOM     15  O   UNL     1       7.629   6.016  15.762  0.00  0.00    +0.000 OA
ATOM     16  N   UNL     1       6.230   4.976  17.274  0.00  0.00    +0.000 N 
ATOM     17  C   UNL     1       5.659   4.067  16.300  0.00  0.00    +0.000 C 
BRANCH  14  19
ATOM     18  C   UNL     1       7.701   8.081  17.626  0.00  0.00    +0.000 C 
ATOM     19  O   UNL     1       7.556   6.696  17.936  0.00  0.00    +0.000 OA
ENDBRANCH  14  19
ENDBRANCH  13  16
ENDBRANCH  11  13
ENDBRANCH   1  11
TORSDOF 6
ENDMDL
MODEL 9
REMARK VINA RESULT:      -5.7      2.391      6.513
REMARK  Name = 
REMARK  10 active torsions:
REMARK  status: ('A' for Active; 'I' for Inactive)
REMARK    1  A    between atoms: C_1  and  O_2
REMARK    2  A    between atoms: O_2  and  C_3
REMARK    3  A    between atoms: N_5  and  C_6
REMARK    4  A    between atoms: N_5  and  C_7
REMARK    5  A    between atoms: C_7  and  C_8
REMARK    6  A    between atoms: C_8  and  O_10
REMARK    7  A    between atoms: O_10  and  C_11
REMARK    8  A    between atoms: C_14  and  N_15
REMARK    9  A    between atoms: N_15  and  C_16
REMARK   10  A    between atoms: N_15  and  C_17
REMARK                            x       y       z     vdW  Elec       q    Type
REMARK                         _______ _______ _______ _____ _____    ______ ____
ROOT
ATOM      1  O   UNL     1       5.157   4.753  18.634  0.00  0.00    +0.000 OA
ENDROOT
BRANCH   1   2
ATOM      2  C   UNL     1       5.630   4.535  17.336  0.00  0.00    +0.000 A 
ATOM      3  C   UNL     1       4.799   4.056  16.330  0.00  0.00    +0.000 A 
ATOM      4  C   UNL     1       5.265   3.996  15.014  0.00  0.00    +0.000 A 
ATOM      5  C   UNL     1       6.549   4.432  14.645  0.00  0.00    +0.000 A 
ATOM      6  C   UNL     1       7.360   4.911  15.691  0.00  0.00    +0.000 A 
ATOM      7  C   UNL     1       6.910   4.971  17.022  0.00  0.00    +0.000 A 
BRANCH   5   8
ATOM      8  N   UNL     1       6.975   4.369  13.327  0.00  0.00    +0.000 N 
ATOM      9  C   UNL     1       6.360   3.459  12.362  0.00  0.00    +0.000 C 
ATOM     10  C   UNL     1       7.900   5.338  12.752  0.00  0.00    +0.000 C 
ENDBRANCH   5   8
ENDBRANCH   1   2
BRANCH   1  11
ATOM     11  C   UNL     1       4.125   5.678  18.734  0.00  0.00    +0.000 C 
ATOM     12  O   UNL     1       4.106   6.781  18.199  0.00  0.00    +0.000 OA
BRANCH  11  13
ATOM     13  C   UNL     1       3.004   5.108  19.595  0.00  0.00    +0.000 C 
BRANCH  13  16
ATOM     14  C   UNL     1       2.060   2.821  19.472  0.00  0.00    +0.000 C 
ATOM     15  O   UNL     1       1.393   1.924  18.970  0.00  0.00    +0.000 OA
ATOM     16  N   UNL     1       2.194   4.088  18.939  0.00  0.00    +0.000 N 
ATOM     17  C   UNL     1       1.567   4.428  17.677  0.00  0.00    +0.000 C 
BRANCH  14  19
ATOM     18  C   UNL     1       1.955   2.632  21.813  0.00  0.00    +0.000 C 
ATOM     19  O   UNL     1       2.754   2.684  20.633  0.00  0.00    +0.000 OA
ENDBRANCH  14  19
ENDBRANCH  13  16
ENDBRANCH  11  13
ENDBRANCH   1  11
TORSDOF 6
ENDMDL
