MODEL 1
REMARK VINA RESULT:      -8.6      0.000      0.000
REMARK  Name = 
REMARK  5 active torsions:
REMARK  status: ('A' for Active; 'I' for Inactive)
REMARK    1  A    between atoms: C_1  and  C_2
REMARK    2  A    between atoms: C_5  and  N_6
REMARK    3  A    between atoms: C_7  and  C_9
REMARK    4  A    between atoms: C_9  and  N_10
REMARK    5  A    between atoms: C_26  and  C_27
REMARK                            x       y       z     vdW  Elec       q    Type
REMARK                         _______ _______ _______ _____ _____    ______ ____
ROOT
ATOM      1  N   UNL     1       3.317   6.054  17.868  0.00  0.00    +0.000 N 
ATOM      2  C   UNL     1       2.291   5.120  18.049  0.00  0.00    +0.000 C 
ATOM      3  O   UNL     1       1.212   5.202  17.454  0.00  0.00    +0.000 OA
ATOM      4  C   UNL     1       2.364   4.218  19.212  0.00  0.00    +0.000 A 
ATOM      5  C   UNL     1       1.351   4.343  20.176  0.00  0.00    +0.000 A 
ATOM      6  C   UNL     1       1.376   3.555  21.323  0.00  0.00    +0.000 A 
ATOM      7  C   UNL     1       2.412   2.643  21.507  0.00  0.00    +0.000 A 
ATOM      8  C   UNL     1       3.398   2.494  20.527  0.00  0.00    +0.000 A 
ATOM      9  C   UNL     1       3.370   3.272  19.364  0.00  0.00    +0.000 A 
ATOM     10  S   UNL     1       4.527   2.972  18.068  0.00  0.00    +0.000 S 
ATOM     11  C   UNL     1       5.363   4.536  18.017  0.00  0.00    +0.000 A 
ATOM     12  N   UNL     1       6.717   4.351  17.987  0.00  0.00    +0.000 NA
ATOM     13  C   UNL     1       7.514   5.422  17.846  0.00  0.00    +0.000 A 
ATOM     14  C   UNL     1       7.028   6.703  17.761  0.00  0.00    +0.000 A 
ATOM     15  C   UNL     1       5.646   6.885  17.821  0.00  0.00    +0.000 A 
ATOM     16  C   UNL     1       4.747   5.803  17.935  0.00  0.00    +0.000 A 
ENDROOT
BRANCH   1  17
ATOM     17  C   UNL     1       2.830   7.353  17.395  0.00  0.00    +0.000 C 
BRANCH  17  19
ATOM     18  N   UNL     1       1.287   9.143  17.987  0.00  0.00    +0.000 N 
ATOM     19  C   UNL     1       2.076   8.115  18.478  0.00  0.00    +0.000 C 
ATOM     20  O   UNL     1       2.204   7.786  19.656  0.00  0.00    +0.000 OA
ATOM     21  H   UNL     1       1.237   9.240  16.978  0.00  0.00    +0.000 HD
BRANCH  18  26
ATOM     22  C   UNL     1      -1.805  12.717  21.253  0.00  0.00    +0.000 C 
ATOM     23  C   UNL     1      -0.995  11.802  20.385  0.00  0.00    +0.000 A 
ATOM     24  C   UNL     1       0.321  11.496  20.714  0.00  0.00    +0.000 A 
ATOM     25  C   UNL     1       1.061  10.623  19.917  0.00  0.00    +0.000 A 
ATOM     26  C   UNL     1       0.512  10.029  18.772  0.00  0.00    +0.000 A 
ATOM     27  C   UNL     1      -0.809  10.355  18.407  0.00  0.00    +0.000 A 
ATOM     28  C   UNL     1      -1.534   9.784  17.217  0.00  0.00    +0.000 C 
ATOM     29  C   UNL     1      -1.549  11.235  19.231  0.00  0.00    +0.000 A 
ENDBRANCH  18  26
ENDBRANCH  17  19
ENDBRANCH   1  17
TORSDOF 3
ENDMDL
MODEL 2
REMARK VINA RESULT:      -8.5      0.768      1.227
REMARK  Name = 
REMARK  5 active torsions:
REMARK  status: ('A' for Active; 'I' for Inactive)
REMARK    1  A    between atoms: C_1  and  C_2
REMARK    2  A    between atoms: C_5  and  N_6
REMARK    3  A    between atoms: C_7  and  C_9
REMARK    4  A    between atoms: C_9  and  N_10
REMARK    5  A    between atoms: C_26  and  C_27
REMARK                            x       y       z     vdW  Elec       q    Type
REMARK                         _______ _______ _______ _____ _____    ______ ____
ROOT
ATOM      1  N   UNL     1       3.253   5.988  17.827  0.00  0.00    +0.000 N 
ATOM      2  C   UNL     1       2.247   5.038  18.034  0.00  0.00    +0.000 C 
ATOM      3  O   UNL     1       1.164   5.087  17.444  0.00  0.00    +0.000 OA
ATOM      4  C   UNL     1       2.343   4.164  19.216  0.00  0.00    +0.000 A 
ATOM      5  C   UNL     1       1.333   4.290  20.182  0.00  0.00    +0.000 A 
ATOM      6  C   UNL     1       1.379   3.529  21.347  0.00  0.00    +0.000 A 
ATOM      7  C   UNL     1       2.433   2.641  21.545  0.00  0.00    +0.000 A 
ATOM      8  C   UNL     1       3.417   2.490  20.563  0.00  0.00    +0.000 A 
ATOM      9  C   UNL     1       3.368   3.242  19.383  0.00  0.00    +0.000 A 
ATOM     10  S   UNL     1       4.525   2.936  18.088  0.00  0.00    +0.000 S 
ATOM     11  C   UNL     1       5.329   4.514  17.998  0.00  0.00    +0.000 A 
ATOM     12  N   UNL     1       6.687   4.354  17.965  0.00  0.00    +0.000 NA
ATOM     13  C   UNL     1       7.462   5.437  17.796  0.00  0.00    +0.000 A 
ATOM     14  C   UNL     1       6.951   6.706  17.686  0.00  0.00    +0.000 A 
ATOM     15  C   UNL     1       5.565   6.863  17.749  0.00  0.00    +0.000 A 
ATOM     16  C   UNL     1       4.688   5.766  17.892  0.00  0.00    +0.000 A 
ENDROOT
BRANCH   1  17
ATOM     17  C   UNL     1       2.739   7.267  17.329  0.00  0.00    +0.000 C 
BRANCH  17  19
ATOM     18  N   UNL     1       1.493   9.253  17.991  0.00  0.00    +0.000 N 
ATOM     19  C   UNL     1       2.175   8.136  18.446  0.00  0.00    +0.000 C 
ATOM     20  O   UNL     1       2.347   7.808  19.619  0.00  0.00    +0.000 OA
ATOM     21  H   UNL     1       1.381   9.344  16.986  0.00  0.00    +0.000 HD
BRANCH  18  26
ATOM     22  C   UNL     1      -0.991  13.231  21.309  0.00  0.00    +0.000 C 
ATOM     23  C   UNL     1      -0.325  12.191  20.459  0.00  0.00    +0.000 A 
ATOM     24  C   UNL     1      -0.797  10.883  20.441  0.00  0.00    +0.000 A 
ATOM     25  C   UNL     1      -0.189   9.926  19.628  0.00  0.00    +0.000 A 
ATOM     26  C   UNL     1       0.903  10.244  18.809  0.00  0.00    +0.000 A 
ATOM     27  C   UNL     1       1.414  11.557  18.841  0.00  0.00    +0.000 A 
ATOM     28  C   UNL     1       2.568  12.047  18.006  0.00  0.00    +0.000 C 
ATOM     29  C   UNL     1       0.781  12.518  19.664  0.00  0.00    +0.000 A 
ENDBRANCH  18  26
ENDBRANCH  17  19
ENDBRANCH   1  17
TORSDOF 3
ENDMDL
MODEL 3
REMARK VINA RESULT:      -8.2      3.518      8.873
REMARK  Name = 
REMARK  5 active torsions:
REMARK  status: ('A' for Active; 'I' for Inactive)
REMARK    1  A    between atoms: C_1  and  C_2
REMARK    2  A    between atoms: C_5  and  N_6
REMARK    3  A    between atoms: C_7  and  C_9
REMARK    4  A    between atoms: C_9  and  N_10
REMARK    5  A    between atoms: C_26  and  C_27
REMARK                            x       y       z     vdW  Elec       q    Type
REMARK                         _______ _______ _______ _____ _____    ______ ____
ROOT
ATOM      1  N   UNL     1       0.495  10.906  21.029  0.00  0.00    +0.000 N 
ATOM      2  C   UNL     1       1.047  11.168  19.771  0.00  0.00    +0.000 C 
ATOM      3  O   UNL     1       1.697  10.324  19.147  0.00  0.00    +0.000 OA
ATOM      4  C   UNL     1       1.147  12.570  19.330  0.00  0.00    +0.000 A 
ATOM      5  C   UNL     1       2.438  13.083  19.132  0.00  0.00    +0.000 A 
ATOM      6  C   UNL     1       2.614  14.412  18.757  0.00  0.00    +0.000 A 
ATOM      7  C   UNL     1       1.500  15.228  18.578  0.00  0.00    +0.000 A 
ATOM      8  C   UNL     1       0.214  14.704  18.738  0.00  0.00    +0.000 A 
ATOM      9  C   UNL     1       0.030  13.364  19.100  0.00  0.00    +0.000 A 
ATOM     10  S   UNL     1      -1.592  12.674  19.152  0.00  0.00    +0.000 S 
ATOM     11  C   UNL     1      -1.690  12.214  20.862  0.00  0.00    +0.000 A 
ATOM     12  N   UNL     1      -2.876  12.632  21.399  0.00  0.00    +0.000 NA
ATOM     13  C   UNL     1      -3.173  12.287  22.662  0.00  0.00    +0.000 A 
ATOM     14  C   UNL     1      -2.320  11.555  23.451  0.00  0.00    +0.000 A 
ATOM     15  C   UNL     1      -1.099  11.157  22.904  0.00  0.00    +0.000 A 
ATOM     16  C   UNL     1      -0.736  11.456  21.573  0.00  0.00    +0.000 A 
ENDROOT
BRANCH   1  17
ATOM     17  C   UNL     1       1.186   9.829  21.744  0.00  0.00    +0.000 C 
BRANCH  17  19
ATOM     18  N   UNL     1       1.939   7.762  20.697  0.00  0.00    +0.000 N 
ATOM     19  C   UNL     1       0.842   8.454  21.184  0.00  0.00    +0.000 C 
ATOM     20  O   UNL     1      -0.324   8.063  21.202  0.00  0.00    +0.000 OA
ATOM     21  H   UNL     1       2.848   8.199  20.820  0.00  0.00    +0.000 HD
BRANCH  18  26
ATOM     22  C   UNL     1       1.798   2.531  18.328  0.00  0.00    +0.000 C 
ATOM     23  C   UNL     1       1.815   3.901  18.934  0.00  0.00    +0.000 A 
ATOM     24  C   UNL     1       1.416   4.097  20.252  0.00  0.00    +0.000 A 
ATOM     25  C   UNL     1       1.459   5.371  20.819  0.00  0.00    +0.000 A 
ATOM     26  C   UNL     1       1.902   6.485  20.092  0.00  0.00    +0.000 A 
ATOM     27  C   UNL     1       2.278   6.308  18.745  0.00  0.00    +0.000 A 
ATOM     28  C   UNL     1       2.788   7.406  17.849  0.00  0.00    +0.000 C 
ATOM     29  C   UNL     1       2.237   5.009  18.188  0.00  0.00    +0.000 A 
ENDBRANCH  18  26
ENDBRANCH  17  19
ENDBRANCH   1  17
TORSDOF 3
ENDMDL
MODEL 4
REMARK VINA RESULT:      -7.9      1.232      1.346
REMARK  Name = 
REMARK  5 active torsions:
REMARK  status: ('A' for Active; 'I' for Inactive)
REMARK    1  A    between atoms: C_1  and  C_2
REMARK    2  A    between atoms: C_5  and  N_6
REMARK    3  A    between atoms: C_7  and  C_9
REMARK    4  A    between atoms: C_9  and  N_10
REMARK    5  A    between atoms: C_26  and  C_27
REMARK                            x       y       z     vdW  Elec       q    Type
REMARK                         _______ _______ _______ _____ _____    ______ ____
ROOT
ATOM      1  N   UNL     1       3.434   5.956  17.747  0.00  0.00    +0.000 N 
ATOM      2  C   UNL     1       2.408   5.028  17.958  0.00  0.00    +0.000 C 
ATOM      3  O   UNL     1       1.371   5.029  17.289  0.00  0.00    +0.000 OA
ATOM      4  C   UNL     1       2.412   4.256  19.212  0.00  0.00    +0.000 A 
ATOM      5  C   UNL     1       1.336   4.464  20.089  0.00  0.00    +0.000 A 
ATOM      6  C   UNL     1       1.292   3.802  21.313  0.00  0.00    +0.000 A 
ATOM      7  C   UNL     1       2.322   2.932  21.661  0.00  0.00    +0.000 A 
ATOM      8  C   UNL     1       3.373   2.698  20.769  0.00  0.00    +0.000 A 
ATOM      9  C   UNL     1       3.415   3.349  19.530  0.00  0.00    +0.000 A 
ATOM     10  S   UNL     1       4.661   2.934  18.352  0.00  0.00    +0.000 S 
ATOM     11  C   UNL     1       5.481   4.499  18.190  0.00  0.00    +0.000 A 
ATOM     12  N   UNL     1       6.836   4.335  18.269  0.00  0.00    +0.000 NA
ATOM     13  C   UNL     1       7.630   5.399  18.068  0.00  0.00    +0.000 A 
ATOM     14  C   UNL     1       7.137   6.655  17.816  0.00  0.00    +0.000 A 
ATOM     15  C   UNL     1       5.752   6.819  17.765  0.00  0.00    +0.000 A 
ATOM     16  C   UNL     1       4.859   5.739  17.934  0.00  0.00    +0.000 A 
ENDROOT
BRANCH   1  17
ATOM     17  C   UNL     1       2.966   7.190  17.107  0.00  0.00    +0.000 C 
BRANCH  17  19
ATOM     18  N   UNL     1       1.532   7.847  18.964  0.00  0.00    +0.000 N 
ATOM     19  C   UNL     1       2.560   8.248  18.125  0.00  0.00    +0.000 C 
ATOM     20  O   UNL     1       3.140   9.332  18.142  0.00  0.00    +0.000 OA
ATOM     21  H   UNL     1       1.207   6.890  18.864  0.00  0.00    +0.000 HD
BRANCH  18  26
ATOM     22  C   UNL     1      -0.876  10.995  23.122  0.00  0.00    +0.000 C 
ATOM     23  C   UNL     1      -0.232  10.192  22.032  0.00  0.00    +0.000 A 
ATOM     24  C   UNL     1       0.642   9.155  22.340  0.00  0.00    +0.000 A 
ATOM     25  C   UNL     1       1.217   8.393  21.323  0.00  0.00    +0.000 A 
ATOM     26  C   UNL     1       0.938   8.641  19.971  0.00  0.00    +0.000 A 
ATOM     27  C   UNL     1       0.080   9.709  19.642  0.00  0.00    +0.000 A 
ATOM     28  C   UNL     1      -0.323  10.082  18.239  0.00  0.00    +0.000 C 
ATOM     29  C   UNL     1      -0.502  10.466  20.685  0.00  0.00    +0.000 A 
ENDBRANCH  18  26
ENDBRANCH  17  19
ENDBRANCH   1  17
TORSDOF 3
ENDMDL
MODEL 5
REMARK VINA RESULT:      -7.8      3.578      8.515
REMARK  Name = 
REMARK  5 active torsions:
REMARK  status: ('A' for Active; 'I' for Inactive)
REMARK    1  A    between atoms: C_1  and  C_2
REMARK    2  A    between atoms: C_5  and  N_6
REMARK    3  A    between atoms: C_7  and  C_9
REMARK    4  A    between atoms: C_9  and  N_10
REMARK    5  A    between atoms: C_26  and  C_27
REMARK                            x       y       z     vdW  Elec       q    Type
REMARK                         _______ _______ _______ _____ _____    ______ ____
ROOT
ATOM      1  N   UNL     1       0.218  11.177  19.447  0.00  0.00    +0.000 N 
ATOM      2  C   UNL     1       0.353  12.487  18.974  0.00  0.00    +0.000 C 
ATOM      3  O   UNL     1      -0.019  12.822  17.846  0.00  0.00    +0.000 OA
ATOM      4  C   UNL     1       1.254  13.401  19.697  0.00  0.00    +0.000 A 
ATOM      5  C   UNL     1       2.377  13.870  18.997  0.00  0.00    +0.000 A 
ATOM      6  C   UNL     1       3.297  14.703  19.627  0.00  0.00    +0.000 A 
ATOM      7  C   UNL     1       3.095  15.068  20.955  0.00  0.00    +0.000 A 
ATOM      8  C   UNL     1       1.956  14.630  21.638  0.00  0.00    +0.000 A 
ATOM      9  C   UNL     1       1.019  13.805  21.005  0.00  0.00    +0.000 A 
ATOM     10  S   UNL     1      -0.487  13.384  21.821  0.00  0.00    +0.000 S 
ATOM     11  C   UNL     1      -0.323  11.619  21.901  0.00  0.00    +0.000 A 
ATOM     12  N   UNL     1      -0.621  11.171  23.158  0.00  0.00    +0.000 NA
ATOM     13  C   UNL     1      -0.649   9.848  23.384  0.00  0.00    +0.000 A 
ATOM     14  C   UNL     1      -0.361   8.923  22.412  0.00  0.00    +0.000 A 
ATOM     15  C   UNL     1      -0.031   9.390  21.139  0.00  0.00    +0.000 A 
ATOM     16  C   UNL     1      -0.014  10.765  20.821  0.00  0.00    +0.000 A 
ENDROOT
BRANCH   1  17
ATOM     17  C   UNL     1       0.137  10.186  18.370  0.00  0.00    +0.000 C 
BRANCH  17  19
ATOM     18  N   UNL     1       1.518   8.185  18.529  0.00  0.00    +0.000 N 
ATOM     19  C   UNL     1       1.476   9.506  18.111  0.00  0.00    +0.000 C 
ATOM     20  O   UNL     1       2.385  10.135  17.573  0.00  0.00    +0.000 OA
ATOM     21  H   UNL     1       0.655   7.792  18.894  0.00  0.00    +0.000 HD
BRANCH  18  26
ATOM     22  C   UNL     1       6.094   4.741  18.086  0.00  0.00    +0.000 C 
ATOM     23  C   UNL     1       4.910   5.651  18.220  0.00  0.00    +0.000 A 
ATOM     24  C   UNL     1       4.717   6.696  17.323  0.00  0.00    +0.000 A 
ATOM     25  C   UNL     1       3.599   7.524  17.437  0.00  0.00    +0.000 A 
ATOM     26  C   UNL     1       2.643   7.333  18.444  0.00  0.00    +0.000 A 
ATOM     27  C   UNL     1       2.842   6.299  19.381  0.00  0.00    +0.000 A 
ATOM     28  C   UNL     1       1.894   5.966  20.502  0.00  0.00    +0.000 C 
ATOM     29  C   UNL     1       3.975   5.463  19.246  0.00  0.00    +0.000 A 
ENDBRANCH  18  26
ENDBRANCH  17  19
ENDBRANCH   1  17
TORSDOF 3
ENDMDL
MODEL 6
REMARK VINA RESULT:      -7.6      0.991      1.183
REMARK  Name = 
REMARK  5 active torsions:
REMARK  status: ('A' for Active; 'I' for Inactive)
REMARK    1  A    between atoms: C_1  and  C_2
REMARK    2  A    between atoms: C_5  and  N_6
REMARK    3  A    between atoms: C_7  and  C_9
REMARK    4  A    between atoms: C_9  and  N_10
REMARK    5  A    between atoms: C_26  and  C_27
REMARK                            x       y       z     vdW  Elec       q    Type
REMARK                         _______ _______ _______ _____ _____    ______ ____
ROOT
ATOM      1  N   UNL     1       3.065   5.811  17.770  0.00  0.00    +0.000 N 
ATOM      2  C   UNL     1       2.131   4.798  18.017  0.00  0.00    +0.000 C 
ATOM      3  O   UNL     1       1.067   4.719  17.397  0.00  0.00    +0.000 OA
ATOM      4  C   UNL     1       2.260   4.016  19.258  0.00  0.00    +0.000 A 
ATOM      5  C   UNL     1       1.214   4.125  20.188  0.00  0.00    +0.000 A 
ATOM      6  C   UNL     1       1.284   3.449  21.403  0.00  0.00    +0.000 A 
ATOM      7  C   UNL     1       2.398   2.664  21.689  0.00  0.00    +0.000 A 
ATOM      8  C   UNL     1       3.421   2.528  20.745  0.00  0.00    +0.000 A 
ATOM      9  C   UNL     1       3.349   3.193  19.515  0.00  0.00    +0.000 A 
ATOM     10  S   UNL     1       4.566   2.895  18.274  0.00  0.00    +0.000 S 
ATOM     11  C   UNL     1       5.245   4.524  18.095  0.00  0.00    +0.000 A 
ATOM     12  N   UNL     1       6.611   4.473  18.108  0.00  0.00    +0.000 NA
ATOM     13  C   UNL     1       7.304   5.601  17.884  0.00  0.00    +0.000 A 
ATOM     14  C   UNL     1       6.697   6.814  17.673  0.00  0.00    +0.000 A 
ATOM     15  C   UNL     1       5.303   6.863  17.690  0.00  0.00    +0.000 A 
ATOM     16  C   UNL     1       4.511   5.711  17.887  0.00  0.00    +0.000 A 
ENDROOT
BRANCH   1  17
ATOM     17  C   UNL     1       2.467   7.007  17.171  0.00  0.00    +0.000 C 
BRANCH  17  19
ATOM     18  N   UNL     1       1.768   9.291  17.652  0.00  0.00    +0.000 N 
ATOM     19  C   UNL     1       2.194   8.093  18.204  0.00  0.00    +0.000 C 
ATOM     20  O   UNL     1       2.355   7.852  19.399  0.00  0.00    +0.000 OA
ATOM     21  H   UNL     1       1.620   9.305  16.648  0.00  0.00    +0.000 HD
BRANCH  18  26
ATOM     22  C   UNL     1       0.695  14.103  20.599  0.00  0.00    +0.000 C 
ATOM     23  C   UNL     1       0.959  12.855  19.813  0.00  0.00    +0.000 A 
ATOM     24  C   UNL     1       2.131  12.718  19.076  0.00  0.00    +0.000 A 
ATOM     25  C   UNL     1       2.384  11.543  18.368  0.00  0.00    +0.000 A 
ATOM     26  C   UNL     1       1.480  10.471  18.375  0.00  0.00    +0.000 A 
ATOM     27  C   UNL     1       0.273  10.608  19.090  0.00  0.00    +0.000 A 
ATOM     28  C   UNL     1      -0.781   9.538  19.202  0.00  0.00    +0.000 C 
ATOM     29  C   UNL     1       0.036  11.802  19.810  0.00  0.00    +0.000 A 
ENDBRANCH  18  26
ENDBRANCH  17  19
ENDBRANCH   1  17
TORSDOF 3
ENDMDL
MODEL 7
REMARK VINA RESULT:      -7.6      1.986      3.999
REMARK  Name = 
REMARK  5 active torsions:
REMARK  status: ('A' for Active; 'I' for Inactive)
REMARK    1  A    between atoms: C_1  and  C_2
REMARK    2  A    between atoms: C_5  and  N_6
REMARK    3  A    between atoms: C_7  and  C_9
REMARK    4  A    between atoms: C_9  and  N_10
REMARK    5  A    between atoms: C_26  and  C_27
REMARK                            x       y       z     vdW  Elec       q    Type
REMARK                         _______ _______ _______ _____ _____    ______ ____
ROOT
ATOM      1  N   UNL     1       2.918   6.128  18.023  0.00  0.00    +0.000 N 
ATOM      2  C   UNL     1       4.050   6.740  17.472  0.00  0.00    +0.000 C 
ATOM      3  O   UNL     1       4.116   7.959  17.289  0.00  0.00    +0.000 OA
ATOM      4  C   UNL     1       5.039   5.891  16.787  0.00  0.00    +0.000 A 
ATOM      5  C   UNL     1       5.220   6.110  15.412  0.00  0.00    +0.000 A 
ATOM      6  C   UNL     1       6.107   5.318  14.688  0.00  0.00    +0.000 A 
ATOM      7  C   UNL     1       6.814   4.308  15.337  0.00  0.00    +0.000 A 
ATOM      8  C   UNL     1       6.659   4.118  16.714  0.00  0.00    +0.000 A 
ATOM      9  C   UNL     1       5.781   4.921  17.450  0.00  0.00    +0.000 A 
ATOM     10  S   UNL     1       5.706   4.776  19.206  0.00  0.00    +0.000 S 
ATOM     11  C   UNL     1       4.013   4.291  19.415  0.00  0.00    +0.000 A 
ATOM     12  N   UNL     1       3.925   3.227  20.270  0.00  0.00    +0.000 NA
ATOM     13  C   UNL     1       2.710   2.783  20.629  0.00  0.00    +0.000 A 
ATOM     14  C   UNL     1       1.548   3.333  20.148  0.00  0.00    +0.000 A 
ATOM     15  C   UNL     1       1.647   4.400  19.254  0.00  0.00    +0.000 A 
ATOM     16  C   UNL     1       2.890   4.940  18.859  0.00  0.00    +0.000 A 
ENDROOT
BRANCH   1  17
ATOM     17  C   UNL     1       1.696   6.917  17.843  0.00  0.00    +0.000 C 
BRANCH  17  19
ATOM     18  N   UNL     1       1.410   9.336  17.896  0.00  0.00    +0.000 N 
ATOM     19  C   UNL     1       1.725   8.213  18.644  0.00  0.00    +0.000 C 
ATOM     20  O   UNL     1       2.005   8.184  19.841  0.00  0.00    +0.000 OA
ATOM     21  H   UNL     1       1.134   9.181  16.931  0.00  0.00    +0.000 HD
BRANCH  18  26
ATOM     22  C   UNL     1       1.456  14.739  19.848  0.00  0.00    +0.000 C 
ATOM     23  C   UNL     1       1.428  13.335  19.322  0.00  0.00    +0.000 A 
ATOM     24  C   UNL     1       2.466  12.856  18.531  0.00  0.00    +0.000 A 
ATOM     25  C   UNL     1       2.447  11.541  18.066  0.00  0.00    +0.000 A 
ATOM     26  C   UNL     1       1.397  10.666  18.377  0.00  0.00    +0.000 A 
ATOM     27  C   UNL     1       0.321  11.147  19.150  0.00  0.00    +0.000 A 
ATOM     28  C   UNL     1      -0.863  10.320  19.576  0.00  0.00    +0.000 C 
ATOM     29  C   UNL     1       0.360  12.480  19.621  0.00  0.00    +0.000 A 
ENDBRANCH  18  26
ENDBRANCH  17  19
ENDBRANCH   1  17
TORSDOF 3
ENDMDL
MODEL 8
REMARK VINA RESULT:      -7.5      3.464      7.627
REMARK  Name = 
REMARK  5 active torsions:
REMARK  status: ('A' for Active; 'I' for Inactive)
REMARK    1  A    between atoms: C_1  and  C_2
REMARK    2  A    between atoms: C_5  and  N_6
REMARK    3  A    between atoms: C_7  and  C_9
REMARK    4  A    between atoms: C_9  and  N_10
REMARK    5  A    between atoms: C_26  and  C_27
REMARK                            x       y       z     vdW  Elec       q    Type
REMARK                         _______ _______ _______ _____ _____    ______ ____
ROOT
ATOM      1  N   UNL     1       4.310   6.463  17.995  0.00  0.00    +0.000 N 
ATOM      2  C   UNL     1       4.546   5.190  18.525  0.00  0.00    +0.000 C 
ATOM      3  O   UNL     1       5.686   4.745  18.686  0.00  0.00    +0.000 OA
ATOM      4  C   UNL     1       3.425   4.236  18.577  0.00  0.00    +0.000 A 
ATOM      5  C   UNL     1       3.545   3.074  17.800  0.00  0.00    +0.000 A 
ATOM      6  C   UNL     1       2.508   2.146  17.765  0.00  0.00    +0.000 A 
ATOM      7  C   UNL     1       1.352   2.378  18.506  0.00  0.00    +0.000 A 
ATOM      8  C   UNL     1       1.252   3.519  19.309  0.00  0.00    +0.000 A 
ATOM      9  C   UNL     1       2.298   4.448  19.361  0.00  0.00    +0.000 A 
ATOM     10  S   UNL     1       2.226   5.802  20.489  0.00  0.00    +0.000 S 
ATOM     11  C   UNL     1       2.269   7.165  19.356  0.00  0.00    +0.000 A 
ATOM     12  N   UNL     1       1.301   8.078  19.674  0.00  0.00    +0.000 NA
ATOM     13  C   UNL     1       1.245   9.229  18.985  0.00  0.00    +0.000 A 
ATOM     14  C   UNL     1       2.101   9.517  17.951  0.00  0.00    +0.000 A 
ATOM     15  C   UNL     1       3.067   8.568  17.615  0.00  0.00    +0.000 A 
ATOM     16  C   UNL     1       3.205   7.352  18.317  0.00  0.00    +0.000 A 
ENDROOT
BRANCH   1  17
ATOM     17  C   UNL     1       5.420   6.956  17.174  0.00  0.00    +0.000 C 
BRANCH  17  19
ATOM     18  N   UNL     1       6.028   5.214  15.582  0.00  0.00    +0.000 N 
ATOM     19  C   UNL     1       5.364   6.419  15.749  0.00  0.00    +0.000 C 
ATOM     20  O   UNL     1       4.762   7.052  14.883  0.00  0.00    +0.000 OA
ATOM     21  H   UNL     1       6.417   4.787  16.416  0.00  0.00    +0.000 HD
BRANCH  18  26
ATOM     22  C   UNL     1       6.528   2.294  10.661  0.00  0.00    +0.000 C 
ATOM     23  C   UNL     1       6.390   3.075  11.932  0.00  0.00    +0.000 A 
ATOM     24  C   UNL     1       5.308   2.862  12.780  0.00  0.00    +0.000 A 
ATOM     25  C   UNL     1       5.199   3.573  13.975  0.00  0.00    +0.000 A 
ATOM     26  C   UNL     1       6.164   4.514  14.361  0.00  0.00    +0.000 A 
ATOM     27  C   UNL     1       7.248   4.766  13.497  0.00  0.00    +0.000 A 
ATOM     28  C   UNL     1       8.366   5.733  13.786  0.00  0.00    +0.000 C 
ATOM     29  C   UNL     1       7.349   4.030  12.293  0.00  0.00    +0.000 A 
ENDBRANCH  18  26
ENDBRANCH  17  19
ENDBRANCH   1  17
TORSDOF 3
ENDMDL
MODEL 9
REMARK VINA RESULT:      -7.5      2.076      4.321
REMARK  Name = 
REMARK  5 active torsions:
REMARK  status: ('A' for Active; 'I' for Inactive)
REMARK    1  A    between atoms: C_1  and  C_2
REMARK    2  A    between atoms: C_5  and  N_6
REMARK    3  A    between atoms: C_7  and  C_9
REMARK    4  A    between atoms: C_9  and  N_10
REMARK    5  A    between atoms: C_26  and  C_27
REMARK                            x       y       z     vdW  Elec       q    Type
REMARK                         _______ _______ _______ _____ _____    ______ ____
ROOT
ATOM      1  N   UNL     1       3.380   5.110  19.416  0.00  0.00    +0.000 N 
ATOM      2  C   UNL     1       4.693   5.301  18.973  0.00  0.00    +0.000 C 
ATOM      3  O   UNL     1       5.546   5.864  19.665  0.00  0.00    +0.000 OA
ATOM      4  C   UNL     1       4.977   5.136  17.537  0.00  0.00    +0.000 A 
ATOM      5  C   UNL     1       5.411   6.275  16.841  0.00  0.00    +0.000 A 
ATOM      6  C   UNL     1       5.658   6.208  15.473  0.00  0.00    +0.000 A 
ATOM      7  C   UNL     1       5.473   5.003  14.800  0.00  0.00    +0.000 A 
ATOM      8  C   UNL     1       5.077   3.861  15.503  0.00  0.00    +0.000 A 
ATOM      9  C   UNL     1       4.842   3.919  16.882  0.00  0.00    +0.000 A 
ATOM     10  S   UNL     1       4.493   2.444  17.785  0.00  0.00    +0.000 S 
ATOM     11  C   UNL     1       2.873   2.824  18.401  0.00  0.00    +0.000 A 
ATOM     12  N   UNL     1       2.027   1.770  18.194  0.00  0.00    +0.000 NA
ATOM     13  C   UNL     1       0.780   1.834  18.686  0.00  0.00    +0.000 A 
ATOM     14  C   UNL     1       0.305   2.930  19.363  0.00  0.00    +0.000 A 
ATOM     15  C   UNL     1       1.167   4.012  19.546  0.00  0.00    +0.000 A 
ATOM     16  C   UNL     1       2.501   4.000  19.085  0.00  0.00    +0.000 A 
ENDROOT
BRANCH   1  17
ATOM     17  C   UNL     1       2.979   6.068  20.450  0.00  0.00    +0.000 C 
BRANCH  17  19
ATOM     18  N   UNL     1       1.617   8.054  20.821  0.00  0.00    +0.000 N 
ATOM     19  C   UNL     1       2.250   7.273  19.867  0.00  0.00    +0.000 C 
ATOM     20  O   UNL     1       2.272   7.470  18.653  0.00  0.00    +0.000 OA
ATOM     21  H   UNL     1       1.754   7.792  21.792  0.00  0.00    +0.000 HD
BRANCH  18  26
ATOM     22  C   UNL     1      -1.473  12.756  19.663  0.00  0.00    +0.000 C 
ATOM     23  C   UNL     1      -0.687  11.516  19.966  0.00  0.00    +0.000 A 
ATOM     24  C   UNL     1       0.022  10.866  18.962  0.00  0.00    +0.000 A 
ATOM     25  C   UNL     1       0.773   9.727  19.255  0.00  0.00    +0.000 A 
ATOM     26  C   UNL     1       0.842   9.206  20.555  0.00  0.00    +0.000 A 
ATOM     27  C   UNL     1       0.102   9.835  21.577  0.00  0.00    +0.000 A 
ATOM     28  C   UNL     1       0.093   9.399  23.018  0.00  0.00    +0.000 C 
ATOM     29  C   UNL     1      -0.647  10.993  21.265  0.00  0.00    +0.000 A 
ENDBRANCH  18  26
ENDBRANCH  17  19
ENDBRANCH   1  17
TORSDOF 3
ENDMDL
