MODEL 1
REMARK VINA RESULT:      -7.5      0.000      0.000
REMARK  Name = 
REMARK  9 active torsions:
REMARK  status: ('A' for Active; 'I' for Inactive)
REMARK    1  A    between atoms: C_1  and  C_2
REMARK    2  A    between atoms: C_2  and  C_3
REMARK    3  A    between atoms: C_2  and  C_4
REMARK    4  A    between atoms: C_2  and  O_5
REMARK    5  A    between atoms: O_5  and  C_6
REMARK    6  A    between atoms: N_8  and  C_9
REMARK    7  A    between atoms: C_9  and  C_10
REMARK    8  A    between atoms: C_9  and  C_11
REMARK    9  A    between atoms: C_9  and  C_14
REMARK                            x       y       z     vdW  Elec       q    Type
REMARK                         _______ _______ _______ _____ _____    ______ ____
ROOT
ATOM      1  C   UNL     1       5.905   5.209  15.981  0.00  0.00    +0.000 C 
ATOM      2  C   UNL     1       5.204   6.592  15.890  0.00  0.00    +0.000 C 
ENDROOT
BRANCH   1   3
ATOM      3  C   UNL     1       6.349   4.768  14.565  0.00  0.00    +0.000 A 
ATOM      4  C   UNL     1       7.513   5.279  13.961  0.00  0.00    +0.000 A 
ATOM      5  C   UNL     1       7.836   4.968  12.634  0.00  0.00    +0.000 A 
ATOM      6  C   UNL     1       7.017   4.122  11.890  0.00  0.00    +0.000 A 
ATOM      7  C   UNL     1       5.895   3.560  12.488  0.00  0.00    +0.000 A 
ATOM      8 CL   UNL     1       4.877   2.510  11.580  0.00  0.00    +0.000 Cl
ATOM      9  C   UNL     1       5.574   3.859  13.813  0.00  0.00    +0.000 A 
ENDBRANCH   1   3
BRANCH   1  10
ATOM     10  C   UNL     1       7.152   5.456  16.912  0.00  0.00    +0.000 C 
ATOM     11  N   UNL     1       7.800   4.356  17.410  0.00  0.00    +0.000 N 
ATOM     12  O   UNL     1       7.605   6.568  17.166  0.00  0.00    +0.000 OA
ATOM     13  H   UNL     1       7.285   3.496  17.540  0.00  0.00    +0.000 HD
ATOM     14  H   UNL     1       8.513   4.563  18.101  0.00  0.00    +0.000 HD
ENDBRANCH   1  10
BRANCH   1  17
ATOM     15  C   UNL     1       4.575   4.165  17.824  0.00  0.00    +0.000 C 
ATOM     16  O   UNL     1       4.873   5.022  18.639  0.00  0.00    +0.000 OA
ATOM     17  N   UNL     1       5.021   4.161  16.537  0.00  0.00    +0.000 N 
ATOM     18  H   UNL     1       4.823   3.337  15.983  0.00  0.00    +0.000 HD
BRANCH  15  19
ATOM     19  O   UNL     1       3.793   3.087  18.088  0.00  0.00    +0.000 OA
BRANCH  19  21
ATOM     20  C   UNL     1       1.743   4.380  17.707  0.00  0.00    +0.000 C 
ATOM     21  C   UNL     1       2.443   3.334  18.585  0.00  0.00    +0.000 C 
ATOM     22  C   UNL     1       2.421   3.724  20.075  0.00  0.00    +0.000 C 
ATOM     23  C   UNL     1       1.682   2.006  18.448  0.00  0.00    +0.000 C 
ENDBRANCH  19  21
ENDBRANCH  15  19
ENDBRANCH   1  17
TORSDOF 5
ENDMDL
MODEL 2
REMARK VINA RESULT:      -7.4      0.712      1.199
REMARK  Name = 
REMARK  9 active torsions:
REMARK  status: ('A' for Active; 'I' for Inactive)
REMARK    1  A    between atoms: C_1  and  C_2
REMARK    2  A    between atoms: C_2  and  C_3
REMARK    3  A    between atoms: C_2  and  C_4
REMARK    4  A    between atoms: C_2  and  O_5
REMARK    5  A    between atoms: O_5  and  C_6
REMARK    6  A    between atoms: N_8  and  C_9
REMARK    7  A    between atoms: C_9  and  C_10
REMARK    8  A    between atoms: C_9  and  C_11
REMARK    9  A    between atoms: C_9  and  C_14
REMARK                            x       y       z     vdW  Elec       q    Type
REMARK                         _______ _______ _______ _____ _____    ______ ____
ROOT
ATOM      1  C   UNL     1       5.969   5.161  16.103  0.00  0.00    +0.000 C 
ATOM      2  C   UNL     1       5.356   6.587  16.086  0.00  0.00    +0.000 C 
ENDROOT
BRANCH   1   3
ATOM      3  C   UNL     1       6.400   4.775  14.666  0.00  0.00    +0.000 A 
ATOM      4  C   UNL     1       7.548   5.322  14.065  0.00  0.00    +0.000 A 
ATOM      5  C   UNL     1       7.857   5.061  12.725  0.00  0.00    +0.000 A 
ATOM      6  C   UNL     1       7.040   4.231  11.962  0.00  0.00    +0.000 A 
ATOM      7  C   UNL     1       5.933   3.633  12.555  0.00  0.00    +0.000 A 
ATOM      8 CL   UNL     1       4.916   2.602  11.624  0.00  0.00    +0.000 Cl
ATOM      9  C   UNL     1       5.626   3.882  13.894  0.00  0.00    +0.000 A 
ENDBRANCH   1   3
BRANCH   1  10
ATOM     10  C   UNL     1       7.219   5.277  17.054  0.00  0.00    +0.000 C 
ATOM     11  N   UNL     1       7.380   6.447  17.750  0.00  0.00    +0.000 N 
ATOM     12  O   UNL     1       8.017   4.365  17.249  0.00  0.00    +0.000 OA
ATOM     13  H   UNL     1       7.003   7.304  17.370  0.00  0.00    +0.000 HD
ATOM     14  H   UNL     1       8.260   6.524  18.249  0.00  0.00    +0.000 HD
ENDBRANCH   1  10
BRANCH   1  17
ATOM     15  C   UNL     1       4.558   4.099  17.873  0.00  0.00    +0.000 C 
ATOM     16  O   UNL     1       4.898   4.888  18.738  0.00  0.00    +0.000 OA
ATOM     17  N   UNL     1       5.017   4.139  16.591  0.00  0.00    +0.000 N 
ATOM     18  H   UNL     1       4.775   3.362  15.990  0.00  0.00    +0.000 HD
BRANCH  15  19
ATOM     19  O   UNL     1       3.709   3.058  18.069  0.00  0.00    +0.000 OA
BRANCH  19  21
ATOM     20  C   UNL     1       2.532   3.878  20.060  0.00  0.00    +0.000 C 
ATOM     21  C   UNL     1       2.391   3.352  18.625  0.00  0.00    +0.000 C 
ATOM     22  C   UNL     1       1.430   2.152  18.543  0.00  0.00    +0.000 C 
ATOM     23  C   UNL     1       1.797   4.474  17.760  0.00  0.00    +0.000 C 
ENDBRANCH  19  21
ENDBRANCH  15  19
ENDBRANCH   1  17
TORSDOF 5
ENDMDL
MODEL 3
REMARK VINA RESULT:      -7.4      0.737      1.215
REMARK  Name = 
REMARK  9 active torsions:
REMARK  status: ('A' for Active; 'I' for Inactive)
REMARK    1  A    between atoms: C_1  and  C_2
REMARK    2  A    between atoms: C_2  and  C_3
REMARK    3  A    between atoms: C_2  and  C_4
REMARK    4  A    between atoms: C_2  and  O_5
REMARK    5  A    between atoms: O_5  and  C_6
REMARK    6  A    between atoms: N_8  and  C_9
REMARK    7  A    between atoms: C_9  and  C_10
REMARK    8  A    between atoms: C_9  and  C_11
REMARK    9  A    between atoms: C_9  and  C_14
REMARK                            x       y       z     vdW  Elec       q    Type
REMARK                         _______ _______ _______ _____ _____    ______ ____
ROOT
ATOM      1  C   UNL     1       5.878   5.173  15.901  0.00  0.00    +0.000 C 
ATOM      2  C   UNL     1       5.189   6.562  15.811  0.00  0.00    +0.000 C 
ENDROOT
BRANCH   1   3
ATOM      3  C   UNL     1       6.246   4.694  14.475  0.00  0.00    +0.000 A 
ATOM      4  C   UNL     1       7.467   5.040  13.869  0.00  0.00    +0.000 A 
ATOM      5  C   UNL     1       7.734   4.705  12.536  0.00  0.00    +0.000 A 
ATOM      6  C   UNL     1       6.797   3.997  11.787  0.00  0.00    +0.000 A 
ATOM      7  C   UNL     1       5.609   3.595  12.386  0.00  0.00    +0.000 A 
ATOM      8 CL   UNL     1       4.444   2.716  11.472  0.00  0.00    +0.000 Cl
ATOM      9  C   UNL     1       5.342   3.918  13.718  0.00  0.00    +0.000 A 
ENDBRANCH   1   3
BRANCH   1  10
ATOM     10  C   UNL     1       7.173   5.428  16.762  0.00  0.00    +0.000 C 
ATOM     11  N   UNL     1       7.480   6.726  17.079  0.00  0.00    +0.000 N 
ATOM     12  O   UNL     1       7.883   4.532  17.209  0.00  0.00    +0.000 OA
ATOM     13  H   UNL     1       7.174   7.469  16.465  0.00  0.00    +0.000 HD
ATOM     14  H   UNL     1       8.383   6.850  17.522  0.00  0.00    +0.000 HD
ENDBRANCH   1  10
BRANCH   1  17
ATOM     15  C   UNL     1       4.599   4.211  17.823  0.00  0.00    +0.000 C 
ATOM     16  O   UNL     1       4.915   5.104  18.590  0.00  0.00    +0.000 OA
ATOM     17  N   UNL     1       5.012   4.150  16.526  0.00  0.00    +0.000 N 
ATOM     18  H   UNL     1       4.802   3.302  16.015  0.00  0.00    +0.000 HD
BRANCH  15  19
ATOM     19  O   UNL     1       3.827   3.145  18.154  0.00  0.00    +0.000 OA
BRANCH  19  21
ATOM     20  C   UNL     1       1.626   2.114  18.492  0.00  0.00    +0.000 C 
ATOM     21  C   UNL     1       2.452   3.406  18.569  0.00  0.00    +0.000 C 
ATOM     22  C   UNL     1       1.800   4.555  17.776  0.00  0.00    +0.000 C 
ATOM     23  C   UNL     1       2.519   3.845  20.039  0.00  0.00    +0.000 C 
ENDBRANCH  19  21
ENDBRANCH  15  19
ENDBRANCH   1  17
TORSDOF 5
ENDMDL
MODEL 4
REMARK VINA RESULT:      -7.1      0.982      1.064
REMARK  Name = 
REMARK  9 active torsions:
REMARK  status: ('A' for Active; 'I' for Inactive)
REMARK    1  A    between atoms: C_1  and  C_2
REMARK    2  A    between atoms: C_2  and  C_3
REMARK    3  A    between atoms: C_2  and  C_4
REMARK    4  A    between atoms: C_2  and  O_5
REMARK    5  A    between atoms: O_5  and  C_6
REMARK    6  A    between atoms: N_8  and  C_9
REMARK    7  A    between atoms: C_9  and  C_10
REMARK    8  A    between atoms: C_9  and  C_11
REMARK    9  A    between atoms: C_9  and  C_14
REMARK                            x       y       z     vdW  Elec       q    Type
REMARK                         _______ _______ _______ _____ _____    ______ ____
ROOT
ATOM      1  C   UNL     1       5.889   5.232  15.890  0.00  0.00    +0.000 C 
ATOM      2  C   UNL     1       5.420   6.711  15.821  0.00  0.00    +0.000 C 
ENDROOT
BRANCH   1   3
ATOM      3  C   UNL     1       6.394   4.793  14.494  0.00  0.00    +0.000 A 
ATOM      4  C   UNL     1       7.498   5.410  13.877  0.00  0.00    +0.000 A 
ATOM      5  C   UNL     1       7.867   5.089  12.565  0.00  0.00    +0.000 A 
ATOM      6  C   UNL     1       7.158   4.128  11.849  0.00  0.00    +0.000 A 
ATOM      7  C   UNL     1       6.102   3.463  12.462  0.00  0.00    +0.000 A 
ATOM      8 CL   UNL     1       5.220   2.269  11.590  0.00  0.00    +0.000 Cl
ATOM      9  C   UNL     1       5.736   3.773  13.773  0.00  0.00    +0.000 A 
ENDBRANCH   1   3
BRANCH   1  10
ATOM     10  C   UNL     1       7.064   5.236  16.940  0.00  0.00    +0.000 C 
ATOM     11  N   UNL     1       7.104   6.267  17.843  0.00  0.00    +0.000 N 
ATOM     12  O   UNL     1       7.903   4.345  17.029  0.00  0.00    +0.000 OA
ATOM     13  H   UNL     1       6.699   7.158  17.592  0.00  0.00    +0.000 HD
ATOM     14  H   UNL     1       7.943   6.296  18.412  0.00  0.00    +0.000 HD
ENDBRANCH   1  10
BRANCH   1  17
ATOM     15  C   UNL     1       3.914   4.603  17.289  0.00  0.00    +0.000 C 
ATOM     16  O   UNL     1       3.934   5.638  17.933  0.00  0.00    +0.000 OA
ATOM     17  N   UNL     1       4.806   4.312  16.301  0.00  0.00    +0.000 N 
ATOM     18  H   UNL     1       4.783   3.375  15.921  0.00  0.00    +0.000 HD
BRANCH  15  19
ATOM     19  O   UNL     1       3.032   3.589  17.483  0.00  0.00    +0.000 OA
BRANCH  19  21
ATOM     20  C   UNL     1       1.925   4.005  19.633  0.00  0.00    +0.000 C 
ATOM     21  C   UNL     1       2.866   3.085  18.844  0.00  0.00    +0.000 C 
ATOM     22  C   UNL     1       4.210   2.877  19.568  0.00  0.00    +0.000 C 
ATOM     23  C   UNL     1       2.197   1.709  18.717  0.00  0.00    +0.000 C 
ENDBRANCH  19  21
ENDBRANCH  15  19
ENDBRANCH   1  17
TORSDOF 5
ENDMDL
MODEL 5
REMARK VINA RESULT:      -7.0      1.735      2.238
REMARK  Name = 
REMARK  9 active torsions:
REMARK  status: ('A' for Active; 'I' for Inactive)
REMARK    1  A    between atoms: C_1  and  C_2
REMARK    2  A    between atoms: C_2  and  C_3
REMARK    3  A    between atoms: C_2  and  C_4
REMARK    4  A    between atoms: C_2  and  O_5
REMARK    5  A    between atoms: O_5  and  C_6
REMARK    6  A    between atoms: N_8  and  C_9
REMARK    7  A    between atoms: C_9  and  C_10
REMARK    8  A    between atoms: C_9  and  C_11
REMARK    9  A    between atoms: C_9  and  C_14
REMARK                            x       y       z     vdW  Elec       q    Type
REMARK                         _______ _______ _______ _____ _____    ______ ____
ROOT
ATOM      1  C   UNL     1       6.094   4.993  17.171  0.00  0.00    +0.000 C 
ATOM      2  C   UNL     1       5.537   6.421  17.425  0.00  0.00    +0.000 C 
ENDROOT
BRANCH   1   3
ATOM      3  C   UNL     1       6.223   4.762  15.645  0.00  0.00    +0.000 A 
ATOM      4  C   UNL     1       5.372   3.881  14.954  0.00  0.00    +0.000 A 
ATOM      5  C   UNL     1       5.578   3.587  13.601  0.00  0.00    +0.000 A 
ATOM      6  C   UNL     1       6.623   4.185  12.902  0.00  0.00    +0.000 A 
ATOM      7  C   UNL     1       7.439   5.105  13.551  0.00  0.00    +0.000 A 
ATOM      8 CL   UNL     1       8.733   5.854  12.697  0.00  0.00    +0.000 Cl
ATOM      9  C   UNL     1       7.231   5.409  14.898  0.00  0.00    +0.000 A 
ENDBRANCH   1   3
BRANCH   1  10
ATOM     10  C   UNL     1       7.509   4.990  17.863  0.00  0.00    +0.000 C 
ATOM     11  N   UNL     1       7.815   6.044  18.685  0.00  0.00    +0.000 N 
ATOM     12  O   UNL     1       8.321   4.077  17.754  0.00  0.00    +0.000 OA
ATOM     13  H   UNL     1       7.378   6.940  18.523  0.00  0.00    +0.000 HD
ATOM     14  H   UNL     1       8.777   6.063  19.006  0.00  0.00    +0.000 HD
ENDBRANCH   1  10
BRANCH   1  17
ATOM     15  C   UNL     1       4.975   3.798  19.060  0.00  0.00    +0.000 C 
ATOM     16  O   UNL     1       5.458   4.520  19.915  0.00  0.00    +0.000 OA
ATOM     17  N   UNL     1       5.222   3.936  17.728  0.00  0.00    +0.000 N 
ATOM     18  H   UNL     1       4.879   3.207  17.116  0.00  0.00    +0.000 HD
BRANCH  15  19
ATOM     19  O   UNL     1       4.157   2.743  19.311  0.00  0.00    +0.000 OA
BRANCH  19  21
ATOM     20  C   UNL     1       1.851   1.986  18.952  0.00  0.00    +0.000 C 
ATOM     21  C   UNL     1       2.759   3.027  19.620  0.00  0.00    +0.000 C 
ATOM     22  C   UNL     1       2.351   4.467  19.254  0.00  0.00    +0.000 C 
ATOM     23  C   UNL     1       2.614   2.884  21.143  0.00  0.00    +0.000 C 
ENDBRANCH  19  21
ENDBRANCH  15  19
ENDBRANCH   1  17
TORSDOF 5
ENDMDL
MODEL 6
REMARK VINA RESULT:      -7.0      3.840      7.094
REMARK  Name = 
REMARK  9 active torsions:
REMARK  status: ('A' for Active; 'I' for Inactive)
REMARK    1  A    between atoms: C_1  and  C_2
REMARK    2  A    between atoms: C_2  and  C_3
REMARK    3  A    between atoms: C_2  and  C_4
REMARK    4  A    between atoms: C_2  and  O_5
REMARK    5  A    between atoms: O_5  and  C_6
REMARK    6  A    between atoms: N_8  and  C_9
REMARK    7  A    between atoms: C_9  and  C_10
REMARK    8  A    between atoms: C_9  and  C_11
REMARK    9  A    between atoms: C_9  and  C_14
REMARK                            x       y       z     vdW  Elec       q    Type
REMARK                         _______ _______ _______ _____ _____    ______ ____
ROOT
ATOM      1  C   UNL     1       2.489   5.173  19.564  0.00  0.00    +0.000 C 
ATOM      2  C   UNL     1       1.923   4.702  18.197  0.00  0.00    +0.000 C 
ENDROOT
BRANCH   1   3
ATOM      3  C   UNL     1       2.038   6.631  19.827  0.00  0.00    +0.000 A 
ATOM      4  C   UNL     1       1.386   7.002  21.017  0.00  0.00    +0.000 A 
ATOM      5  C   UNL     1       0.874   8.294  21.189  0.00  0.00    +0.000 A 
ATOM      6  C   UNL     1       1.023   9.250  20.187  0.00  0.00    +0.000 A 
ATOM      7  C   UNL     1       1.717   8.920  19.028  0.00  0.00    +0.000 A 
ATOM      8 CL   UNL     1       1.911  10.093  17.783  0.00  0.00    +0.000 Cl
ATOM      9  C   UNL     1       2.238   7.636  18.856  0.00  0.00    +0.000 A 
ENDBRANCH   1   3
BRANCH   1  10
ATOM     10  C   UNL     1       1.853   4.188  20.617  0.00  0.00    +0.000 C 
ATOM     11  N   UNL     1       0.666   3.587  20.288  0.00  0.00    +0.000 N 
ATOM     12  O   UNL     1       2.387   3.887  21.681  0.00  0.00    +0.000 OA
ATOM     13  H   UNL     1       0.038   4.053  19.647  0.00  0.00    +0.000 HD
ATOM     14  H   UNL     1       0.234   3.064  21.042  0.00  0.00    +0.000 HD
ENDBRANCH   1  10
BRANCH   1  17
ATOM     15  C   UNL     1       4.708   4.206  18.938  0.00  0.00    +0.000 C 
ATOM     16  O   UNL     1       4.225   3.326  18.246  0.00  0.00    +0.000 OA
ATOM     17  N   UNL     1       3.967   5.129  19.613  0.00  0.00    +0.000 N 
ATOM     18  H   UNL     1       4.457   5.731  20.261  0.00  0.00    +0.000 HD
BRANCH  15  19
ATOM     19  O   UNL     1       6.037   4.371  19.161  0.00  0.00    +0.000 OA
BRANCH  19  21
ATOM     20  C   UNL     1       5.832   6.317  17.681  0.00  0.00    +0.000 C 
ATOM     21  C   UNL     1       6.773   5.250  18.255  0.00  0.00    +0.000 C 
ATOM     22  C   UNL     1       7.512   4.476  17.148  0.00  0.00    +0.000 C 
ATOM     23  C   UNL     1       7.837   5.957  19.108  0.00  0.00    +0.000 C 
ENDBRANCH  19  21
ENDBRANCH  15  19
ENDBRANCH   1  17
TORSDOF 5
ENDMDL
MODEL 7
REMARK VINA RESULT:      -7.0      1.519      1.912
REMARK  Name = 
REMARK  9 active torsions:
REMARK  status: ('A' for Active; 'I' for Inactive)
REMARK    1  A    between atoms: C_1  and  C_2
REMARK    2  A    between atoms: C_2  and  C_3
REMARK    3  A    between atoms: C_2  and  C_4
REMARK    4  A    between atoms: C_2  and  O_5
REMARK    5  A    between atoms: O_5  and  C_6
REMARK    6  A    between atoms: N_8  and  C_9
REMARK    7  A    between atoms: C_9  and  C_10
REMARK    8  A    between atoms: C_9  and  C_11
REMARK    9  A    between atoms: C_9  and  C_14
REMARK                            x       y       z     vdW  Elec       q    Type
REMARK                         _______ _______ _______ _____ _____    ______ ____
ROOT
ATOM      1  C   UNL     1       5.709   5.345  17.117  0.00  0.00    +0.000 C 
ATOM      2  C   UNL     1       5.142   6.790  17.171  0.00  0.00    +0.000 C 
ENDROOT
BRANCH   1   3
ATOM      3  C   UNL     1       5.980   4.959  15.642  0.00  0.00    +0.000 A 
ATOM      4  C   UNL     1       5.214   3.983  14.979  0.00  0.00    +0.000 A 
ATOM      5  C   UNL     1       5.548   3.555  13.688  0.00  0.00    +0.000 A 
ATOM      6  C   UNL     1       6.639   4.109  13.023  0.00  0.00    +0.000 A 
ATOM      7  C   UNL     1       7.372   5.117  13.638  0.00  0.00    +0.000 A 
ATOM      8 CL   UNL     1       8.721   5.813  12.825  0.00  0.00    +0.000 Cl
ATOM      9  C   UNL     1       7.037   5.554  14.921  0.00  0.00    +0.000 A 
ENDBRANCH   1   3
BRANCH   1  10
ATOM     10  C   UNL     1       7.052   5.415  17.938  0.00  0.00    +0.000 C 
ATOM     11  N   UNL     1       7.773   4.257  18.075  0.00  0.00    +0.000 N 
ATOM     12  O   UNL     1       7.513   6.451  18.408  0.00  0.00    +0.000 OA
ATOM     13  H   UNL     1       7.292   3.369  18.044  0.00  0.00    +0.000 HD
ATOM     14  H   UNL     1       8.559   4.322  18.713  0.00  0.00    +0.000 HD
ENDBRANCH   1  10
BRANCH   1  17
ATOM     15  C   UNL     1       4.151   4.520  18.891  0.00  0.00    +0.000 C 
ATOM     16  O   UNL     1       4.306   5.498  19.601  0.00  0.00    +0.000 OA
ATOM     17  N   UNL     1       4.780   4.349  17.694  0.00  0.00    +0.000 N 
ATOM     18  H   UNL     1       4.685   3.446  17.248  0.00  0.00    +0.000 HD
BRANCH  15  19
ATOM     19  O   UNL     1       3.365   3.457  19.200  0.00  0.00    +0.000 OA
BRANCH  19  21
ATOM     20  C   UNL     1       1.609   4.415  17.780  0.00  0.00    +0.000 C 
ATOM     21  C   UNL     1       1.921   3.614  19.050  0.00  0.00    +0.000 C 
ATOM     22  C   UNL     1       1.259   4.229  20.298  0.00  0.00    +0.000 C 
ATOM     23  C   UNL     1       1.348   2.199  18.878  0.00  0.00    +0.000 C 
ENDBRANCH  19  21
ENDBRANCH  15  19
ENDBRANCH   1  17
TORSDOF 5
ENDMDL
MODEL 8
REMARK VINA RESULT:      -6.9      1.870      2.546
REMARK  Name = 
REMARK  9 active torsions:
REMARK  status: ('A' for Active; 'I' for Inactive)
REMARK    1  A    between atoms: C_1  and  C_2
REMARK    2  A    between atoms: C_2  and  C_3
REMARK    3  A    between atoms: C_2  and  C_4
REMARK    4  A    between atoms: C_2  and  O_5
REMARK    5  A    between atoms: O_5  and  C_6
REMARK    6  A    between atoms: N_8  and  C_9
REMARK    7  A    between atoms: C_9  and  C_10
REMARK    8  A    between atoms: C_9  and  C_11
REMARK    9  A    between atoms: C_9  and  C_14
REMARK                            x       y       z     vdW  Elec       q    Type
REMARK                         _______ _______ _______ _____ _____    ______ ____
ROOT
ATOM      1  C   UNL     1       6.641   5.864  17.638  0.00  0.00    +0.000 C 
ATOM      2  C   UNL     1       7.190   7.304  17.449  0.00  0.00    +0.000 C 
ENDROOT
BRANCH   1   3
ATOM      3  C   UNL     1       6.370   5.236  16.249  0.00  0.00    +0.000 A 
ATOM      4  C   UNL     1       5.364   4.272  16.054  0.00  0.00    +0.000 A 
ATOM      5  C   UNL     1       5.211   3.623  14.823  0.00  0.00    +0.000 A 
ATOM      6  C   UNL     1       6.045   3.939  13.753  0.00  0.00    +0.000 A 
ATOM      7  C   UNL     1       7.006   4.931  13.907  0.00  0.00    +0.000 A 
ATOM      8 CL   UNL     1       8.040   5.333  12.591  0.00  0.00    +0.000 Cl
ATOM      9  C   UNL     1       7.156   5.588  15.130  0.00  0.00    +0.000 A 
ENDBRANCH   1   3
BRANCH   1  10
ATOM     10  C   UNL     1       7.793   5.096  18.389  0.00  0.00    +0.000 C 
ATOM     11  N   UNL     1       8.103   5.503  19.661  0.00  0.00    +0.000 N 
ATOM     12  O   UNL     1       8.383   4.125  17.924  0.00  0.00    +0.000 OA
ATOM     13  H   UNL     1       7.932   6.462  19.928  0.00  0.00    +0.000 HD
ATOM     14  H   UNL     1       8.930   5.066  20.054  0.00  0.00    +0.000 HD
ENDBRANCH   1  10
BRANCH   1  17
ATOM     15  C   UNL     1       5.029   4.796  19.224  0.00  0.00    +0.000 C 
ATOM     16  O   UNL     1       5.708   3.795  19.373  0.00  0.00    +0.000 OA
ATOM     17  N   UNL     1       5.382   5.834  18.414  0.00  0.00    +0.000 N 
ATOM     18  H   UNL     1       4.689   6.554  18.259  0.00  0.00    +0.000 HD
BRANCH  15  19
ATOM     19  O   UNL     1       3.822   5.006  19.810  0.00  0.00    +0.000 OA
BRANCH  19  21
ATOM     20  C   UNL     1       2.911   3.008  18.715  0.00  0.00    +0.000 C 
ATOM     21  C   UNL     1       2.643   4.455  19.149  0.00  0.00    +0.000 C 
ATOM     22  C   UNL     1       2.157   5.329  17.976  0.00  0.00    +0.000 C 
ATOM     23  C   UNL     1       1.524   4.441  20.202  0.00  0.00    +0.000 C 
ENDBRANCH  19  21
ENDBRANCH  15  19
ENDBRANCH   1  17
TORSDOF 5
ENDMDL
MODEL 9
REMARK VINA RESULT:      -6.9      4.304      7.218
REMARK  Name = 
REMARK  9 active torsions:
REMARK  status: ('A' for Active; 'I' for Inactive)
REMARK    1  A    between atoms: C_1  and  C_2
REMARK    2  A    between atoms: C_2  and  C_3
REMARK    3  A    between atoms: C_2  and  C_4
REMARK    4  A    between atoms: C_2  and  O_5
REMARK    5  A    between atoms: O_5  and  C_6
REMARK    6  A    between atoms: N_8  and  C_9
REMARK    7  A    between atoms: C_9  and  C_10
REMARK    8  A    between atoms: C_9  and  C_11
REMARK    9  A    between atoms: C_9  and  C_14
REMARK                            x       y       z     vdW  Elec       q    Type
REMARK                         _______ _______ _______ _____ _____    ______ ____
ROOT
ATOM      1  C   UNL     1       2.536   5.306  19.403  0.00  0.00    +0.000 C 
ATOM      2  C   UNL     1       2.056   4.662  18.074  0.00  0.00    +0.000 C 
ENDROOT
BRANCH   1   3
ATOM      3  C   UNL     1       2.010   6.760  19.484  0.00  0.00    +0.000 A 
ATOM      4  C   UNL     1       2.049   7.625  18.375  0.00  0.00    +0.000 A 
ATOM      5  C   UNL     1       1.686   8.972  18.494  0.00  0.00    +0.000 A 
ATOM      6  C   UNL     1       1.253   9.479  19.717  0.00  0.00    +0.000 A 
ATOM      7  C   UNL     1       1.150   8.626  20.810  0.00  0.00    +0.000 A 
ATOM      8 CL   UNL     1       0.613   9.240  22.326  0.00  0.00    +0.000 Cl
ATOM      9  C   UNL     1       1.502   7.280  20.694  0.00  0.00    +0.000 A 
ENDBRANCH   1   3
BRANCH   1  10
ATOM     10  C   UNL     1       1.896   4.412  20.532  0.00  0.00    +0.000 C 
ATOM     11  N   UNL     1       0.708   3.788  20.249  0.00  0.00    +0.000 N 
ATOM     12  O   UNL     1       2.426   4.198  21.618  0.00  0.00    +0.000 OA
ATOM     13  H   UNL     1       0.083   4.200  19.570  0.00  0.00    +0.000 HD
ATOM     14  H   UNL     1       0.273   3.329  21.042  0.00  0.00    +0.000 HD
ENDBRANCH   1  10
BRANCH   1  17
ATOM     15  C   UNL     1       4.819   4.353  19.039  0.00  0.00    +0.000 C 
ATOM     16  O   UNL     1       4.404   3.349  18.486  0.00  0.00    +0.000 OA
ATOM     17  N   UNL     1       4.010   5.340  19.518  0.00  0.00    +0.000 N 
ATOM     18  H   UNL     1       4.446   6.063  20.075  0.00  0.00    +0.000 HD
BRANCH  15  19
ATOM     19  O   UNL     1       6.128   4.615  19.284  0.00  0.00    +0.000 OA
BRANCH  19  21
ATOM     20  C   UNL     1       5.937   6.334  17.543  0.00  0.00    +0.000 C 
ATOM     21  C   UNL     1       6.872   5.359  18.271  0.00  0.00    +0.000 C 
ATOM     22  C   UNL     1       7.621   4.438  17.289  0.00  0.00    +0.000 C 
ATOM     23  C   UNL     1       7.929   6.180  19.025  0.00  0.00    +0.000 C 
ENDBRANCH  19  21
ENDBRANCH  15  19
ENDBRANCH   1  17
TORSDOF 5
ENDMDL
