MODEL 1
REMARK VINA RESULT:      -8.4      0.000      0.000
REMARK  Name = 
REMARK  2 active torsions:
REMARK  status: ('A' for Active; 'I' for Inactive)
REMARK    1  A    between atoms: C_2  and  C_3
REMARK    2  A    between atoms: C_6  and  O_7
REMARK                            x       y       z     vdW  Elec       q    Type
REMARK                         _______ _______ _______ _____ _____    ______ ____
ROOT
ATOM      1  O   UNL     1       3.685   2.054  17.557  0.00  0.00    +0.000 OA
ATOM      2  C   UNL     1       4.024   3.203  17.837  0.00  0.00    +0.000 C 
ATOM      3  N   UNL     1       3.507   3.891  18.938  0.00  0.00    +0.000 N 
ATOM      4  C   UNL     1       2.763   3.092  19.921  0.00  0.00    +0.000 C 
ATOM      5  C   UNL     1       2.586   3.774  21.288  0.00  0.00    +0.000 C 
ATOM      6  C   UNL     1       2.095   5.232  21.220  0.00  0.00    +0.000 C 
ATOM      7  C   UNL     1       2.061   5.709  19.780  0.00  0.00    +0.000 C 
ATOM      8  C   UNL     1       1.928   7.166  19.477  0.00  0.00    +0.000 A 
ATOM      9  C   UNL     1       1.133   8.126  20.074  0.00  0.00    +0.000 A 
ATOM     10  C   UNL     1       1.102   9.405  19.510  0.00  0.00    +0.000 A 
ATOM     11  C   UNL     1       1.850   9.702  18.356  0.00  0.00    +0.000 A 
ATOM     12  C   UNL     1       2.642   8.727  17.754  0.00  0.00    +0.000 A 
ATOM     13  C   UNL     1       2.675   7.470  18.331  0.00  0.00    +0.000 A 
ATOM     14  C   UNL     1       3.418   6.265  17.836  0.00  0.00    +0.000 C 
ATOM     15  C   UNL     1       3.408   5.356  19.088  0.00  0.00    +0.000 C 
ENDROOT
BRANCH   2  16
ATOM     16  C   UNL     1       5.037   3.849  16.967  0.00  0.00    +0.000 A 
ATOM     17  C   UNL     1       6.266   4.235  17.521  0.00  0.00    +0.000 A 
ATOM     18  C   UNL     1       7.248   4.810  16.708  0.00  0.00    +0.000 A 
ATOM     19  C   UNL     1       6.991   4.991  15.352  0.00  0.00    +0.000 A 
ATOM     20  C   UNL     1       5.766   4.636  14.800  0.00  0.00    +0.000 A 
ATOM     21  C   UNL     1       4.772   4.095  15.616  0.00  0.00    +0.000 A 
BRANCH  19  22
ATOM     22  O   UNL     1       7.926   5.525  14.515  0.00  0.00    +0.000 OA
ATOM     23  H   UNL     1       7.472   6.055  13.838  0.00  0.00    +0.000 HD
ENDBRANCH  19  22
ENDBRANCH   2  16
TORSDOF 2
ENDMDL
MODEL 2
REMARK VINA RESULT:      -8.3      0.090      1.036
REMARK  Name = 
REMARK  2 active torsions:
REMARK  status: ('A' for Active; 'I' for Inactive)
REMARK    1  A    between atoms: C_2  and  C_3
REMARK    2  A    between atoms: C_6  and  O_7
REMARK                            x       y       z     vdW  Elec       q    Type
REMARK                         _______ _______ _______ _____ _____    ______ ____
ROOT
ATOM      1  O   UNL     1       3.678   2.024  17.597  0.00  0.00    +0.000 OA
ATOM      2  C   UNL     1       4.029   3.173  17.865  0.00  0.00    +0.000 C 
ATOM      3  N   UNL     1       3.504   3.885  18.948  0.00  0.00    +0.000 N 
ATOM      4  C   UNL     1       2.735   3.110  19.932  0.00  0.00    +0.000 C 
ATOM      5  C   UNL     1       2.547   3.815  21.286  0.00  0.00    +0.000 C 
ATOM      6  C   UNL     1       2.077   5.278  21.188  0.00  0.00    +0.000 C 
ATOM      7  C   UNL     1       2.071   5.734  19.740  0.00  0.00    +0.000 C 
ATOM      8  C   UNL     1       1.962   7.188  19.414  0.00  0.00    +0.000 A 
ATOM      9  C   UNL     1       1.171   8.168  19.985  0.00  0.00    +0.000 A 
ATOM     10  C   UNL     1       1.166   9.438  19.401  0.00  0.00    +0.000 A 
ATOM     11  C   UNL     1       1.935   9.708  18.254  0.00  0.00    +0.000 A 
ATOM     12  C   UNL     1       2.723   8.713  17.678  0.00  0.00    +0.000 A 
ATOM     13  C   UNL     1       2.730   7.464  18.275  0.00  0.00    +0.000 A 
ATOM     14  C   UNL     1       3.464   6.242  17.809  0.00  0.00    +0.000 C 
ATOM     15  C   UNL     1       3.423   5.353  19.074  0.00  0.00    +0.000 C 
ENDROOT
BRANCH   2  16
ATOM     16  C   UNL     1       5.063   3.792  17.001  0.00  0.00    +0.000 A 
ATOM     17  C   UNL     1       4.820   3.912  15.625  0.00  0.00    +0.000 A 
ATOM     18  C   UNL     1       5.766   4.529  14.801  0.00  0.00    +0.000 A 
ATOM     19  C   UNL     1       6.942   5.019  15.360  0.00  0.00    +0.000 A 
ATOM     20  C   UNL     1       7.203   4.880  16.718  0.00  0.00    +0.000 A 
ATOM     21  C   UNL     1       6.277   4.234  17.537  0.00  0.00    +0.000 A 
BRANCH  19  22
ATOM     22  O   UNL     1       7.884   5.649  14.601  0.00  0.00    +0.000 OA
ATOM     23  H   UNL     1       8.121   5.071  13.856  0.00  0.00    +0.000 HD
ENDBRANCH  19  22
ENDBRANCH   2  16
TORSDOF 2
ENDMDL
MODEL 3
REMARK VINA RESULT:      -7.2      1.272      1.786
REMARK  Name = 
REMARK  2 active torsions:
REMARK  status: ('A' for Active; 'I' for Inactive)
REMARK    1  A    between atoms: C_2  and  C_3
REMARK    2  A    between atoms: C_6  and  O_7
REMARK                            x       y       z     vdW  Elec       q    Type
REMARK                         _______ _______ _______ _____ _____    ______ ____
ROOT
ATOM      1  O   UNL     1       4.090   2.396  17.419  0.00  0.00    +0.000 OA
ATOM      2  C   UNL     1       4.228   3.412  18.100  0.00  0.00    +0.000 C 
ATOM      3  N   UNL     1       3.486   3.643  19.261  0.00  0.00    +0.000 N 
ATOM      4  C   UNL     1       2.743   2.497  19.805  0.00  0.00    +0.000 C 
ATOM      5  C   UNL     1       2.303   2.665  21.269  0.00  0.00    +0.000 C 
ATOM      6  C   UNL     1       1.626   4.012  21.586  0.00  0.00    +0.000 C 
ATOM      7  C   UNL     1       1.707   4.937  20.386  0.00  0.00    +0.000 C 
ATOM      8  C   UNL     1       1.412   6.393  20.542  0.00  0.00    +0.000 A 
ATOM      9  C   UNL     1       0.421   7.023  21.273  0.00  0.00    +0.000 A 
ATOM     10  C   UNL     1       0.284   8.409  21.146  0.00  0.00    +0.000 A 
ATOM     11  C   UNL     1       1.122   9.140  20.285  0.00  0.00    +0.000 A 
ATOM     12  C   UNL     1       2.111   8.497  19.543  0.00  0.00    +0.000 A 
ATOM     13  C   UNL     1       2.247   7.128  19.690  0.00  0.00    +0.000 A 
ATOM     14  C   UNL     1       3.206   6.230  18.968  0.00  0.00    +0.000 C 
ATOM     15  C   UNL     1       3.166   4.959  19.849  0.00  0.00    +0.000 C 
ENDROOT
BRANCH   2  16
ATOM     16  C   UNL     1       5.242   4.400  17.658  0.00  0.00    +0.000 A 
ATOM     17  C   UNL     1       5.044   5.088  16.452  0.00  0.00    +0.000 A 
ATOM     18  C   UNL     1       5.968   6.052  16.039  0.00  0.00    +0.000 A 
ATOM     19  C   UNL     1       7.079   6.318  16.834  0.00  0.00    +0.000 A 
ATOM     20  C   UNL     1       7.297   5.621  18.017  0.00  0.00    +0.000 A 
ATOM     21  C   UNL     1       6.395   4.634  18.414  0.00  0.00    +0.000 A 
BRANCH  19  22
ATOM     22  O   UNL     1       7.996   7.264  16.485  0.00  0.00    +0.000 OA
ATOM     23  H   UNL     1       7.762   8.101  16.921  0.00  0.00    +0.000 HD
ENDBRANCH  19  22
ENDBRANCH   2  16
TORSDOF 2
ENDMDL
MODEL 4
REMARK VINA RESULT:      -6.8      7.036     10.703
REMARK  Name = 
REMARK  2 active torsions:
REMARK  status: ('A' for Active; 'I' for Inactive)
REMARK    1  A    between atoms: C_2  and  C_3
REMARK    2  A    between atoms: C_6  and  O_7
REMARK                            x       y       z     vdW  Elec       q    Type
REMARK                         _______ _______ _______ _____ _____    ______ ____
ROOT
ATOM      1  O   UNL     1       0.626  13.400  21.946  0.00  0.00    +0.000 OA
ATOM      2  C   UNL     1      -0.347  12.723  21.616  0.00  0.00    +0.000 C 
ATOM      3  N   UNL     1      -0.275  11.737  20.628  0.00  0.00    +0.000 N 
ATOM      4  C   UNL     1       1.071  11.331  20.203  0.00  0.00    +0.000 C 
ATOM      5  C   UNL     1       1.122   9.987  19.457  0.00  0.00    +0.000 C 
ATOM      6  C   UNL     1       0.077   9.836  18.336  0.00  0.00    +0.000 C 
ATOM      7  C   UNL     1      -0.881  11.012  18.345  0.00  0.00    +0.000 C 
ATOM      8  C   UNL     1      -2.158  10.944  17.573  0.00  0.00    +0.000 A 
ATOM      9  C   UNL     1      -2.404  10.436  16.311  0.00  0.00    +0.000 A 
ATOM     10  C   UNL     1      -3.678  10.613  15.763  0.00  0.00    +0.000 A 
ATOM     11  C   UNL     1      -4.678  11.303  16.472  0.00  0.00    +0.000 A 
ATOM     12  C   UNL     1      -4.420  11.822  17.739  0.00  0.00    +0.000 A 
ATOM     13  C   UNL     1      -3.160  11.626  18.276  0.00  0.00    +0.000 A 
ATOM     14  C   UNL     1      -2.649  12.127  19.594  0.00  0.00    +0.000 C 
ATOM     15  C   UNL     1      -1.392  11.249  19.794  0.00  0.00    +0.000 C 
ENDROOT
BRANCH   2  16
ATOM     16  C   UNL     1      -1.627  12.973  22.323  0.00  0.00    +0.000 A 
ATOM     17  C   UNL     1      -2.179  11.955  23.114  0.00  0.00    +0.000 A 
ATOM     18  C   UNL     1      -3.364  12.186  23.821  0.00  0.00    +0.000 A 
ATOM     19  C   UNL     1      -3.982  13.430  23.729  0.00  0.00    +0.000 A 
ATOM     20  C   UNL     1      -3.456  14.435  22.926  0.00  0.00    +0.000 A 
ATOM     21  C   UNL     1      -2.293  14.196  22.193  0.00  0.00    +0.000 A 
BRANCH  19  22
ATOM     22  O   UNL     1      -5.125  13.709  24.417  0.00  0.00    +0.000 OA
ATOM     23  H   UNL     1      -5.881  13.627  23.812  0.00  0.00    +0.000 HD
ENDBRANCH  19  22
ENDBRANCH   2  16
TORSDOF 2
ENDMDL
MODEL 5
REMARK VINA RESULT:      -6.7      6.711     10.427
REMARK  Name = 
REMARK  2 active torsions:
REMARK  status: ('A' for Active; 'I' for Inactive)
REMARK    1  A    between atoms: C_2  and  C_3
REMARK    2  A    between atoms: C_6  and  O_7
REMARK                            x       y       z     vdW  Elec       q    Type
REMARK                         _______ _______ _______ _____ _____    ______ ____
ROOT
ATOM      1  O   UNL     1       1.105  13.082  21.643  0.00  0.00    +0.000 OA
ATOM      2  C   UNL     1       0.069  12.467  21.389  0.00  0.00    +0.000 C 
ATOM      3  N   UNL     1      -0.002  11.502  20.381  0.00  0.00    +0.000 N 
ATOM      4  C   UNL     1       1.277  11.034  19.828  0.00  0.00    +0.000 C 
ATOM      5  C   UNL     1       1.185   9.707  19.056  0.00  0.00    +0.000 C 
ATOM      6  C   UNL     1       0.038   9.639  18.031  0.00  0.00    +0.000 C 
ATOM      7  C   UNL     1      -0.848  10.865  18.149  0.00  0.00    +0.000 C 
ATOM      8  C   UNL     1      -2.191  10.884  17.494  0.00  0.00    +0.000 A 
ATOM      9  C   UNL     1      -2.576  10.420  16.250  0.00  0.00    +0.000 A 
ATOM     10  C   UNL     1      -3.882  10.679  15.823  0.00  0.00    +0.000 A 
ATOM     11  C   UNL     1      -4.775  11.405  16.631  0.00  0.00    +0.000 A 
ATOM     12  C   UNL     1      -4.376  11.879  17.879  0.00  0.00    +0.000 A 
ATOM     13  C   UNL     1      -3.086  11.603  18.297  0.00  0.00    +0.000 A 
ATOM     14  C   UNL     1      -2.433  12.044  19.572  0.00  0.00    +0.000 C 
ATOM     15  C   UNL     1      -1.214  11.095  19.642  0.00  0.00    +0.000 C 
ENDROOT
BRANCH   2  16
ATOM     16  C   UNL     1      -1.126  12.769  22.214  0.00  0.00    +0.000 A 
ATOM     17  C   UNL     1      -1.615  14.082  22.251  0.00  0.00    +0.000 A 
ATOM     18  C   UNL     1      -2.764  14.378  22.991  0.00  0.00    +0.000 A 
ATOM     19  C   UNL     1      -3.411  13.359  23.684  0.00  0.00    +0.000 A 
ATOM     20  C   UNL     1      -2.917  12.060  23.675  0.00  0.00    +0.000 A 
ATOM     21  C   UNL     1      -1.751  11.769  22.966  0.00  0.00    +0.000 A 
BRANCH  19  22
ATOM     22  O   UNL     1      -4.547  13.593  24.400  0.00  0.00    +0.000 OA
ATOM     23  H   UNL     1      -4.833  14.509  24.241  0.00  0.00    +0.000 HD
ENDBRANCH  19  22
ENDBRANCH   2  16
TORSDOF 2
ENDMDL
MODEL 6
REMARK VINA RESULT:      -6.6      3.319      7.116
REMARK  Name = 
REMARK  2 active torsions:
REMARK  status: ('A' for Active; 'I' for Inactive)
REMARK    1  A    between atoms: C_2  and  C_3
REMARK    2  A    between atoms: C_6  and  O_7
REMARK                            x       y       z     vdW  Elec       q    Type
REMARK                         _______ _______ _______ _____ _____    ______ ____
ROOT
ATOM      1  O   UNL     1       1.343   9.727  17.775  0.00  0.00    +0.000 OA
ATOM      2  C   UNL     1       1.690   8.939  18.654  0.00  0.00    +0.000 C 
ATOM      3  N   UNL     1       2.572   7.883  18.411  0.00  0.00    +0.000 N 
ATOM      4  C   UNL     1       3.302   7.918  17.137  0.00  0.00    +0.000 C 
ATOM      5  C   UNL     1       4.540   7.006  17.091  0.00  0.00    +0.000 C 
ATOM      6  C   UNL     1       4.299   5.571  17.594  0.00  0.00    +0.000 C 
ATOM      7  C   UNL     1       2.906   5.445  18.182  0.00  0.00    +0.000 C 
ATOM      8  C   UNL     1       2.549   4.257  19.014  0.00  0.00    +0.000 A 
ATOM      9  C   UNL     1       2.861   2.923  18.834  0.00  0.00    +0.000 A 
ATOM     10  C   UNL     1       2.288   1.986  19.699  0.00  0.00    +0.000 A 
ATOM     11  C   UNL     1       1.406   2.389  20.717  0.00  0.00    +0.000 A 
ATOM     12  C   UNL     1       1.087   3.735  20.887  0.00  0.00    +0.000 A 
ATOM     13  C   UNL     1       1.673   4.654  20.034  0.00  0.00    +0.000 A 
ATOM     14  C   UNL     1       1.446   6.135  20.005  0.00  0.00    +0.000 C 
ATOM     15  C   UNL     1       2.656   6.619  19.170  0.00  0.00    +0.000 C 
ENDROOT
BRANCH   2  16
ATOM     16  C   UNL     1       1.150   9.156  20.019  0.00  0.00    +0.000 A 
ATOM     17  C   UNL     1      -0.155   9.647  20.166  0.00  0.00    +0.000 A 
ATOM     18  C   UNL     1      -0.696   9.821  21.444  0.00  0.00    +0.000 A 
ATOM     19  C   UNL     1       0.074   9.501  22.559  0.00  0.00    +0.000 A 
ATOM     20  C   UNL     1       1.378   9.039  22.423  0.00  0.00    +0.000 A 
ATOM     21  C   UNL     1       1.931   8.899  21.150  0.00  0.00    +0.000 A 
BRANCH  19  22
ATOM     22  O   UNL     1      -0.417   9.631  23.825  0.00  0.00    +0.000 OA
ATOM     23  H   UNL     1      -1.388   9.632  23.784  0.00  0.00    +0.000 HD
ENDBRANCH  19  22
ENDBRANCH   2  16
TORSDOF 2
ENDMDL
MODEL 7
REMARK VINA RESULT:      -6.6      2.981      6.204
REMARK  Name = 
REMARK  2 active torsions:
REMARK  status: ('A' for Active; 'I' for Inactive)
REMARK    1  A    between atoms: C_2  and  C_3
REMARK    2  A    between atoms: C_6  and  O_7
REMARK                            x       y       z     vdW  Elec       q    Type
REMARK                         _______ _______ _______ _____ _____    ______ ____
ROOT
ATOM      1  O   UNL     1       3.843   6.102  20.008  0.00  0.00    +0.000 OA
ATOM      2  C   UNL     1       4.124   5.196  19.225  0.00  0.00    +0.000 C 
ATOM      3  N   UNL     1       5.383   5.083  18.628  0.00  0.00    +0.000 N 
ATOM      4  C   UNL     1       6.454   5.916  19.192  0.00  0.00    +0.000 C 
ATOM      5  C   UNL     1       7.874   5.465  18.810  0.00  0.00    +0.000 C 
ATOM      6  C   UNL     1       8.076   5.181  17.310  0.00  0.00    +0.000 C 
ATOM      7  C   UNL     1       6.749   5.256  16.577  0.00  0.00    +0.000 C 
ATOM      8  C   UNL     1       6.629   4.713  15.190  0.00  0.00    +0.000 A 
ATOM      9  C   UNL     1       7.506   4.802  14.125  0.00  0.00    +0.000 A 
ATOM     10  C   UNL     1       7.091   4.311  12.883  0.00  0.00    +0.000 A 
ATOM     11  C   UNL     1       5.809   3.755  12.720  0.00  0.00    +0.000 A 
ATOM     12  C   UNL     1       4.927   3.678  13.795  0.00  0.00    +0.000 A 
ATOM     13  C   UNL     1       5.356   4.153  15.022  0.00  0.00    +0.000 A 
ATOM     14  C   UNL     1       4.569   4.210  16.297  0.00  0.00    +0.000 C 
ATOM     15  C   UNL     1       5.687   4.420  17.344  0.00  0.00    +0.000 C 
ENDROOT
BRANCH   2  16
ATOM     16  C   UNL     1       3.074   4.188  18.938  0.00  0.00    +0.000 A 
ATOM     17  C   UNL     1       3.253   2.871  19.383  0.00  0.00    +0.000 A 
ATOM     18  C   UNL     1       2.256   1.916  19.157  0.00  0.00    +0.000 A 
ATOM     19  C   UNL     1       1.092   2.289  18.491  0.00  0.00    +0.000 A 
ATOM     20  C   UNL     1       0.919   3.587  18.022  0.00  0.00    +0.000 A 
ATOM     21  C   UNL     1       1.926   4.532  18.215  0.00  0.00    +0.000 A 
BRANCH  19  22
ATOM     22  O   UNL     1       0.083   1.401  18.267  0.00  0.00    +0.000 OA
ATOM     23  H   UNL     1      -0.732   1.895  18.079  0.00  0.00    +0.000 HD
ENDBRANCH  19  22
ENDBRANCH   2  16
TORSDOF 2
ENDMDL
MODEL 8
REMARK VINA RESULT:      -6.5      2.960      6.235
REMARK  Name = 
REMARK  2 active torsions:
REMARK  status: ('A' for Active; 'I' for Inactive)
REMARK    1  A    between atoms: C_2  and  C_3
REMARK    2  A    between atoms: C_6  and  O_7
REMARK                            x       y       z     vdW  Elec       q    Type
REMARK                         _______ _______ _______ _____ _____    ______ ____
ROOT
ATOM      1  O   UNL     1       3.836   6.122  20.085  0.00  0.00    +0.000 OA
ATOM      2  C   UNL     1       4.108   5.207  19.308  0.00  0.00    +0.000 C 
ATOM      3  N   UNL     1       5.360   5.088  18.699  0.00  0.00    +0.000 N 
ATOM      4  C   UNL     1       6.438   5.925  19.244  0.00  0.00    +0.000 C 
ATOM      5  C   UNL     1       7.854   5.470  18.852  0.00  0.00    +0.000 C 
ATOM      6  C   UNL     1       8.040   5.170  17.353  0.00  0.00    +0.000 C 
ATOM      7  C   UNL     1       6.706   5.239  16.632  0.00  0.00    +0.000 C 
ATOM      8  C   UNL     1       6.571   4.682  15.252  0.00  0.00    +0.000 A 
ATOM      9  C   UNL     1       7.437   4.760  14.177  0.00  0.00    +0.000 A 
ATOM     10  C   UNL     1       7.008   4.256  12.945  0.00  0.00    +0.000 A 
ATOM     11  C   UNL     1       5.725   3.699  12.801  0.00  0.00    +0.000 A 
ATOM     12  C   UNL     1       4.854   3.634  13.886  0.00  0.00    +0.000 A 
ATOM     13  C   UNL     1       5.296   4.122  15.103  0.00  0.00    +0.000 A 
ATOM     14  C   UNL     1       4.522   4.192  16.386  0.00  0.00    +0.000 C 
ATOM     15  C   UNL     1       5.651   4.411  17.420  0.00  0.00    +0.000 C 
ENDROOT
BRANCH   2  16
ATOM     16  C   UNL     1       3.055   4.198  19.043  0.00  0.00    +0.000 A 
ATOM     17  C   UNL     1       1.915   4.575  18.317  0.00  0.00    +0.000 A 
ATOM     18  C   UNL     1       0.930   3.627  18.023  0.00  0.00    +0.000 A 
ATOM     19  C   UNL     1       1.095   2.314  18.456  0.00  0.00    +0.000 A 
ATOM     20  C   UNL     1       2.208   1.939  19.199  0.00  0.00    +0.000 A 
ATOM     21  C   UNL     1       3.175   2.890  19.524  0.00  0.00    +0.000 A 
BRANCH  19  22
ATOM     22  O   UNL     1       0.173   1.350  18.174  0.00  0.00    +0.000 OA
ATOM     23  H   UNL     1      -0.499   1.725  17.580  0.00  0.00    +0.000 HD
ENDBRANCH  19  22
ENDBRANCH   2  16
TORSDOF 2
ENDMDL
MODEL 9
REMARK VINA RESULT:      -6.5      2.732      6.398
REMARK  Name = 
REMARK  2 active torsions:
REMARK  status: ('A' for Active; 'I' for Inactive)
REMARK    1  A    between atoms: C_2  and  C_3
REMARK    2  A    between atoms: C_6  and  O_7
REMARK                            x       y       z     vdW  Elec       q    Type
REMARK                         _______ _______ _______ _____ _____    ______ ____
ROOT
ATOM      1  O   UNL     1       3.449   7.071  18.854  0.00  0.00    +0.000 OA
ATOM      2  C   UNL     1       3.941   6.069  18.336  0.00  0.00    +0.000 C 
ATOM      3  N   UNL     1       5.195   6.082  17.720  0.00  0.00    +0.000 N 
ATOM      4  C   UNL     1       6.037   7.260  17.970  0.00  0.00    +0.000 C 
ATOM      5  C   UNL     1       7.526   7.056  17.644  0.00  0.00    +0.000 C 
ATOM      6  C   UNL     1       7.801   6.414  16.272  0.00  0.00    +0.000 C 
ATOM      7  C   UNL     1       6.500   5.976  15.625  0.00  0.00    +0.000 C 
ATOM      8  C   UNL     1       6.521   5.053  14.451  0.00  0.00    +0.000 A 
ATOM      9  C   UNL     1       7.361   5.035  13.353  0.00  0.00    +0.000 A 
ATOM     10  C   UNL     1       7.083   4.133  12.321  0.00  0.00    +0.000 A 
ATOM     11  C   UNL     1       5.969   3.277  12.392  0.00  0.00    +0.000 A 
ATOM     12  C   UNL     1       5.121   3.308  13.497  0.00  0.00    +0.000 A 
ATOM     13  C   UNL     1       5.416   4.194  14.518  0.00  0.00    +0.000 A 
ATOM     14  C   UNL     1       4.627   4.427  15.772  0.00  0.00    +0.000 C 
ATOM     15  C   UNL     1       5.657   5.171  16.654  0.00  0.00    +0.000 C 
ENDROOT
BRANCH   2  16
ATOM     16  C   UNL     1       3.159   4.811  18.400  0.00  0.00    +0.000 A 
ATOM     17  C   UNL     1       3.719   3.690  19.028  0.00  0.00    +0.000 A 
ATOM     18  C   UNL     1       2.982   2.506  19.134  0.00  0.00    +0.000 A 
ATOM     19  C   UNL     1       1.693   2.457  18.611  0.00  0.00    +0.000 A 
ATOM     20  C   UNL     1       1.139   3.555  17.962  0.00  0.00    +0.000 A 
ATOM     21  C   UNL     1       1.886   4.725  17.825  0.00  0.00    +0.000 A 
BRANCH  19  22
ATOM     22  O   UNL     1       0.926   1.334  18.710  0.00  0.00    +0.000 OA
ATOM     23  H   UNL     1       1.511   0.559  18.742  0.00  0.00    +0.000 HD
ENDBRANCH  19  22
ENDBRANCH   2  16
TORSDOF 2
ENDMDL
