MODEL 1
REMARK VINA RESULT:      -8.4      0.000      0.000
REMARK  Name = 
REMARK  4 active torsions:
REMARK  status: ('A' for Active; 'I' for Inactive)
REMARK    1  A    between atoms: C_1  and  C_2
REMARK    2  A    between atoms: C_8  and  C_10
REMARK    3  A    between atoms: N_13  and  S_14
REMARK    4  A    between atoms: S_14  and  C_17
REMARK                            x       y       z     vdW  Elec       q    Type
REMARK                         _______ _______ _______ _____ _____    ______ ____
ROOT
ATOM      1  C   UNL     1       7.663   5.912  18.072  0.00  0.00    +0.000 C 
ATOM      2  C   UNL     1       7.315   5.086  16.824  0.00  0.00    +0.000 C 
ATOM      3  C   UNL     1       5.832   4.766  16.688  0.00  0.00    +0.000 C 
ATOM      4  N   UNL     1       5.380   4.117  17.945  0.00  0.00    +0.000 NA
ATOM      5  C   UNL     1       5.411   5.102  19.055  0.00  0.00    +0.000 C 
ATOM      6  C   UNL     1       6.855   5.532  19.323  0.00  0.00    +0.000 C 
ENDROOT
BRANCH   1  14
ATOM      7  C   UNL     1      10.797  11.956  20.650  0.00  0.00    +0.000 C 
ATOM      8  C   UNL     1       9.908  11.373  19.593  0.00  0.00    +0.000 A 
ATOM      9  C   UNL     1       9.421  12.159  18.553  0.00  0.00    +0.000 A 
ATOM     10  C   UNL     1       8.603  11.562  17.610  0.00  0.00    +0.000 A 
ATOM     11  N   UNL     1       8.243  10.260  17.634  0.00  0.00    +0.000 NA
ATOM     12  C   UNL     1       8.705   9.499  18.639  0.00  0.00    +0.000 A 
ATOM     13  N   UNL     1       8.392   8.131  18.709  0.00  0.00    +0.000 N 
ATOM     14  C   UNL     1       7.613   7.421  17.800  0.00  0.00    +0.000 C 
ATOM     15  O   UNL     1       6.943   7.874  16.879  0.00  0.00    +0.000 OA
ATOM     16  C   UNL     1       9.542  10.020  19.629  0.00  0.00    +0.000 A 
ATOM     17  H   UNL     1       8.824   7.616  19.461  0.00  0.00    +0.000 HD
ENDBRANCH   1  14
BRANCH   4  18
ATOM     18  S   UNL     1       3.888   3.283  17.814  0.00  0.00    +0.000 S 
ATOM     19  O   UNL     1       3.161   3.809  16.681  0.00  0.00    +0.000 OA
ATOM     20  O   UNL     1       4.162   1.865  17.936  0.00  0.00    +0.000 OA
BRANCH  18  21
ATOM     21  C   UNL     1       2.885   3.674  19.238  0.00  0.00    +0.000 A 
ATOM     22  C   UNL     1       1.903   4.623  19.451  0.00  0.00    +0.000 A 
ATOM     23  C   UNL     1       1.387   4.584  20.779  0.00  0.00    +0.000 A 
ATOM     24  C   UNL     1       1.991   3.604  21.536  0.00  0.00    +0.000 A 
ATOM     25  S   UNL     1       3.161   2.731  20.640  0.00  0.00    +0.000 S 
ENDBRANCH  18  21
ENDBRANCH   4  18
TORSDOF 3
ENDMDL
MODEL 2
REMARK VINA RESULT:      -8.3      4.828      6.907
REMARK  Name = 
REMARK  4 active torsions:
REMARK  status: ('A' for Active; 'I' for Inactive)
REMARK    1  A    between atoms: C_1  and  C_2
REMARK    2  A    between atoms: C_8  and  C_10
REMARK    3  A    between atoms: N_13  and  S_14
REMARK    4  A    between atoms: S_14  and  C_17
REMARK                            x       y       z     vdW  Elec       q    Type
REMARK                         _______ _______ _______ _____ _____    ______ ____
ROOT
ATOM      1  C   UNL     1       3.223   4.143  18.934  0.00  0.00    +0.000 C 
ATOM      2  C   UNL     1       4.642   3.695  19.315  0.00  0.00    +0.000 C 
ATOM      3  C   UNL     1       5.748   4.521  18.671  0.00  0.00    +0.000 C 
ATOM      4  N   UNL     1       5.526   4.526  17.202  0.00  0.00    +0.000 NA
ATOM      5  C   UNL     1       4.299   5.298  16.883  0.00  0.00    +0.000 C 
ATOM      6  C   UNL     1       3.077   4.587  17.470  0.00  0.00    +0.000 C 
ENDROOT
BRANCH   1  14
ATOM      7  C   UNL     1       1.008  11.074  18.680  0.00  0.00    +0.000 C 
ATOM      8  C   UNL     1       1.114   9.834  19.518  0.00  0.00    +0.000 A 
ATOM      9  C   UNL     1       0.569   9.785  20.797  0.00  0.00    +0.000 A 
ATOM     10  C   UNL     1       0.703   8.613  21.520  0.00  0.00    +0.000 A 
ATOM     11  N   UNL     1       1.333   7.508  21.064  0.00  0.00    +0.000 NA
ATOM     12  C   UNL     1       1.865   7.552  19.832  0.00  0.00    +0.000 A 
ATOM     13  N   UNL     1       2.508   6.429  19.285  0.00  0.00    +0.000 N 
ATOM     14  C   UNL     1       2.668   5.193  19.904  0.00  0.00    +0.000 C 
ATOM     15  O   UNL     1       2.421   4.907  21.071  0.00  0.00    +0.000 OA
ATOM     16  C   UNL     1       1.769   8.693  19.031  0.00  0.00    +0.000 A 
ATOM     17  H   UNL     1       2.831   6.524  18.334  0.00  0.00    +0.000 HD
ENDBRANCH   1  14
BRANCH   4  18
ATOM     18  S   UNL     1       6.892   5.004  16.282  0.00  0.00    +0.000 S 
ATOM     19  O   UNL     1       6.929   6.448  16.225  0.00  0.00    +0.000 OA
ATOM     20  O   UNL     1       8.031   4.242  16.753  0.00  0.00    +0.000 OA
BRANCH  18  21
ATOM     21  C   UNL     1       6.660   4.474  14.594  0.00  0.00    +0.000 A 
ATOM     22  C   UNL     1       5.750   3.618  14.003  0.00  0.00    +0.000 A 
ATOM     23  C   UNL     1       5.968   3.472  12.602  0.00  0.00    +0.000 A 
ATOM     24  C   UNL     1       7.038   4.222  12.168  0.00  0.00    +0.000 A 
ATOM     25  S   UNL     1       7.760   5.108  13.445  0.00  0.00    +0.000 S 
ENDBRANCH  18  21
ENDBRANCH   4  18
TORSDOF 3
ENDMDL
MODEL 3
REMARK VINA RESULT:      -8.1      0.941      1.051
REMARK  Name = 
REMARK  4 active torsions:
REMARK  status: ('A' for Active; 'I' for Inactive)
REMARK    1  A    between atoms: C_1  and  C_2
REMARK    2  A    between atoms: C_8  and  C_10
REMARK    3  A    between atoms: N_13  and  S_14
REMARK    4  A    between atoms: S_14  and  C_17
REMARK                            x       y       z     vdW  Elec       q    Type
REMARK                         _______ _______ _______ _____ _____    ______ ____
ROOT
ATOM      1  C   UNL     1       7.993   6.176  17.898  0.00  0.00    +0.000 C 
ATOM      2  C   UNL     1       7.241   5.375  16.823  0.00  0.00    +0.000 C 
ATOM      3  C   UNL     1       5.817   5.002  17.213  0.00  0.00    +0.000 C 
ATOM      4  N   UNL     1       5.864   4.298  18.520  0.00  0.00    +0.000 NA
ATOM      5  C   UNL     1       6.265   5.249  19.586  0.00  0.00    +0.000 C 
ATOM      6  C   UNL     1       7.698   5.726  19.337  0.00  0.00    +0.000 C 
ENDROOT
BRANCH   1  14
ATOM      7  C   UNL     1      10.770  12.288  20.713  0.00  0.00    +0.000 C 
ATOM      8  C   UNL     1       9.876  11.699  19.663  0.00  0.00    +0.000 A 
ATOM      9  C   UNL     1       9.276  12.505  18.699  0.00  0.00    +0.000 A 
ATOM     10  C   UNL     1       8.460  11.901  17.759  0.00  0.00    +0.000 A 
ATOM     11  N   UNL     1       8.205  10.575  17.716  0.00  0.00    +0.000 NA
ATOM     12  C   UNL     1       8.777   9.795  18.646  0.00  0.00    +0.000 A 
ATOM     13  N   UNL     1       8.577   8.404  18.642  0.00  0.00    +0.000 N 
ATOM     14  C   UNL     1       7.811   7.689  17.727  0.00  0.00    +0.000 C 
ATOM     15  O   UNL     1       7.060   8.141  16.869  0.00  0.00    +0.000 OA
ATOM     16  C   UNL     1       9.621  10.321  19.628  0.00  0.00    +0.000 A 
ATOM     17  H   UNL     1       9.087   7.882  19.339  0.00  0.00    +0.000 HD
ENDBRANCH   1  14
BRANCH   4  18
ATOM     18  S   UNL     1       4.446   3.410  18.895  0.00  0.00    +0.000 S 
ATOM     19  O   UNL     1       3.875   2.908  17.666  0.00  0.00    +0.000 OA
ATOM     20  O   UNL     1       4.759   2.519  19.995  0.00  0.00    +0.000 OA
BRANCH  18  21
ATOM     21  C   UNL     1       3.224   4.531  19.555  0.00  0.00    +0.000 A 
ATOM     22  C   UNL     1       2.907   5.843  19.255  0.00  0.00    +0.000 A 
ATOM     23  C   UNL     1       1.858   6.351  20.076  0.00  0.00    +0.000 A 
ATOM     24  C   UNL     1       1.408   5.410  20.976  0.00  0.00    +0.000 A 
ATOM     25  S   UNL     1       2.239   3.920  20.815  0.00  0.00    +0.000 S 
ENDBRANCH  18  21
ENDBRANCH   4  18
TORSDOF 3
ENDMDL
MODEL 4
REMARK VINA RESULT:      -7.7      1.755      2.323
REMARK  Name = 
REMARK  4 active torsions:
REMARK  status: ('A' for Active; 'I' for Inactive)
REMARK    1  A    between atoms: C_1  and  C_2
REMARK    2  A    between atoms: C_8  and  C_10
REMARK    3  A    between atoms: N_13  and  S_14
REMARK    4  A    between atoms: S_14  and  C_17
REMARK                            x       y       z     vdW  Elec       q    Type
REMARK                         _______ _______ _______ _____ _____    ______ ____
ROOT
ATOM      1  C   UNL     1       6.827   6.016  17.399  0.00  0.00    +0.000 C 
ATOM      2  C   UNL     1       5.718   6.773  16.653  0.00  0.00    +0.000 C 
ATOM      3  C   UNL     1       4.459   7.002  17.481  0.00  0.00    +0.000 C 
ATOM      4  N   UNL     1       4.003   5.688  18.001  0.00  0.00    +0.000 NA
ATOM      5  C   UNL     1       4.976   5.180  19.001  0.00  0.00    +0.000 C 
ATOM      6  C   UNL     1       6.315   4.896  18.318  0.00  0.00    +0.000 C 
ENDROOT
BRANCH   1  14
ATOM      7  C   UNL     1       8.530  13.094  17.295  0.00  0.00    +0.000 C 
ATOM      8  C   UNL     1       8.718  11.782  17.997  0.00  0.00    +0.000 A 
ATOM      9  C   UNL     1       9.458  11.698  19.172  0.00  0.00    +0.000 A 
ATOM     10  C   UNL     1       9.597  10.458  19.770  0.00  0.00    +0.000 A 
ATOM     11  N   UNL     1       9.059   9.317  19.284  0.00  0.00    +0.000 NA
ATOM     12  C   UNL     1       8.349   9.392  18.148  0.00  0.00    +0.000 A 
ATOM     13  N   UNL     1       7.739   8.250  17.603  0.00  0.00    +0.000 N 
ATOM     14  C   UNL     1       7.780   6.965  18.137  0.00  0.00    +0.000 C 
ATOM     15  O   UNL     1       8.467   6.568  19.072  0.00  0.00    +0.000 OA
ATOM     16  C   UNL     1       8.153  10.606  17.483  0.00  0.00    +0.000 A 
ATOM     17  H   UNL     1       7.175   8.399  16.780  0.00  0.00    +0.000 HD
ENDBRANCH   1  14
BRANCH   4  18
ATOM     18  S   UNL     1       2.381   5.672  18.558  0.00  0.00    +0.000 S 
ATOM     19  O   UNL     1       2.108   6.926  19.223  0.00  0.00    +0.000 OA
ATOM     20  O   UNL     1       1.545   5.202  17.471  0.00  0.00    +0.000 OA
BRANCH  18  21
ATOM     21  C   UNL     1       2.221   4.425  19.824  0.00  0.00    +0.000 A 
ATOM     22  C   UNL     1       2.208   4.497  21.205  0.00  0.00    +0.000 A 
ATOM     23  C   UNL     1       2.084   3.216  21.817  0.00  0.00    +0.000 A 
ATOM     24  C   UNL     1       2.004   2.207  20.882  0.00  0.00    +0.000 A 
ATOM     25  S   UNL     1       2.064   2.810  19.280  0.00  0.00    +0.000 S 
ENDBRANCH  18  21
ENDBRANCH   4  18
TORSDOF 3
ENDMDL
MODEL 5
REMARK VINA RESULT:      -7.6      1.304      2.068
REMARK  Name = 
REMARK  4 active torsions:
REMARK  status: ('A' for Active; 'I' for Inactive)
REMARK    1  A    between atoms: C_1  and  C_2
REMARK    2  A    between atoms: C_8  and  C_10
REMARK    3  A    between atoms: N_13  and  S_14
REMARK    4  A    between atoms: S_14  and  C_17
REMARK                            x       y       z     vdW  Elec       q    Type
REMARK                         _______ _______ _______ _____ _____    ______ ____
ROOT
ATOM      1  C   UNL     1       6.406   6.674  17.041  0.00  0.00    +0.000 C 
ATOM      2  C   UNL     1       5.036   6.696  17.736  0.00  0.00    +0.000 C 
ATOM      3  C   UNL     1       4.795   5.515  18.668  0.00  0.00    +0.000 C 
ATOM      4  N   UNL     1       5.025   4.265  17.900  0.00  0.00    +0.000 NA
ATOM      5  C   UNL     1       6.465   4.141  17.566  0.00  0.00    +0.000 C 
ATOM      6  C   UNL     1       6.874   5.272  16.620  0.00  0.00    +0.000 C 
ENDROOT
BRANCH   1  14
ATOM      7  C   UNL     1       9.024  13.442  17.619  0.00  0.00    +0.000 C 
ATOM      8  C   UNL     1       9.041  12.052  18.182  0.00  0.00    +0.000 A 
ATOM      9  C   UNL     1       9.770  11.753  19.329  0.00  0.00    +0.000 A 
ATOM     10  C   UNL     1       9.747  10.451  19.796  0.00  0.00    +0.000 A 
ATOM     11  N   UNL     1       9.062   9.446  19.208  0.00  0.00    +0.000 NA
ATOM     12  C   UNL     1       8.362   9.729  18.098  0.00  0.00    +0.000 A 
ATOM     13  N   UNL     1       7.604   8.737  17.453  0.00  0.00    +0.000 N 
ATOM     14  C   UNL     1       7.479   7.410  17.853  0.00  0.00    +0.000 C 
ATOM     15  O   UNL     1       8.112   6.834  18.731  0.00  0.00    +0.000 OA
ATOM     16  C   UNL     1       8.324  11.019  17.563  0.00  0.00    +0.000 A 
ATOM     17  H   UNL     1       7.061   9.042  16.659  0.00  0.00    +0.000 HD
ENDBRANCH   1  14
BRANCH   4  18
ATOM     18  S   UNL     1       4.368   2.858  18.627  0.00  0.00    +0.000 S 
ATOM     19  O   UNL     1       3.920   1.963  17.584  0.00  0.00    +0.000 OA
ATOM     20  O   UNL     1       5.296   2.414  19.649  0.00  0.00    +0.000 OA
BRANCH  18  21
ATOM     21  C   UNL     1       2.892   3.310  19.523  0.00  0.00    +0.000 A 
ATOM     22  C   UNL     1       2.611   3.389  20.874  0.00  0.00    +0.000 A 
ATOM     23  C   UNL     1       1.263   3.775  21.129  0.00  0.00    +0.000 A 
ATOM     24  C   UNL     1       0.558   3.978  19.962  0.00  0.00    +0.000 A 
ATOM     25  S   UNL     1       1.527   3.721  18.574  0.00  0.00    +0.000 S 
ENDBRANCH  18  21
ENDBRANCH   4  18
TORSDOF 3
ENDMDL
MODEL 6
REMARK VINA RESULT:      -7.6      4.306      6.987
REMARK  Name = 
REMARK  4 active torsions:
REMARK  status: ('A' for Active; 'I' for Inactive)
REMARK    1  A    between atoms: C_1  and  C_2
REMARK    2  A    between atoms: C_8  and  C_10
REMARK    3  A    between atoms: N_13  and  S_14
REMARK    4  A    between atoms: S_14  and  C_17
REMARK                            x       y       z     vdW  Elec       q    Type
REMARK                         _______ _______ _______ _____ _____    ______ ____
ROOT
ATOM      1  C   UNL     1       3.376   5.542  18.791  0.00  0.00    +0.000 C 
ATOM      2  C   UNL     1       4.771   5.717  19.410  0.00  0.00    +0.000 C 
ATOM      3  C   UNL     1       5.851   6.100  18.406  0.00  0.00    +0.000 C 
ATOM      4  N   UNL     1       5.836   5.100  17.308  0.00  0.00    +0.000 NA
ATOM      5  C   UNL     1       4.584   5.237  16.523  0.00  0.00    +0.000 C 
ATOM      6  C   UNL     1       3.384   4.881  17.404  0.00  0.00    +0.000 C 
ENDROOT
BRANCH   1  14
ATOM      7  C   UNL     1      -0.190   9.660  23.621  0.00  0.00    +0.000 C 
ATOM      8  C   UNL     1       0.310   9.551  22.211  0.00  0.00    +0.000 A 
ATOM      9  C   UNL     1       0.166  10.607  21.316  0.00  0.00    +0.000 A 
ATOM     10  C   UNL     1       0.645  10.444  20.029  0.00  0.00    +0.000 A 
ATOM     11  N   UNL     1       1.246   9.319  19.581  0.00  0.00    +0.000 NA
ATOM     12  C   UNL     1       1.382   8.296  20.438  0.00  0.00    +0.000 A 
ATOM     13  N   UNL     1       2.022   7.108  20.046  0.00  0.00    +0.000 N 
ATOM     14  C   UNL     1       2.573   6.848  18.794  0.00  0.00    +0.000 C 
ATOM     15  O   UNL     1       2.469   7.528  17.779  0.00  0.00    +0.000 OA
ATOM     16  C   UNL     1       0.933   8.379  21.759  0.00  0.00    +0.000 A 
ATOM     17  H   UNL     1       2.136   6.408  20.764  0.00  0.00    +0.000 HD
ENDBRANCH   1  14
BRANCH   4  18
ATOM     18  S   UNL     1       7.251   5.093  16.339  0.00  0.00    +0.000 S 
ATOM     19  O   UNL     1       7.700   6.456  16.165  0.00  0.00    +0.000 OA
ATOM     20  O   UNL     1       8.139   4.071  16.859  0.00  0.00    +0.000 OA
BRANCH  18  21
ATOM     21  C   UNL     1       6.823   4.528  14.701  0.00  0.00    +0.000 A 
ATOM     22  C   UNL     1       5.867   3.640  14.243  0.00  0.00    +0.000 A 
ATOM     23  C   UNL     1       5.910   3.475  12.828  0.00  0.00    +0.000 A 
ATOM     24  C   UNL     1       6.898   4.243  12.251  0.00  0.00    +0.000 A 
ATOM     25  S   UNL     1       7.752   5.168  13.413  0.00  0.00    +0.000 S 
ENDBRANCH  18  21
ENDBRANCH   4  18
TORSDOF 3
ENDMDL
MODEL 7
REMARK VINA RESULT:      -7.5      3.752      5.673
REMARK  Name = 
REMARK  4 active torsions:
REMARK  status: ('A' for Active; 'I' for Inactive)
REMARK    1  A    between atoms: C_1  and  C_2
REMARK    2  A    between atoms: C_8  and  C_10
REMARK    3  A    between atoms: N_13  and  S_14
REMARK    4  A    between atoms: S_14  and  C_17
REMARK                            x       y       z     vdW  Elec       q    Type
REMARK                         _______ _______ _______ _____ _____    ______ ____
ROOT
ATOM      1  C   UNL     1       6.332   5.983  17.783  0.00  0.00    +0.000 C 
ATOM      2  C   UNL     1       6.096   4.578  18.358  0.00  0.00    +0.000 C 
ATOM      3  C   UNL     1       4.772   3.951  17.939  0.00  0.00    +0.000 C 
ATOM      4  N   UNL     1       3.682   4.899  18.284  0.00  0.00    +0.000 NA
ATOM      5  C   UNL     1       3.772   6.102  17.420  0.00  0.00    +0.000 C 
ATOM      6  C   UNL     1       5.069   6.857  17.722  0.00  0.00    +0.000 C 
ENDROOT
BRANCH   1  14
ATOM      7  C   UNL     1       5.806   2.356  11.492  0.00  0.00    +0.000 C 
ATOM      8  C   UNL     1       6.482   3.475  12.228  0.00  0.00    +0.000 A 
ATOM      9  C   UNL     1       7.385   4.314  11.582  0.00  0.00    +0.000 A 
ATOM     10  C   UNL     1       7.977   5.326  12.316  0.00  0.00    +0.000 A 
ATOM     11  N   UNL     1       7.737   5.552  13.627  0.00  0.00    +0.000 NA
ATOM     12  C   UNL     1       6.871   4.742  14.255  0.00  0.00    +0.000 A 
ATOM     13  N   UNL     1       6.554   4.938  15.610  0.00  0.00    +0.000 N 
ATOM     14  C   UNL     1       7.059   5.941  16.433  0.00  0.00    +0.000 C 
ATOM     15  O   UNL     1       7.967   6.725  16.181  0.00  0.00    +0.000 OA
ATOM     16  C   UNL     1       6.222   3.700  13.587  0.00  0.00    +0.000 A 
ATOM     17  H   UNL     1       5.852   4.324  15.994  0.00  0.00    +0.000 HD
ENDBRANCH   1  14
BRANCH   4  18
ATOM     18  S   UNL     1       2.118   4.197  18.315  0.00  0.00    +0.000 S 
ATOM     19  O   UNL     1       1.134   5.255  18.270  0.00  0.00    +0.000 OA
ATOM     20  O   UNL     1       2.100   3.114  17.351  0.00  0.00    +0.000 OA
BRANCH  18  21
ATOM     21  C   UNL     1       1.878   3.400  19.894  0.00  0.00    +0.000 A 
ATOM     22  C   UNL     1       0.771   3.273  20.713  0.00  0.00    +0.000 A 
ATOM     23  C   UNL     1       1.062   2.564  21.915  0.00  0.00    +0.000 A 
ATOM     24  C   UNL     1       2.381   2.171  21.974  0.00  0.00    +0.000 A 
ATOM     25  S   UNL     1       3.254   2.645  20.577  0.00  0.00    +0.000 S 
ENDBRANCH  18  21
ENDBRANCH   4  18
TORSDOF 3
ENDMDL
MODEL 8
REMARK VINA RESULT:      -7.3      1.173      1.831
REMARK  Name = 
REMARK  4 active torsions:
REMARK  status: ('A' for Active; 'I' for Inactive)
REMARK    1  A    between atoms: C_1  and  C_2
REMARK    2  A    between atoms: C_8  and  C_10
REMARK    3  A    between atoms: N_13  and  S_14
REMARK    4  A    between atoms: S_14  and  C_17
REMARK                            x       y       z     vdW  Elec       q    Type
REMARK                         _______ _______ _______ _____ _____    ______ ____
ROOT
ATOM      1  C   UNL     1       6.439   6.479  16.420  0.00  0.00    +0.000 C 
ATOM      2  C   UNL     1       4.960   6.786  16.705  0.00  0.00    +0.000 C 
ATOM      3  C   UNL     1       4.275   5.760  17.598  0.00  0.00    +0.000 C 
ATOM      4  N   UNL     1       4.473   4.417  16.996  0.00  0.00    +0.000 NA
ATOM      5  C   UNL     1       5.904   4.035  17.082  0.00  0.00    +0.000 C 
ATOM      6  C   UNL     1       6.743   4.985  16.224  0.00  0.00    +0.000 C 
ENDROOT
BRANCH   1  14
ATOM      7  C   UNL     1       9.224  13.057  17.825  0.00  0.00    +0.000 C 
ATOM      8  C   UNL     1       9.067  11.645  18.308  0.00  0.00    +0.000 A 
ATOM      9  C   UNL     1       9.550  11.257  19.554  0.00  0.00    +0.000 A 
ATOM     10  C   UNL     1       9.377   9.940  19.941  0.00  0.00    +0.000 A 
ATOM     11  N   UNL     1       8.768   9.002  19.184  0.00  0.00    +0.000 NA
ATOM     12  C   UNL     1       8.305   9.370  17.979  0.00  0.00    +0.000 A 
ATOM     13  N   UNL     1       7.635   8.451  17.153  0.00  0.00    +0.000 N 
ATOM     14  C   UNL     1       7.373   7.118  17.454  0.00  0.00    +0.000 C 
ATOM     15  O   UNL     1       7.800   6.470  18.404  0.00  0.00    +0.000 OA
ATOM     16  C   UNL     1       8.431  10.681  17.514  0.00  0.00    +0.000 A 
ATOM     17  H   UNL     1       7.267   8.819  16.289  0.00  0.00    +0.000 HD
ENDBRANCH   1  14
BRANCH   4  18
ATOM     18  S   UNL     1       3.408   3.212  17.591  0.00  0.00    +0.000 S 
ATOM     19  O   UNL     1       2.308   3.067  16.663  0.00  0.00    +0.000 OA
ATOM     20  O   UNL     1       4.208   2.072  17.990  0.00  0.00    +0.000 OA
BRANCH  18  21
ATOM     21  C   UNL     1       2.667   3.798  19.106  0.00  0.00    +0.000 A 
ATOM     22  C   UNL     1       1.728   4.779  19.364  0.00  0.00    +0.000 A 
ATOM     23  C   UNL     1       1.455   4.920  20.756  0.00  0.00    +0.000 A 
ATOM     24  C   UNL     1       2.196   4.041  21.515  0.00  0.00    +0.000 A 
ATOM     25  S   UNL     1       3.198   3.044  20.548  0.00  0.00    +0.000 S 
ENDBRANCH  18  21
ENDBRANCH   4  18
TORSDOF 3
ENDMDL
MODEL 9
REMARK VINA RESULT:      -7.3      6.302      8.810
REMARK  Name = 
REMARK  4 active torsions:
REMARK  status: ('A' for Active; 'I' for Inactive)
REMARK    1  A    between atoms: C_1  and  C_2
REMARK    2  A    between atoms: C_8  and  C_10
REMARK    3  A    between atoms: N_13  and  S_14
REMARK    4  A    between atoms: S_14  and  C_17
REMARK                            x       y       z     vdW  Elec       q    Type
REMARK                         _______ _______ _______ _____ _____    ______ ____
ROOT
ATOM      1  C   UNL     1       1.239  10.362  19.511  0.00  0.00    +0.000 C 
ATOM      2  C   UNL     1       1.898   9.890  18.206  0.00  0.00    +0.000 C 
ATOM      3  C   UNL     1       1.798   8.389  17.969  0.00  0.00    +0.000 C 
ATOM      4  N   UNL     1       2.340   7.695  19.165  0.00  0.00    +0.000 NA
ATOM      5  C   UNL     1       1.437   7.914  20.323  0.00  0.00    +0.000 C 
ATOM      6  C   UNL     1       1.425   9.398  20.693  0.00  0.00    +0.000 C 
ENDROOT
BRANCH   1  14
ATOM      7  C   UNL     1      -3.704  10.137  14.170  0.00  0.00    +0.000 C 
ATOM      8  C   UNL     1      -3.459  10.408  15.625  0.00  0.00    +0.000 A 
ATOM      9  C   UNL     1      -4.511  10.710  16.484  0.00  0.00    +0.000 A 
ATOM     10  C   UNL     1      -4.219  10.953  17.814  0.00  0.00    +0.000 A 
ATOM     11  N   UNL     1      -2.973  10.918  18.336  0.00  0.00    +0.000 NA
ATOM     12  C   UNL     1      -1.955  10.633  17.510  0.00  0.00    +0.000 A 
ATOM     13  N   UNL     1      -0.637  10.552  17.993  0.00  0.00    +0.000 N 
ATOM     14  C   UNL     1      -0.234  10.739  19.312  0.00  0.00    +0.000 C 
ATOM     15  O   UNL     1      -0.912  11.152  20.246  0.00  0.00    +0.000 OA
ATOM     16  C   UNL     1      -2.161  10.367  16.154  0.00  0.00    +0.000 A 
ATOM     17  H   UNL     1       0.064  10.276  17.321  0.00  0.00    +0.000 HD
ENDBRANCH   1  14
BRANCH   4  18
ATOM     18  S   UNL     1       2.733   6.045  18.908  0.00  0.00    +0.000 S 
ATOM     19  O   UNL     1       2.845   5.391  20.192  0.00  0.00    +0.000 OA
ATOM     20  O   UNL     1       1.847   5.534  17.881  0.00  0.00    +0.000 OA
BRANCH  18  21
ATOM     21  C   UNL     1       4.364   5.950  18.189  0.00  0.00    +0.000 A 
ATOM     22  C   UNL     1       4.932   6.561  17.087  0.00  0.00    +0.000 A 
ATOM     23  C   UNL     1       6.281   6.154  16.874  0.00  0.00    +0.000 A 
ATOM     24  C   UNL     1       6.699   5.245  17.821  0.00  0.00    +0.000 A 
ATOM     25  S   UNL     1       5.472   4.902  18.966  0.00  0.00    +0.000 S 
ENDBRANCH  18  21
ENDBRANCH   4  18
TORSDOF 3
ENDMDL
