MODEL 1
REMARK VINA RESULT:      -8.8      0.000      0.000
REMARK  Name = 
REMARK  5 active torsions:
REMARK  status: ('A' for Active; 'I' for Inactive)
REMARK    1  A    between atoms: C_2  and  C_14
REMARK    2  A    between atoms: N_3  and  C_4
REMARK    3  A    between atoms: C_4  and  C_5
REMARK    4  A    between atoms: C_18  and  S_19
REMARK    5  A    between atoms: S_19  and  N_22
REMARK                            x       y       z     vdW  Elec       q    Type
REMARK                         _______ _______ _______ _____ _____    ______ ____
ROOT
ATOM      1  O   UNL     1       2.761   8.195  17.909  0.00  0.00    +0.000 OA
ATOM      2  C   UNL     1       2.135   7.889  18.911  0.00  0.00    +0.000 C 
ATOM      3  N   UNL     1       1.350   8.770  19.615  0.00  0.00    +0.000 N 
ATOM      4  H   UNL     1       0.861   8.481  20.452  0.00  0.00    +0.000 HD
ENDROOT
BRANCH   2   5
ATOM      5  C   UNL     1       2.270   6.526  19.496  0.00  0.00    +0.000 A 
ATOM      6  C   UNL     1       1.623   6.126  20.667  0.00  0.00    +0.000 A 
ATOM      7  C   UNL     1       1.911   4.872  21.220  0.00  0.00    +0.000 A 
ATOM      8  C   UNL     1       2.834   4.024  20.604  0.00  0.00    +0.000 A 
ATOM      9  C   UNL     1       3.435   4.405  19.404  0.00  0.00    +0.000 A 
ATOM     10  C   UNL     1       3.152   5.656  18.848  0.00  0.00    +0.000 A 
BRANCH   9  11
ATOM     11  S   UNL     1       4.687   3.341  18.695  0.00  0.00    +0.000 S 
ATOM     12  O   UNL     1       5.147   2.472  19.743  0.00  0.00    +0.000 OA
ATOM     13  O   UNL     1       4.122   2.807  17.463  0.00  0.00    +0.000 OA
BRANCH  11  14
ATOM     14  N   UNL     1       5.971   4.394  18.263  0.00  0.00    +0.000 NA
ATOM     15  C   UNL     1       5.907   4.951  16.888  0.00  0.00    +0.000 C 
ATOM     16  C   UNL     1       7.132   5.782  16.538  0.00  0.00    +0.000 C 
ATOM     17  C   UNL     1       7.441   6.811  17.614  0.00  0.00    +0.000 C 
ATOM     18  C   UNL     1       7.654   6.115  18.949  0.00  0.00    +0.000 C 
ATOM     19  C   UNL     1       6.443   5.286  19.355  0.00  0.00    +0.000 C 
ENDBRANCH  11  14
ENDBRANCH   9  11
ENDBRANCH   2   5
BRANCH   3  20
ATOM     20  C   UNL     1       1.264  10.156  19.207  0.00  0.00    +0.000 C 
BRANCH  20  21
ATOM     21  C   UNL     1      -0.090  10.458  18.657  0.00  0.00    +0.000 A 
ATOM     22  N   UNL     1      -1.034  11.170  19.245  0.00  0.00    +0.000 NA
ATOM     23  C   UNL     1      -2.109  11.141  18.389  0.00  0.00    +0.000 A 
ATOM     24  C   UNL     1      -3.380  11.709  18.543  0.00  0.00    +0.000 A 
ATOM     25  C   UNL     1      -4.317  11.543  17.518  0.00  0.00    +0.000 A 
ATOM     26  C   UNL     1      -3.991  10.832  16.359  0.00  0.00    +0.000 A 
ATOM     27  C   UNL     1      -2.728  10.247  16.193  0.00  0.00    +0.000 A 
ATOM     28  C   UNL     1      -1.815  10.418  17.239  0.00  0.00    +0.000 A 
ATOM     29  N   UNL     1      -0.529   9.977  17.441  0.00  0.00    +0.000 N 
ATOM     30  H   UNL     1      -0.007   9.385  16.809  0.00  0.00    +0.000 HD
ENDBRANCH  20  21
ENDBRANCH   3  20
TORSDOF 5
ENDMDL
MODEL 2
REMARK VINA RESULT:      -8.6      0.718      1.341
REMARK  Name = 
REMARK  5 active torsions:
REMARK  status: ('A' for Active; 'I' for Inactive)
REMARK    1  A    between atoms: C_2  and  C_14
REMARK    2  A    between atoms: N_3  and  C_4
REMARK    3  A    between atoms: C_4  and  C_5
REMARK    4  A    between atoms: C_18  and  S_19
REMARK    5  A    between atoms: S_19  and  N_22
REMARK                            x       y       z     vdW  Elec       q    Type
REMARK                         _______ _______ _______ _____ _____    ______ ____
ROOT
ATOM      1  O   UNL     1       2.656   8.294  18.106  0.00  0.00    +0.000 OA
ATOM      2  C   UNL     1       1.953   7.912  19.028  0.00  0.00    +0.000 C 
ATOM      3  N   UNL     1       1.085   8.729  19.711  0.00  0.00    +0.000 N 
ATOM      4  H   UNL     1       0.533   8.379  20.482  0.00  0.00    +0.000 HD
ENDROOT
BRANCH   2   5
ATOM      5  C   UNL     1       2.073   6.519  19.539  0.00  0.00    +0.000 A 
ATOM      6  C   UNL     1       1.493   6.086  20.733  0.00  0.00    +0.000 A 
ATOM      7  C   UNL     1       1.768   4.797  21.207  0.00  0.00    +0.000 A 
ATOM      8  C   UNL     1       2.612   3.947  20.489  0.00  0.00    +0.000 A 
ATOM      9  C   UNL     1       3.144   4.363  19.269  0.00  0.00    +0.000 A 
ATOM     10  C   UNL     1       2.874   5.649  18.791  0.00  0.00    +0.000 A 
BRANCH   9  11
ATOM     11  S   UNL     1       4.302   3.290  18.426  0.00  0.00    +0.000 S 
ATOM     12  O   UNL     1       5.244   2.829  19.408  0.00  0.00    +0.000 OA
ATOM     13  O   UNL     1       3.500   2.353  17.648  0.00  0.00    +0.000 OA
BRANCH  11  14
ATOM     14  N   UNL     1       5.127   4.309  17.320  0.00  0.00    +0.000 NA
ATOM     15  C   UNL     1       6.472   4.768  17.752  0.00  0.00    +0.000 C 
ATOM     16  C   UNL     1       7.093   5.756  16.775  0.00  0.00    +0.000 C 
ATOM     17  C   UNL     1       7.038   5.242  15.345  0.00  0.00    +0.000 C 
ATOM     18  C   UNL     1       5.597   4.963  14.949  0.00  0.00    +0.000 C 
ATOM     19  C   UNL     1       4.937   3.960  15.886  0.00  0.00    +0.000 C 
ENDBRANCH  11  14
ENDBRANCH   9  11
ENDBRANCH   2   5
BRANCH   3  20
ATOM     20  C   UNL     1       0.997  10.136  19.381  0.00  0.00    +0.000 C 
BRANCH  20  21
ATOM     21  C   UNL     1      -0.306  10.440  18.721  0.00  0.00    +0.000 A 
ATOM     22  N   UNL     1      -1.315  11.110  19.248  0.00  0.00    +0.000 NA
ATOM     23  C   UNL     1      -2.305  11.100  18.295  0.00  0.00    +0.000 A 
ATOM     24  C   UNL     1      -3.597  11.640  18.354  0.00  0.00    +0.000 A 
ATOM     25  C   UNL     1      -4.431  11.504  17.239  0.00  0.00    +0.000 A 
ATOM     26  C   UNL     1      -3.985  10.850  16.087  0.00  0.00    +0.000 A 
ATOM     27  C   UNL     1      -2.700  10.294  16.015  0.00  0.00    +0.000 A 
ATOM     28  C   UNL     1      -1.891  10.434  17.147  0.00  0.00    +0.000 A 
ATOM     29  N   UNL     1      -0.621  10.006  17.450  0.00  0.00    +0.000 N 
ATOM     30  H   UNL     1      -0.030   9.451  16.845  0.00  0.00    +0.000 HD
ENDBRANCH  20  21
ENDBRANCH   3  20
TORSDOF 5
ENDMDL
MODEL 3
REMARK VINA RESULT:      -8.6      1.486      1.858
REMARK  Name = 
REMARK  5 active torsions:
REMARK  status: ('A' for Active; 'I' for Inactive)
REMARK    1  A    between atoms: C_2  and  C_14
REMARK    2  A    between atoms: N_3  and  C_4
REMARK    3  A    between atoms: C_4  and  C_5
REMARK    4  A    between atoms: C_18  and  S_19
REMARK    5  A    between atoms: S_19  and  N_22
REMARK                            x       y       z     vdW  Elec       q    Type
REMARK                         _______ _______ _______ _____ _____    ______ ____
ROOT
ATOM      1  O   UNL     1       1.559   8.468  21.686  0.00  0.00    +0.000 OA
ATOM      2  C   UNL     1       1.602   8.051  20.539  0.00  0.00    +0.000 C 
ATOM      3  N   UNL     1       1.318   8.824  19.439  0.00  0.00    +0.000 N 
ATOM      4  H   UNL     1       1.347   8.437  18.506  0.00  0.00    +0.000 HD
ENDROOT
BRANCH   2   5
ATOM      5  C   UNL     1       1.879   6.613  20.270  0.00  0.00    +0.000 A 
ATOM      6  C   UNL     1       0.984   5.588  20.577  0.00  0.00    +0.000 A 
ATOM      7  C   UNL     1       1.379   4.254  20.415  0.00  0.00    +0.000 A 
ATOM      8  C   UNL     1       2.658   3.950  19.944  0.00  0.00    +0.000 A 
ATOM      9  C   UNL     1       3.530   4.979  19.584  0.00  0.00    +0.000 A 
ATOM     10  C   UNL     1       3.140   6.312  19.745  0.00  0.00    +0.000 A 
BRANCH   9  11
ATOM     11  S   UNL     1       5.195   4.557  19.082  0.00  0.00    +0.000 S 
ATOM     12  O   UNL     1       6.073   5.535  19.663  0.00  0.00    +0.000 OA
ATOM     13  O   UNL     1       5.358   3.136  19.357  0.00  0.00    +0.000 OA
BRANCH  11  14
ATOM     14  N   UNL     1       5.209   4.761  17.379  0.00  0.00    +0.000 NA
ATOM     15  C   UNL     1       5.337   6.162  16.902  0.00  0.00    +0.000 C 
ATOM     16  C   UNL     1       5.228   6.275  15.388  0.00  0.00    +0.000 C 
ATOM     17  C   UNL     1       6.145   5.289  14.683  0.00  0.00    +0.000 C 
ATOM     18  C   UNL     1       5.814   3.870  15.119  0.00  0.00    +0.000 C 
ATOM     19  C   UNL     1       5.932   3.700  16.627  0.00  0.00    +0.000 C 
ENDBRANCH  11  14
ENDBRANCH   9  11
ENDBRANCH   2   5
BRANCH   3  20
ATOM     20  C   UNL     1       0.901  10.201  19.604  0.00  0.00    +0.000 C 
BRANCH  20  21
ATOM     21  C   UNL     1      -0.366  10.459  18.858  0.00  0.00    +0.000 A 
ATOM     22  N   UNL     1      -1.421  11.115  19.308  0.00  0.00    +0.000 NA
ATOM     23  C   UNL     1      -2.350  11.060  18.297  0.00  0.00    +0.000 A 
ATOM     24  C   UNL     1      -3.655  11.570  18.264  0.00  0.00    +0.000 A 
ATOM     25  C   UNL     1      -4.416  11.389  17.105  0.00  0.00    +0.000 A 
ATOM     26  C   UNL     1      -3.885  10.721  15.998  0.00  0.00    +0.000 A 
ATOM     27  C   UNL     1      -2.586  10.195  16.016  0.00  0.00    +0.000 A 
ATOM     28  C   UNL     1      -1.851  10.379  17.192  0.00  0.00    +0.000 A 
ATOM     29  N   UNL     1      -0.592   9.989  17.581  0.00  0.00    +0.000 N 
ATOM     30  H   UNL     1       0.047   9.435  17.026  0.00  0.00    +0.000 HD
ENDBRANCH  20  21
ENDBRANCH   3  20
TORSDOF 5
ENDMDL
MODEL 4
REMARK VINA RESULT:      -8.5      1.063      1.339
REMARK  Name = 
REMARK  5 active torsions:
REMARK  status: ('A' for Active; 'I' for Inactive)
REMARK    1  A    between atoms: C_2  and  C_14
REMARK    2  A    between atoms: N_3  and  C_4
REMARK    3  A    between atoms: C_4  and  C_5
REMARK    4  A    between atoms: C_18  and  S_19
REMARK    5  A    between atoms: S_19  and  N_22
REMARK                            x       y       z     vdW  Elec       q    Type
REMARK                         _______ _______ _______ _____ _____    ______ ____
ROOT
ATOM      1  O   UNL     1       1.463   8.371  21.436  0.00  0.00    +0.000 OA
ATOM      2  C   UNL     1       1.702   7.894  20.338  0.00  0.00    +0.000 C 
ATOM      3  N   UNL     1       1.753   8.636  19.182  0.00  0.00    +0.000 N 
ATOM      4  H   UNL     1       1.936   8.200  18.288  0.00  0.00    +0.000 HD
ENDROOT
BRANCH   2   5
ATOM      5  C   UNL     1       1.861   6.423  20.174  0.00  0.00    +0.000 A 
ATOM      6  C   UNL     1       1.005   5.488  20.758  0.00  0.00    +0.000 A 
ATOM      7  C   UNL     1       1.305   4.123  20.664  0.00  0.00    +0.000 A 
ATOM      8  C   UNL     1       2.450   3.698  19.985  0.00  0.00    +0.000 A 
ATOM      9  C   UNL     1       3.271   4.632  19.355  0.00  0.00    +0.000 A 
ATOM     10  C   UNL     1       2.977   5.995  19.446  0.00  0.00    +0.000 A 
BRANCH   9  11
ATOM     11  S   UNL     1       4.783   4.064  18.583  0.00  0.00    +0.000 S 
ATOM     12  O   UNL     1       5.422   3.170  19.509  0.00  0.00    +0.000 OA
ATOM     13  O   UNL     1       4.418   3.628  17.240  0.00  0.00    +0.000 OA
BRANCH  11  14
ATOM     14  N   UNL     1       5.755   5.468  18.425  0.00  0.00    +0.000 NA
ATOM     15  C   UNL     1       7.185   5.301  18.790  0.00  0.00    +0.000 C 
ATOM     16  C   UNL     1       7.958   6.611  18.735  0.00  0.00    +0.000 C 
ATOM     17  C   UNL     1       7.730   7.343  17.422  0.00  0.00    +0.000 C 
ATOM     18  C   UNL     1       6.246   7.612  17.230  0.00  0.00    +0.000 C 
ATOM     19  C   UNL     1       5.431   6.326  17.255  0.00  0.00    +0.000 C 
ENDBRANCH  11  14
ENDBRANCH   9  11
ENDBRANCH   2   5
BRANCH   3  20
ATOM     20  C   UNL     1       1.474  10.056  19.215  0.00  0.00    +0.000 C 
BRANCH  20  21
ATOM     21  C   UNL     1       0.110  10.336  18.678  0.00  0.00    +0.000 A 
ATOM     22  N   UNL     1      -0.803  11.118  19.226  0.00  0.00    +0.000 NA
ATOM     23  C   UNL     1      -1.903  11.034  18.406  0.00  0.00    +0.000 A 
ATOM     24  C   UNL     1      -3.158  11.640  18.544  0.00  0.00    +0.000 A 
ATOM     25  C   UNL     1      -4.128  11.403  17.564  0.00  0.00    +0.000 A 
ATOM     26  C   UNL     1      -3.849  10.584  16.466  0.00  0.00    +0.000 A 
ATOM     27  C   UNL     1      -2.602   9.960  16.318  0.00  0.00    +0.000 A 
ATOM     28  C   UNL     1      -1.656  10.205  17.318  0.00  0.00    +0.000 A 
ATOM     29  N   UNL     1      -0.373   9.757  17.523  0.00  0.00    +0.000 N 
ATOM     30  H   UNL     1       0.119   9.100  16.933  0.00  0.00    +0.000 HD
ENDBRANCH  20  21
ENDBRANCH   3  20
TORSDOF 5
ENDMDL
MODEL 5
REMARK VINA RESULT:      -8.4      1.203      2.101
REMARK  Name = 
REMARK  5 active torsions:
REMARK  status: ('A' for Active; 'I' for Inactive)
REMARK    1  A    between atoms: C_2  and  C_14
REMARK    2  A    between atoms: N_3  and  C_4
REMARK    3  A    between atoms: C_4  and  C_5
REMARK    4  A    between atoms: C_18  and  S_19
REMARK    5  A    between atoms: S_19  and  N_22
REMARK                            x       y       z     vdW  Elec       q    Type
REMARK                         _______ _______ _______ _____ _____    ______ ____
ROOT
ATOM      1  O   UNL     1       2.552   8.642  17.478  0.00  0.00    +0.000 OA
ATOM      2  C   UNL     1       2.027   8.320  18.532  0.00  0.00    +0.000 C 
ATOM      3  N   UNL     1       1.216   9.155  19.263  0.00  0.00    +0.000 N 
ATOM      4  H   UNL     1       0.815   8.857  20.143  0.00  0.00    +0.000 HD
ENDROOT
BRANCH   2   5
ATOM      5  C   UNL     1       2.325   6.998  19.150  0.00  0.00    +0.000 A 
ATOM      6  C   UNL     1       1.506   6.394  20.105  0.00  0.00    +0.000 A 
ATOM      7  C   UNL     1       1.929   5.215  20.732  0.00  0.00    +0.000 A 
ATOM      8  C   UNL     1       3.159   4.644  20.401  0.00  0.00    +0.000 A 
ATOM      9  C   UNL     1       3.949   5.220  19.406  0.00  0.00    +0.000 A 
ATOM     10  C   UNL     1       3.532   6.396  18.777  0.00  0.00    +0.000 A 
BRANCH   9  11
ATOM     11  S   UNL     1       5.564   4.520  19.078  0.00  0.00    +0.000 S 
ATOM     12  O   UNL     1       6.528   5.352  19.743  0.00  0.00    +0.000 OA
ATOM     13  O   UNL     1       5.461   3.097  19.374  0.00  0.00    +0.000 OA
BRANCH  11  14
ATOM     14  N   UNL     1       5.783   4.684  17.385  0.00  0.00    +0.000 NA
ATOM     15  C   UNL     1       7.194   4.721  16.922  0.00  0.00    +0.000 C 
ATOM     16  C   UNL     1       7.310   4.981  15.427  0.00  0.00    +0.000 C 
ATOM     17  C   UNL     1       6.413   4.053  14.623  0.00  0.00    +0.000 C 
ATOM     18  C   UNL     1       4.967   4.220  15.064  0.00  0.00    +0.000 C 
ATOM     19  C   UNL     1       4.795   3.947  16.552  0.00  0.00    +0.000 C 
ENDBRANCH  11  14
ENDBRANCH   9  11
ENDBRANCH   2   5
BRANCH   3  20
ATOM     20  C   UNL     1       0.977  10.511  18.819  0.00  0.00    +0.000 C 
BRANCH  20  21
ATOM     21  C   UNL     1      -0.477  10.732  18.564  0.00  0.00    +0.000 A 
ATOM     22  N   UNL     1      -1.185  10.226  17.570  0.00  0.00    +0.000 NA
ATOM     23  C   UNL     1      -2.452  10.736  17.720  0.00  0.00    +0.000 A 
ATOM     24  C   UNL     1      -3.585  10.546  16.917  0.00  0.00    +0.000 A 
ATOM     25  C   UNL     1      -4.779  11.177  17.282  0.00  0.00    +0.000 A 
ATOM     26  C   UNL     1      -4.844  11.974  18.428  0.00  0.00    +0.000 A 
ATOM     27  C   UNL     1      -3.719  12.185  19.237  0.00  0.00    +0.000 A 
ATOM     28  C   UNL     1      -2.536  11.553  18.842  0.00  0.00    +0.000 A 
ATOM     29  N   UNL     1      -1.260  11.550  19.353  0.00  0.00    +0.000 N 
ATOM     30  H   UNL     1      -0.951  12.075  20.160  0.00  0.00    +0.000 HD
ENDBRANCH  20  21
ENDBRANCH   3  20
TORSDOF 5
ENDMDL
MODEL 6
REMARK VINA RESULT:      -8.4      1.159      1.621
REMARK  Name = 
REMARK  5 active torsions:
REMARK  status: ('A' for Active; 'I' for Inactive)
REMARK    1  A    between atoms: C_2  and  C_14
REMARK    2  A    between atoms: N_3  and  C_4
REMARK    3  A    between atoms: C_4  and  C_5
REMARK    4  A    between atoms: C_18  and  S_19
REMARK    5  A    between atoms: S_19  and  N_22
REMARK                            x       y       z     vdW  Elec       q    Type
REMARK                         _______ _______ _______ _____ _____    ______ ____
ROOT
ATOM      1  O   UNL     1       1.768   8.346  20.684  0.00  0.00    +0.000 OA
ATOM      2  C   UNL     1       1.995   7.637  19.716  0.00  0.00    +0.000 C 
ATOM      3  N   UNL     1       2.221   8.127  18.452  0.00  0.00    +0.000 N 
ATOM      4  H   UNL     1       2.388   7.506  17.672  0.00  0.00    +0.000 HD
ENDROOT
BRANCH   2   5
ATOM      5  C   UNL     1       1.941   6.154  19.838  0.00  0.00    +0.000 A 
ATOM      6  C   UNL     1       1.006   5.482  20.627  0.00  0.00    +0.000 A 
ATOM      7  C   UNL     1       1.111   4.095  20.791  0.00  0.00    +0.000 A 
ATOM      8  C   UNL     1       2.141   3.387  20.167  0.00  0.00    +0.000 A 
ATOM      9  C   UNL     1       3.039   4.055  19.335  0.00  0.00    +0.000 A 
ATOM     10  C   UNL     1       2.939   5.439  19.168  0.00  0.00    +0.000 A 
BRANCH   9  11
ATOM     11  S   UNL     1       4.405   3.136  18.633  0.00  0.00    +0.000 S 
ATOM     12  O   UNL     1       5.302   2.821  19.711  0.00  0.00    +0.000 OA
ATOM     13  O   UNL     1       3.815   2.089  17.810  0.00  0.00    +0.000 OA
BRANCH  11  14
ATOM     14  N   UNL     1       5.190   4.242  17.582  0.00  0.00    +0.000 NA
ATOM     15  C   UNL     1       6.559   4.649  17.987  0.00  0.00    +0.000 C 
ATOM     16  C   UNL     1       7.145   5.714  17.072  0.00  0.00    +0.000 C 
ATOM     17  C   UNL     1       7.016   5.330  15.606  0.00  0.00    +0.000 C 
ATOM     18  C   UNL     1       5.554   5.098  15.258  0.00  0.00    +0.000 C 
ATOM     19  C   UNL     1       4.927   4.022  16.134  0.00  0.00    +0.000 C 
ENDBRANCH  11  14
ENDBRANCH   9  11
ENDBRANCH   2   5
BRANCH   3  20
ATOM     20  C   UNL     1       2.156   9.551  18.201  0.00  0.00    +0.000 C 
BRANCH  20  21
ATOM     21  C   UNL     1       0.739  10.020  18.195  0.00  0.00    +0.000 A 
ATOM     22  N   UNL     1       0.224  10.969  18.956  0.00  0.00    +0.000 NA
ATOM     23  C   UNL     1      -1.111  11.020  18.633  0.00  0.00    +0.000 A 
ATOM     24  C   UNL     1      -2.121  11.829  19.168  0.00  0.00    +0.000 A 
ATOM     25  C   UNL     1      -3.420  11.699  18.666  0.00  0.00    +0.000 A 
ATOM     26  C   UNL     1      -3.704  10.786  17.646  0.00  0.00    +0.000 A 
ATOM     27  C   UNL     1      -2.708   9.960  17.107  0.00  0.00    +0.000 A 
ATOM     28  C   UNL     1      -1.421  10.103  17.636  0.00  0.00    +0.000 A 
ATOM     29  N   UNL     1      -0.230   9.464  17.386  0.00  0.00    +0.000 N 
ATOM     30  H   UNL     1      -0.099   8.704  16.732  0.00  0.00    +0.000 HD
ENDBRANCH  20  21
ENDBRANCH   3  20
TORSDOF 5
ENDMDL
MODEL 7
REMARK VINA RESULT:      -8.4      1.470      2.166
REMARK  Name = 
REMARK  5 active torsions:
REMARK  status: ('A' for Active; 'I' for Inactive)
REMARK    1  A    between atoms: C_2  and  C_14
REMARK    2  A    between atoms: N_3  and  C_4
REMARK    3  A    between atoms: C_4  and  C_5
REMARK    4  A    between atoms: C_18  and  S_19
REMARK    5  A    between atoms: S_19  and  N_22
REMARK                            x       y       z     vdW  Elec       q    Type
REMARK                         _______ _______ _______ _____ _____    ______ ____
ROOT
ATOM      1  O   UNL     1       1.319   8.398  21.656  0.00  0.00    +0.000 OA
ATOM      2  C   UNL     1       1.530   7.980  20.529  0.00  0.00    +0.000 C 
ATOM      3  N   UNL     1       1.399   8.749  19.397  0.00  0.00    +0.000 N 
ATOM      4  H   UNL     1       1.565   8.361  18.478  0.00  0.00    +0.000 HD
ENDROOT
BRANCH   2   5
ATOM      5  C   UNL     1       1.856   6.545  20.305  0.00  0.00    +0.000 A 
ATOM      6  C   UNL     1       1.015   5.497  20.685  0.00  0.00    +0.000 A 
ATOM      7  C   UNL     1       1.459   4.175  20.560  0.00  0.00    +0.000 A 
ATOM      8  C   UNL     1       2.732   3.904  20.053  0.00  0.00    +0.000 A 
ATOM      9  C   UNL     1       3.547   4.951  19.622  0.00  0.00    +0.000 A 
ATOM     10  C   UNL     1       3.109   6.272  19.745  0.00  0.00    +0.000 A 
BRANCH   9  11
ATOM     11  S   UNL     1       5.209   4.576  19.074  0.00  0.00    +0.000 S 
ATOM     12  O   UNL     1       6.080   5.553  19.665  0.00  0.00    +0.000 OA
ATOM     13  O   UNL     1       5.404   3.150  19.304  0.00  0.00    +0.000 OA
BRANCH  11  14
ATOM     14  N   UNL     1       5.184   4.828  17.378  0.00  0.00    +0.000 NA
ATOM     15  C   UNL     1       5.417   6.226  16.934  0.00  0.00    +0.000 C 
ATOM     16  C   UNL     1       5.268   6.393  15.429  0.00  0.00    +0.000 C 
ATOM     17  C   UNL     1       6.072   5.353  14.665  0.00  0.00    +0.000 C 
ATOM     18  C   UNL     1       5.634   3.956  15.074  0.00  0.00    +0.000 C 
ATOM     19  C   UNL     1       5.787   3.732  16.573  0.00  0.00    +0.000 C 
ENDBRANCH  11  14
ENDBRANCH   9  11
ENDBRANCH   2   5
BRANCH   3  20
ATOM     20  C   UNL     1       0.950  10.122  19.497  0.00  0.00    +0.000 C 
BRANCH  20  21
ATOM     21  C   UNL     1      -0.331  10.311  18.756  0.00  0.00    +0.000 A 
ATOM     22  N   UNL     1      -0.618   9.843  17.554  0.00  0.00    +0.000 NA
ATOM     23  C   UNL     1      -1.882  10.303  17.270  0.00  0.00    +0.000 A 
ATOM     24  C   UNL     1      -2.649  10.126  16.111  0.00  0.00    +0.000 A 
ATOM     25  C   UNL     1      -3.926  10.695  16.059  0.00  0.00    +0.000 A 
ATOM     26  C   UNL     1      -4.430  11.420  17.143  0.00  0.00    +0.000 A 
ATOM     27  C   UNL     1      -3.672  11.617  18.305  0.00  0.00    +0.000 A 
ATOM     28  C   UNL     1      -2.395  11.048  18.326  0.00  0.00    +0.000 A 
ATOM     29  N   UNL     1      -1.381  11.055  19.253  0.00  0.00    +0.000 N 
ATOM     30  H   UNL     1      -1.402  11.540  20.141  0.00  0.00    +0.000 HD
ENDBRANCH  20  21
ENDBRANCH   3  20
TORSDOF 5
ENDMDL
MODEL 8
REMARK VINA RESULT:      -8.3      1.961      3.577
REMARK  Name = 
REMARK  5 active torsions:
REMARK  status: ('A' for Active; 'I' for Inactive)
REMARK    1  A    between atoms: C_2  and  C_14
REMARK    2  A    between atoms: N_3  and  C_4
REMARK    3  A    between atoms: C_4  and  C_5
REMARK    4  A    between atoms: C_18  and  S_19
REMARK    5  A    between atoms: S_19  and  N_22
REMARK                            x       y       z     vdW  Elec       q    Type
REMARK                         _______ _______ _______ _____ _____    ______ ____
ROOT
ATOM      1  O   UNL     1       2.388   9.999  17.495  0.00  0.00    +0.000 OA
ATOM      2  C   UNL     1       2.209   8.998  18.171  0.00  0.00    +0.000 C 
ATOM      3  N   UNL     1       1.368   8.957  19.257  0.00  0.00    +0.000 N 
ATOM      4  H   UNL     1       1.260   8.113  19.804  0.00  0.00    +0.000 HD
ENDROOT
BRANCH   2   5
ATOM      5  C   UNL     1       2.988   7.758  17.905  0.00  0.00    +0.000 A 
ATOM      6  C   UNL     1       4.334   7.762  17.531  0.00  0.00    +0.000 A 
ATOM      7  C   UNL     1       4.953   6.559  17.169  0.00  0.00    +0.000 A 
ATOM      8  C   UNL     1       4.233   5.362  17.186  0.00  0.00    +0.000 A 
ATOM      9  C   UNL     1       2.906   5.355  17.615  0.00  0.00    +0.000 A 
ATOM     10  C   UNL     1       2.282   6.553  17.976  0.00  0.00    +0.000 A 
BRANCH   9  11
ATOM     11  S   UNL     1       1.983   3.824  17.527  0.00  0.00    +0.000 S 
ATOM     12  O   UNL     1       0.614   4.169  17.263  0.00  0.00    +0.000 OA
ATOM     13  O   UNL     1       2.729   2.947  16.633  0.00  0.00    +0.000 OA
BRANCH  11  14
ATOM     14  N   UNL     1       2.080   3.158  19.105  0.00  0.00    +0.000 NA
ATOM     15  C   UNL     1       3.447   3.064  19.678  0.00  0.00    +0.000 C 
ATOM     16  C   UNL     1       3.466   2.361  21.028  0.00  0.00    +0.000 C 
ATOM     17  C   UNL     1       2.429   2.940  21.978  0.00  0.00    +0.000 C 
ATOM     18  C   UNL     1       1.044   2.832  21.361  0.00  0.00    +0.000 C 
ATOM     19  C   UNL     1       0.967   3.540  20.015  0.00  0.00    +0.000 C 
ENDBRANCH  11  14
ENDBRANCH   9  11
ENDBRANCH   2   5
BRANCH   3  20
ATOM     20  C   UNL     1       0.669  10.151  19.683  0.00  0.00    +0.000 C 
BRANCH  20  21
ATOM     21  C   UNL     1      -0.542  10.380  18.841  0.00  0.00    +0.000 A 
ATOM     22  N   UNL     1      -1.628  11.044  19.194  0.00  0.00    +0.000 NA
ATOM     23  C   UNL     1      -2.482  10.954  18.121  0.00  0.00    +0.000 A 
ATOM     24  C   UNL     1      -3.783  11.456  17.979  0.00  0.00    +0.000 A 
ATOM     25  C   UNL     1      -4.458  11.237  16.774  0.00  0.00    +0.000 A 
ATOM     26  C   UNL     1      -3.847  10.538  15.729  0.00  0.00    +0.000 A 
ATOM     27  C   UNL     1      -2.551  10.020  15.857  0.00  0.00    +0.000 A 
ATOM     28  C   UNL     1      -1.903  10.242  17.076  0.00  0.00    +0.000 A 
ATOM     29  N   UNL     1      -0.674   9.871  17.566  0.00  0.00    +0.000 N 
ATOM     30  H   UNL     1       0.005   9.304  17.075  0.00  0.00    +0.000 HD
ENDBRANCH  20  21
ENDBRANCH   3  20
TORSDOF 5
ENDMDL
MODEL 9
REMARK VINA RESULT:      -8.3      1.266      1.362
REMARK  Name = 
REMARK  5 active torsions:
REMARK  status: ('A' for Active; 'I' for Inactive)
REMARK    1  A    between atoms: C_2  and  C_14
REMARK    2  A    between atoms: N_3  and  C_4
REMARK    3  A    between atoms: C_4  and  C_5
REMARK    4  A    between atoms: C_18  and  S_19
REMARK    5  A    between atoms: S_19  and  N_22
REMARK                            x       y       z     vdW  Elec       q    Type
REMARK                         _______ _______ _______ _____ _____    ______ ____
ROOT
ATOM      1  O   UNL     1       1.853   8.406  20.636  0.00  0.00    +0.000 OA
ATOM      2  C   UNL     1       2.040   7.683  19.671  0.00  0.00    +0.000 C 
ATOM      3  N   UNL     1       2.192   8.152  18.388  0.00  0.00    +0.000 N 
ATOM      4  H   UNL     1       2.326   7.518  17.612  0.00  0.00    +0.000 HD
ENDROOT
BRANCH   2   5
ATOM      5  C   UNL     1       2.017   6.202  19.823  0.00  0.00    +0.000 A 
ATOM      6  C   UNL     1       1.618   5.556  20.995  0.00  0.00    +0.000 A 
ATOM      7  C   UNL     1       1.756   4.166  21.099  0.00  0.00    +0.000 A 
ATOM      8  C   UNL     1       2.282   3.429  20.036  0.00  0.00    +0.000 A 
ATOM      9  C   UNL     1       2.626   4.071  18.846  0.00  0.00    +0.000 A 
ATOM     10  C   UNL     1       2.492   5.458  18.738  0.00  0.00    +0.000 A 
BRANCH   9  11
ATOM     11  S   UNL     1       3.391   3.113  17.543  0.00  0.00    +0.000 S 
ATOM     12  O   UNL     1       3.659   1.807  18.079  0.00  0.00    +0.000 OA
ATOM     13  O   UNL     1       2.557   3.289  16.361  0.00  0.00    +0.000 OA
BRANCH  11  14
ATOM     14  N   UNL     1       4.889   3.892  17.241  0.00  0.00    +0.000 NA
ATOM     15  C   UNL     1       4.928   4.760  16.036  0.00  0.00    +0.000 C 
ATOM     16  C   UNL     1       6.316   5.325  15.770  0.00  0.00    +0.000 C 
ATOM     17  C   UNL     1       6.914   5.959  17.015  0.00  0.00    +0.000 C 
ATOM     18  C   UNL     1       6.981   4.934  18.137  0.00  0.00    +0.000 C 
ATOM     19  C   UNL     1       5.610   4.354  18.456  0.00  0.00    +0.000 C 
ENDBRANCH  11  14
ENDBRANCH   9  11
ENDBRANCH   2   5
BRANCH   3  20
ATOM     20  C   UNL     1       2.090   9.570  18.114  0.00  0.00    +0.000 C 
BRANCH  20  21
ATOM     21  C   UNL     1       0.662  10.004  18.116  0.00  0.00    +0.000 A 
ATOM     22  N   UNL     1       0.131  10.948  18.872  0.00  0.00    +0.000 NA
ATOM     23  C   UNL     1      -1.207  10.965  18.559  0.00  0.00    +0.000 A 
ATOM     24  C   UNL     1      -2.233  11.755  19.094  0.00  0.00    +0.000 A 
ATOM     25  C   UNL     1      -3.532  11.589  18.604  0.00  0.00    +0.000 A 
ATOM     26  C   UNL     1      -3.803  10.659  17.596  0.00  0.00    +0.000 A 
ATOM     27  C   UNL     1      -2.791   9.852  17.057  0.00  0.00    +0.000 A 
ATOM     28  C   UNL     1      -1.504  10.030  17.573  0.00  0.00    +0.000 A 
ATOM     29  N   UNL     1      -0.300   9.418  17.321  0.00  0.00    +0.000 N 
ATOM     30  H   UNL     1      -0.156   8.654  16.673  0.00  0.00    +0.000 HD
ENDBRANCH  20  21
ENDBRANCH   3  20
TORSDOF 5
ENDMDL
