MODEL 1
REMARK VINA RESULT:      -6.7      0.000      0.000
REMARK  Name = 
REMARK  13 active torsions:
REMARK  status: ('A' for Active; 'I' for Inactive)
REMARK    1  A    between atoms: C_1  and  C_2
REMARK    2  A    between atoms: C_2  and  C_3
REMARK    3  A    between atoms: C_3  and  C_4
REMARK    4  A    between atoms: C_3  and  N_5
REMARK    5  A    between atoms: N_5  and  C_6
REMARK    6  A    between atoms: C_6  and  C_7
REMARK    7  A    between atoms: C_7  and  C_8
REMARK    8  A    between atoms: N_10  and  C_11
REMARK    9  A    between atoms: C_15  and  C_16
REMARK   10  A    between atoms: N_27  and  C_28
REMARK   11  A    between atoms: N_27  and  C_29
REMARK   12  A    between atoms: C_29  and  C_30
REMARK   13  A    between atoms: C_29  and  C_31
REMARK                            x       y       z     vdW  Elec       q    Type
REMARK                         _______ _______ _______ _____ _____    ______ ____
ROOT
ATOM      1  C   UNL     1       1.984   6.971  20.485  0.00  0.00    +0.000 A 
ATOM      2  S   UNL     1       0.905   7.989  21.310  0.00  0.00    +0.000 S 
ATOM      3  C   UNL     1       0.980   9.138  20.089  0.00  0.00    +0.000 A 
ATOM      4  C   UNL     1       1.891   8.832  19.090  0.00  0.00    +0.000 A 
ATOM      5  C   UNL     1       2.533   7.547  19.342  0.00  0.00    +0.000 A 
ATOM      6  C   UNL     1       2.038   9.773  17.924  0.00  0.00    +0.000 C 
ATOM      7  C   UNL     1       1.331  11.142  18.171  0.00  0.00    +0.000 C 
ATOM      8  N   UNL     1      -0.103  11.012  18.812  0.00  0.00    +0.000 N 
ATOM      9  C   UNL     1      -0.660  12.406  19.104  0.00  0.00    +0.000 C 
ATOM     10  C   UNL     1       0.123  10.344  20.186  0.00  0.00    +0.000 C 
ENDROOT
BRANCH   5  11
ATOM     11  C   UNL     1       3.573   6.838  18.458  0.00  0.00    +0.000 A 
ATOM     12  N   UNL     1       3.724   7.070  17.165  0.00  0.00    +0.000 NA
ATOM     13  C   UNL     1       4.726   6.233  16.632  0.00  0.00    +0.000 A 
ATOM     14  C   UNL     1       5.177   6.171  15.295  0.00  0.00    +0.000 A 
ATOM     15  C   UNL     1       6.180   5.260  14.921  0.00  0.00    +0.000 A 
ATOM     16  C   UNL     1       6.749   4.404  15.861  0.00  0.00    +0.000 A 
ATOM     17  C   UNL     1       6.331   4.447  17.193  0.00  0.00    +0.000 A 
ATOM     18  C   UNL     1       5.325   5.366  17.548  0.00  0.00    +0.000 A 
ATOM     19  S   UNL     1       4.641   5.633  19.080  0.00  0.00    +0.000 S 
ENDBRANCH   5  11
BRANCH   1  22
ATOM     20  C   UNL     1       1.487   4.650  20.910  0.00  0.00    +0.000 C 
ATOM     21  O   UNL     1       0.525   4.584  20.146  0.00  0.00    +0.000 OA
ATOM     22  N   UNL     1       2.246   5.788  21.143  0.00  0.00    +0.000 N 
ATOM     23  H   UNL     1       3.183   5.632  21.514  0.00  0.00    +0.000 HD
BRANCH  20  24
ATOM     24  C   UNL     1       1.893   3.434  21.723  0.00  0.00    +0.000 C 
BRANCH  24  25
ATOM     25  C   UNL     1       2.381   2.237  20.908  0.00  0.00    +0.000 C 
BRANCH  25  26
ATOM     26  N   UNL     1       1.935   2.230  19.502  0.00  0.00    +0.000 NA
ATOM     27  H   UNL     1       1.149   1.578  19.415  0.00  0.00    +0.000 HD
BRANCH  26  28
ATOM     28  C   UNL     1       2.976   1.825  18.530  0.00  0.00    +0.000 C 
ATOM     29  C   UNL     1       4.325   1.855  19.260  0.00  0.00    +0.000 C 
BRANCH  28  31
ATOM     30  C   UNL     1       1.920   3.837  17.341  0.00  0.00    +0.000 C 
ATOM     31  C   UNL     1       2.965   2.733  17.288  0.00  0.00    +0.000 C 
ENDBRANCH  28  31
ENDBRANCH  26  28
ENDBRANCH  25  26
ENDBRANCH  24  25
ENDBRANCH  20  24
ENDBRANCH   1  22
BRANCH   8  32
ATOM     32  C   UNL     1      -1.075  10.169  17.913  0.00  0.00    +0.000 C 
ATOM     33  C   UNL     1      -2.240   9.553  18.700  0.00  0.00    +0.000 C 
ATOM     34  C   UNL     1      -1.645  11.011  16.763  0.00  0.00    +0.000 C 
ENDBRANCH   8  32
TORSDOF 8
ENDMDL
MODEL 2
REMARK VINA RESULT:      -6.7      0.791      1.172
REMARK  Name = 
REMARK  13 active torsions:
REMARK  status: ('A' for Active; 'I' for Inactive)
REMARK    1  A    between atoms: C_1  and  C_2
REMARK    2  A    between atoms: C_2  and  C_3
REMARK    3  A    between atoms: C_3  and  C_4
REMARK    4  A    between atoms: C_3  and  N_5
REMARK    5  A    between atoms: N_5  and  C_6
REMARK    6  A    between atoms: C_6  and  C_7
REMARK    7  A    between atoms: C_7  and  C_8
REMARK    8  A    between atoms: N_10  and  C_11
REMARK    9  A    between atoms: C_15  and  C_16
REMARK   10  A    between atoms: N_27  and  C_28
REMARK   11  A    between atoms: N_27  and  C_29
REMARK   12  A    between atoms: C_29  and  C_30
REMARK   13  A    between atoms: C_29  and  C_31
REMARK                            x       y       z     vdW  Elec       q    Type
REMARK                         _______ _______ _______ _____ _____    ______ ____
ROOT
ATOM      1  C   UNL     1       1.688   7.074  20.608  0.00  0.00    +0.000 A 
ATOM      2  S   UNL     1       0.568   8.082  21.390  0.00  0.00    +0.000 S 
ATOM      3  C   UNL     1       0.689   9.237  20.180  0.00  0.00    +0.000 A 
ATOM      4  C   UNL     1       1.645   8.942  19.220  0.00  0.00    +0.000 A 
ATOM      5  C   UNL     1       2.283   7.659  19.493  0.00  0.00    +0.000 A 
ATOM      6  C   UNL     1       1.837   9.890  18.065  0.00  0.00    +0.000 C 
ATOM      7  C   UNL     1       1.113  11.253  18.288  0.00  0.00    +0.000 C 
ATOM      8  N   UNL     1      -0.347  11.112  18.865  0.00  0.00    +0.000 N 
ATOM      9  C   UNL     1      -0.925  12.501  19.139  0.00  0.00    +0.000 C 
ATOM     10  C   UNL     1      -0.178  10.438  20.244  0.00  0.00    +0.000 C 
ENDROOT
BRANCH   5  11
ATOM     11  C   UNL     1       3.364   6.960  18.652  0.00  0.00    +0.000 A 
ATOM     12  N   UNL     1       4.262   6.125  19.148  0.00  0.00    +0.000 NA
ATOM     13  C   UNL     1       5.136   5.688  18.133  0.00  0.00    +0.000 A 
ATOM     14  C   UNL     1       6.228   4.801  18.258  0.00  0.00    +0.000 A 
ATOM     15  C   UNL     1       7.020   4.480  17.141  0.00  0.00    +0.000 A 
ATOM     16  C   UNL     1       6.740   5.027  15.891  0.00  0.00    +0.000 A 
ATOM     17  C   UNL     1       5.662   5.900  15.732  0.00  0.00    +0.000 A 
ATOM     18  C   UNL     1       4.882   6.210  16.863  0.00  0.00    +0.000 A 
ATOM     19  S   UNL     1       3.523   7.225  16.954  0.00  0.00    +0.000 S 
ENDBRANCH   5  11
BRANCH   1  22
ATOM     20  C   UNL     1       1.424   4.685  20.801  0.00  0.00    +0.000 C 
ATOM     21  O   UNL     1       0.719   4.554  19.801  0.00  0.00    +0.000 OA
ATOM     22  N   UNL     1       1.928   5.889  21.272  0.00  0.00    +0.000 N 
ATOM     23  H   UNL     1       2.744   5.826  21.879  0.00  0.00    +0.000 HD
BRANCH  20  24
ATOM     24  C   UNL     1       1.764   3.475  21.652  0.00  0.00    +0.000 C 
BRANCH  24  25
ATOM     25  C   UNL     1       2.683   2.449  20.990  0.00  0.00    +0.000 C 
BRANCH  25  26
ATOM     26  N   UNL     1       2.329   2.118  19.596  0.00  0.00    +0.000 NA
ATOM     27  H   UNL     1       1.616   1.383  19.609  0.00  0.00    +0.000 HD
BRANCH  26  28
ATOM     28  C   UNL     1       3.464   1.642  18.772  0.00  0.00    +0.000 C 
ATOM     29  C   UNL     1       4.735   1.769  19.619  0.00  0.00    +0.000 C 
BRANCH  28  31
ATOM     30  C   UNL     1       2.429   3.416  17.235  0.00  0.00    +0.000 C 
ATOM     31  C   UNL     1       3.562   2.424  17.451  0.00  0.00    +0.000 C 
ENDBRANCH  28  31
ENDBRANCH  26  28
ENDBRANCH  25  26
ENDBRANCH  24  25
ENDBRANCH  20  24
ENDBRANCH   1  22
BRANCH   8  32
ATOM     32  C   UNL     1      -1.275  10.268  17.920  0.00  0.00    +0.000 C 
ATOM     33  C   UNL     1      -2.428   9.582  18.665  0.00  0.00    +0.000 C 
ATOM     34  C   UNL     1      -1.857  11.130  16.793  0.00  0.00    +0.000 C 
ENDBRANCH   8  32
TORSDOF 8
ENDMDL
MODEL 3
REMARK VINA RESULT:      -6.5      1.013      1.110
REMARK  Name = 
REMARK  13 active torsions:
REMARK  status: ('A' for Active; 'I' for Inactive)
REMARK    1  A    between atoms: C_1  and  C_2
REMARK    2  A    between atoms: C_2  and  C_3
REMARK    3  A    between atoms: C_3  and  C_4
REMARK    4  A    between atoms: C_3  and  N_5
REMARK    5  A    between atoms: N_5  and  C_6
REMARK    6  A    between atoms: C_6  and  C_7
REMARK    7  A    between atoms: C_7  and  C_8
REMARK    8  A    between atoms: N_10  and  C_11
REMARK    9  A    between atoms: C_15  and  C_16
REMARK   10  A    between atoms: N_27  and  C_28
REMARK   11  A    between atoms: N_27  and  C_29
REMARK   12  A    between atoms: C_29  and  C_30
REMARK   13  A    between atoms: C_29  and  C_31
REMARK                            x       y       z     vdW  Elec       q    Type
REMARK                         _______ _______ _______ _____ _____    ______ ____
ROOT
ATOM      1  C   UNL     1       2.026   6.922  20.373  0.00  0.00    +0.000 A 
ATOM      2  S   UNL     1       1.002   7.950  21.254  0.00  0.00    +0.000 S 
ATOM      3  C   UNL     1       0.978   9.073  20.008  0.00  0.00    +0.000 A 
ATOM      4  C   UNL     1       1.816   8.752  18.951  0.00  0.00    +0.000 A 
ATOM      5  C   UNL     1       2.485   7.477  19.182  0.00  0.00    +0.000 A 
ATOM      6  C   UNL     1       1.870   9.669  17.758  0.00  0.00    +0.000 C 
ATOM      7  C   UNL     1       1.173  11.038  18.028  0.00  0.00    +0.000 C 
ATOM      8  N   UNL     1      -0.209  10.914  18.775  0.00  0.00    +0.000 N 
ATOM      9  C   UNL     1      -0.754  12.310  19.077  0.00  0.00    +0.000 C 
ATOM     10  C   UNL     1       0.121  10.276  20.142  0.00  0.00    +0.000 C 
ENDROOT
BRANCH   5  11
ATOM     11  C   UNL     1       3.463   6.755  18.238  0.00  0.00    +0.000 A 
ATOM     12  N   UNL     1       3.283   5.526  17.788  0.00  0.00    +0.000 NA
ATOM     13  C   UNL     1       4.372   5.136  16.982  0.00  0.00    +0.000 A 
ATOM     14  C   UNL     1       4.559   3.900  16.324  0.00  0.00    +0.000 A 
ATOM     15  C   UNL     1       5.721   3.662  15.568  0.00  0.00    +0.000 A 
ATOM     16  C   UNL     1       6.705   4.640  15.451  0.00  0.00    +0.000 A 
ATOM     17  C   UNL     1       6.545   5.876  16.082  0.00  0.00    +0.000 A 
ATOM     18  C   UNL     1       5.376   6.095  16.835  0.00  0.00    +0.000 A 
ATOM     19  S   UNL     1       4.924   7.491  17.691  0.00  0.00    +0.000 S 
ENDBRANCH   5  11
BRANCH   1  22
ATOM     20  C   UNL     1       1.555   4.620  20.915  0.00  0.00    +0.000 C 
ATOM     21  O   UNL     1       0.518   4.543  20.257  0.00  0.00    +0.000 OA
ATOM     22  N   UNL     1       2.344   5.754  21.035  0.00  0.00    +0.000 N 
ATOM     23  H   UNL     1       3.313   5.598  21.312  0.00  0.00    +0.000 HD
BRANCH  20  24
ATOM     24  C   UNL     1       2.032   3.422  21.717  0.00  0.00    +0.000 C 
BRANCH  24  25
ATOM     25  C   UNL     1       3.296   2.745  21.189  0.00  0.00    +0.000 C 
BRANCH  25  26
ATOM     26  N   UNL     1       3.501   2.877  19.734  0.00  0.00    +0.000 NA
ATOM     27  H   UNL     1       3.037   3.735  19.417  0.00  0.00    +0.000 HD
BRANCH  26  28
ATOM     28  C   UNL     1       2.971   1.748  18.935  0.00  0.00    +0.000 C 
ATOM     29  C   UNL     1       4.154   1.113  18.194  0.00  0.00    +0.000 C 
BRANCH  28  31
ATOM     30  C   UNL     1       0.458   2.082  18.542  0.00  0.00    +0.000 C 
ATOM     31  C   UNL     1       1.863   2.214  17.974  0.00  0.00    +0.000 C 
ENDBRANCH  28  31
ENDBRANCH  26  28
ENDBRANCH  25  26
ENDBRANCH  24  25
ENDBRANCH  20  24
ENDBRANCH   1  22
BRANCH   8  32
ATOM     32  C   UNL     1      -1.238  10.046  17.967  0.00  0.00    +0.000 C 
ATOM     33  C   UNL     1      -2.439   9.596  18.810  0.00  0.00    +0.000 C 
ATOM     34  C   UNL     1      -1.754  10.795  16.731  0.00  0.00    +0.000 C 
ENDBRANCH   8  32
TORSDOF 8
ENDMDL
MODEL 4
REMARK VINA RESULT:      -6.2      4.027      8.263
REMARK  Name = 
REMARK  13 active torsions:
REMARK  status: ('A' for Active; 'I' for Inactive)
REMARK    1  A    between atoms: C_1  and  C_2
REMARK    2  A    between atoms: C_2  and  C_3
REMARK    3  A    between atoms: C_3  and  C_4
REMARK    4  A    between atoms: C_3  and  N_5
REMARK    5  A    between atoms: N_5  and  C_6
REMARK    6  A    between atoms: C_6  and  C_7
REMARK    7  A    between atoms: C_7  and  C_8
REMARK    8  A    between atoms: N_10  and  C_11
REMARK    9  A    between atoms: C_15  and  C_16
REMARK   10  A    between atoms: N_27  and  C_28
REMARK   11  A    between atoms: N_27  and  C_29
REMARK   12  A    between atoms: C_29  and  C_30
REMARK   13  A    between atoms: C_29  and  C_31
REMARK                            x       y       z     vdW  Elec       q    Type
REMARK                         _______ _______ _______ _____ _____    ______ ____
ROOT
ATOM      1  C   UNL     1       0.599  11.589  19.737  0.00  0.00    +0.000 A 
ATOM      2  S   UNL     1       1.877  11.896  18.662  0.00  0.00    +0.000 S 
ATOM      3  C   UNL     1       1.615  13.551  18.747  0.00  0.00    +0.000 A 
ATOM      4  C   UNL     1       0.504  13.903  19.498  0.00  0.00    +0.000 A 
ATOM      5  C   UNL     1      -0.141  12.723  20.064  0.00  0.00    +0.000 A 
ATOM      6  C   UNL     1       0.172  15.361  19.671  0.00  0.00    +0.000 C 
ATOM      7  C   UNL     1       0.987  16.275  18.703  0.00  0.00    +0.000 C 
ATOM      8  N   UNL     1       2.512  15.894  18.599  0.00  0.00    +0.000 N 
ATOM      9  C   UNL     1       3.190  16.782  17.556  0.00  0.00    +0.000 C 
ATOM     10  C   UNL     1       2.537  14.460  18.025  0.00  0.00    +0.000 C 
ENDROOT
BRANCH   5  11
ATOM     11  C   UNL     1      -1.375  12.688  20.981  0.00  0.00    +0.000 A 
ATOM     12  N   UNL     1      -2.620  12.782  20.547  0.00  0.00    +0.000 NA
ATOM     13  C   UNL     1      -3.519  12.760  21.633  0.00  0.00    +0.000 A 
ATOM     14  C   UNL     1      -4.928  12.845  21.587  0.00  0.00    +0.000 A 
ATOM     15  C   UNL     1      -5.683  12.828  22.774  0.00  0.00    +0.000 A 
ATOM     16  C   UNL     1      -5.057  12.725  24.013  0.00  0.00    +0.000 A 
ATOM     17  C   UNL     1      -3.665  12.630  24.091  0.00  0.00    +0.000 A 
ATOM     18  C   UNL     1      -2.927  12.650  22.892  0.00  0.00    +0.000 A 
ATOM     19  S   UNL     1      -1.243  12.544  22.695  0.00  0.00    +0.000 S 
ENDBRANCH   5  11
BRANCH   1  22
ATOM     20  C   UNL     1       0.863   9.693  21.203  0.00  0.00    +0.000 C 
ATOM     21  O   UNL     1       1.470  10.298  22.086  0.00  0.00    +0.000 OA
ATOM     22  N   UNL     1       0.414  10.251  20.015  0.00  0.00    +0.000 N 
ATOM     23  H   UNL     1      -0.341   9.754  19.544  0.00  0.00    +0.000 HD
BRANCH  20  24
ATOM     24  C   UNL     1       0.596   8.206  21.351  0.00  0.00    +0.000 C 
BRANCH  24  25
ATOM     25  C   UNL     1       1.382   7.305  20.400  0.00  0.00    +0.000 C 
BRANCH  25  26
ATOM     26  N   UNL     1       2.085   6.186  21.056  0.00  0.00    +0.000 NA
ATOM     27  H   UNL     1       3.029   6.499  21.306  0.00  0.00    +0.000 HD
BRANCH  26  28
ATOM     28  C   UNL     1       2.211   4.968  20.224  0.00  0.00    +0.000 C 
ATOM     29  C   UNL     1       2.445   5.419  18.778  0.00  0.00    +0.000 C 
BRANCH  28  31
ATOM     30  C   UNL     1       1.120   2.706  19.700  0.00  0.00    +0.000 C 
ATOM     31  C   UNL     1       0.970   4.068  20.360  0.00  0.00    +0.000 C 
ENDBRANCH  28  31
ENDBRANCH  26  28
ENDBRANCH  25  26
ENDBRANCH  24  25
ENDBRANCH  20  24
ENDBRANCH   1  22
BRANCH   8  32
ATOM     32  C   UNL     1       3.234  15.971  19.992  0.00  0.00    +0.000 C 
ATOM     33  C   UNL     1       4.658  15.397  19.963  0.00  0.00    +0.000 C 
ATOM     34  C   UNL     1       3.292  17.412  20.513  0.00  0.00    +0.000 C 
ENDBRANCH   8  32
TORSDOF 8
ENDMDL
MODEL 5
REMARK VINA RESULT:      -6.2      4.186      8.314
REMARK  Name = 
REMARK  13 active torsions:
REMARK  status: ('A' for Active; 'I' for Inactive)
REMARK    1  A    between atoms: C_1  and  C_2
REMARK    2  A    between atoms: C_2  and  C_3
REMARK    3  A    between atoms: C_3  and  C_4
REMARK    4  A    between atoms: C_3  and  N_5
REMARK    5  A    between atoms: N_5  and  C_6
REMARK    6  A    between atoms: C_6  and  C_7
REMARK    7  A    between atoms: C_7  and  C_8
REMARK    8  A    between atoms: N_10  and  C_11
REMARK    9  A    between atoms: C_15  and  C_16
REMARK   10  A    between atoms: N_27  and  C_28
REMARK   11  A    between atoms: N_27  and  C_29
REMARK   12  A    between atoms: C_29  and  C_30
REMARK   13  A    between atoms: C_29  and  C_31
REMARK                            x       y       z     vdW  Elec       q    Type
REMARK                         _______ _______ _______ _____ _____    ______ ____
ROOT
ATOM      1  C   UNL     1      -0.293  12.831  18.360  0.00  0.00    +0.000 A 
ATOM      2  S   UNL     1      -0.544  14.508  18.439  0.00  0.00    +0.000 S 
ATOM      3  C   UNL     1       0.861  14.725  19.329  0.00  0.00    +0.000 A 
ATOM      4  C   UNL     1       1.493  13.540  19.673  0.00  0.00    +0.000 A 
ATOM      5  C   UNL     1       0.780  12.389  19.129  0.00  0.00    +0.000 A 
ATOM      6  C   UNL     1       2.779  13.599  20.454  0.00  0.00    +0.000 C 
ATOM      7  C   UNL     1       3.061  15.021  21.030  0.00  0.00    +0.000 C 
ATOM      8  N   UNL     1       2.789  16.188  20.007  0.00  0.00    +0.000 N 
ATOM      9  C   UNL     1       2.998  17.535  20.700  0.00  0.00    +0.000 C 
ATOM     10  C   UNL     1       1.282  16.103  19.680  0.00  0.00    +0.000 C 
ENDROOT
BRANCH   5  11
ATOM     11  C   UNL     1       1.173  10.908  19.255  0.00  0.00    +0.000 A 
ATOM     12  N   UNL     1       1.729  10.206  18.283  0.00  0.00    +0.000 NA
ATOM     13  C   UNL     1       1.928   8.872  18.695  0.00  0.00    +0.000 A 
ATOM     14  C   UNL     1       2.487   7.813  17.946  0.00  0.00    +0.000 A 
ATOM     15  C   UNL     1       2.597   6.526  18.503  0.00  0.00    +0.000 A 
ATOM     16  C   UNL     1       2.161   6.273  19.801  0.00  0.00    +0.000 A 
ATOM     17  C   UNL     1       1.611   7.302  20.570  0.00  0.00    +0.000 A 
ATOM     18  C   UNL     1       1.509   8.583  19.995  0.00  0.00    +0.000 A 
ATOM     19  S   UNL     1       0.895  10.002  20.698  0.00  0.00    +0.000 S 
ENDBRANCH   5  11
BRANCH   1  22
ATOM     20  C   UNL     1      -2.406  11.672  18.276  0.00  0.00    +0.000 C 
ATOM     21  O   UNL     1      -2.651  11.766  19.478  0.00  0.00    +0.000 OA
ATOM     22  N   UNL     1      -1.265  12.156  17.652  0.00  0.00    +0.000 N 
ATOM     23  H   UNL     1      -1.338  12.316  16.647  0.00  0.00    +0.000 HD
BRANCH  20  24
ATOM     24  C   UNL     1      -3.372  10.940  17.361  0.00  0.00    +0.000 C 
BRANCH  24  25
ATOM     25  C   UNL     1      -4.567  11.762  16.882  0.00  0.00    +0.000 C 
BRANCH  25  26
ATOM     26  N   UNL     1      -5.226  12.558  17.934  0.00  0.00    +0.000 NA
ATOM     27  H   UNL     1      -4.556  12.708  18.695  0.00  0.00    +0.000 HD
BRANCH  26  28
ATOM     28  C   UNL     1      -6.440  11.933  18.507  0.00  0.00    +0.000 C 
ATOM     29  C   UNL     1      -7.605  12.907  18.293  0.00  0.00    +0.000 C 
BRANCH  28  31
ATOM     30  C   UNL     1      -7.536  11.376  20.758  0.00  0.00    +0.000 C 
ATOM     31  C   UNL     1      -6.239  11.581  19.991  0.00  0.00    +0.000 C 
ENDBRANCH  28  31
ENDBRANCH  26  28
ENDBRANCH  25  26
ENDBRANCH  24  25
ENDBRANCH  20  24
ENDBRANCH   1  22
BRANCH   8  32
ATOM     32  C   UNL     1       3.669  16.053  18.713  0.00  0.00    +0.000 C 
ATOM     33  C   UNL     1       3.075  16.787  17.503  0.00  0.00    +0.000 C 
ATOM     34  C   UNL     1       5.096  16.565  18.951  0.00  0.00    +0.000 C 
ENDBRANCH   8  32
TORSDOF 8
ENDMDL
MODEL 6
REMARK VINA RESULT:      -6.2      3.944      7.995
REMARK  Name = 
REMARK  13 active torsions:
REMARK  status: ('A' for Active; 'I' for Inactive)
REMARK    1  A    between atoms: C_1  and  C_2
REMARK    2  A    between atoms: C_2  and  C_3
REMARK    3  A    between atoms: C_3  and  C_4
REMARK    4  A    between atoms: C_3  and  N_5
REMARK    5  A    between atoms: N_5  and  C_6
REMARK    6  A    between atoms: C_6  and  C_7
REMARK    7  A    between atoms: C_7  and  C_8
REMARK    8  A    between atoms: N_10  and  C_11
REMARK    9  A    between atoms: C_15  and  C_16
REMARK   10  A    between atoms: N_27  and  C_28
REMARK   11  A    between atoms: N_27  and  C_29
REMARK   12  A    between atoms: C_29  and  C_30
REMARK   13  A    between atoms: C_29  and  C_31
REMARK                            x       y       z     vdW  Elec       q    Type
REMARK                         _______ _______ _______ _____ _____    ______ ____
ROOT
ATOM      1  C   UNL     1      -1.142  12.279  19.775  0.00  0.00    +0.000 A 
ATOM      2  S   UNL     1      -1.590  13.878  20.124  0.00  0.00    +0.000 S 
ATOM      3  C   UNL     1      -0.001  14.302  20.456  0.00  0.00    +0.000 A 
ATOM      4  C   UNL     1       0.882  13.234  20.414  0.00  0.00    +0.000 A 
ATOM      5  C   UNL     1       0.195  12.001  20.046  0.00  0.00    +0.000 A 
ATOM      6  C   UNL     1       2.344  13.485  20.672  0.00  0.00    +0.000 C 
ATOM      7  C   UNL     1       2.609  14.907  21.257  0.00  0.00    +0.000 C 
ATOM      8  N   UNL     1       1.801  16.053  20.538  0.00  0.00    +0.000 N 
ATOM      9  C   UNL     1       2.055  17.382  21.250  0.00  0.00    +0.000 C 
ATOM     10  C   UNL     1       0.313  15.715  20.778  0.00  0.00    +0.000 C 
ENDROOT
BRANCH   5  11
ATOM     11  C   UNL     1       0.821  10.609  19.856  0.00  0.00    +0.000 A 
ATOM     12  N   UNL     1       1.352  10.186  18.721  0.00  0.00    +0.000 NA
ATOM     13  C   UNL     1       1.801   8.856  18.857  0.00  0.00    +0.000 A 
ATOM     14  C   UNL     1       2.416   8.049  17.875  0.00  0.00    +0.000 A 
ATOM     15  C   UNL     1       2.789   6.726  18.169  0.00  0.00    +0.000 A 
ATOM     16  C   UNL     1       2.562   6.188  19.434  0.00  0.00    +0.000 A 
ATOM     17  C   UNL     1       1.964   6.963  20.430  0.00  0.00    +0.000 A 
ATOM     18  C   UNL     1       1.597   8.286  20.115  0.00  0.00    +0.000 A 
ATOM     19  S   UNL     1       0.868   9.441  21.126  0.00  0.00    +0.000 S 
ENDBRANCH   5  11
BRANCH   1  22
ATOM     20  C   UNL     1      -2.554  11.321  18.071  0.00  0.00    +0.000 C 
ATOM     21  O   UNL     1      -2.007  11.883  17.122  0.00  0.00    +0.000 OA
ATOM     22  N   UNL     1      -2.198  11.474  19.403  0.00  0.00    +0.000 N 
ATOM     23  H   UNL     1      -2.487  10.725  20.032  0.00  0.00    +0.000 HD
BRANCH  20  24
ATOM     24  C   UNL     1      -3.746  10.414  17.828  0.00  0.00    +0.000 C 
BRANCH  24  25
ATOM     25  C   UNL     1      -5.111  11.096  17.906  0.00  0.00    +0.000 C 
BRANCH  25  26
ATOM     26  N   UNL     1      -5.108  12.399  18.598  0.00  0.00    +0.000 NA
ATOM     27  H   UNL     1      -4.151  12.600  18.906  0.00  0.00    +0.000 HD
BRANCH  26  28
ATOM     28  C   UNL     1      -5.995  12.467  19.782  0.00  0.00    +0.000 C 
ATOM     29  C   UNL     1      -5.118  12.798  20.996  0.00  0.00    +0.000 C 
BRANCH  28  31
ATOM     30  C   UNL     1      -7.829  11.218  21.068  0.00  0.00    +0.000 C 
ATOM     31  C   UNL     1      -6.780  11.158  19.969  0.00  0.00    +0.000 C 
ENDBRANCH  28  31
ENDBRANCH  26  28
ENDBRANCH  25  26
ENDBRANCH  24  25
ENDBRANCH  20  24
ENDBRANCH   1  22
BRANCH   8  32
ATOM     32  C   UNL     1       2.134  16.137  19.006  0.00  0.00    +0.000 C 
ATOM     33  C   UNL     1       1.285  17.177  18.262  0.00  0.00    +0.000 C 
ATOM     34  C   UNL     1       3.617  16.450  18.772  0.00  0.00    +0.000 C 
ENDBRANCH   8  32
TORSDOF 8
ENDMDL
MODEL 7
REMARK VINA RESULT:      -6.1      4.152      8.519
REMARK  Name = 
REMARK  13 active torsions:
REMARK  status: ('A' for Active; 'I' for Inactive)
REMARK    1  A    between atoms: C_1  and  C_2
REMARK    2  A    between atoms: C_2  and  C_3
REMARK    3  A    between atoms: C_3  and  C_4
REMARK    4  A    between atoms: C_3  and  N_5
REMARK    5  A    between atoms: N_5  and  C_6
REMARK    6  A    between atoms: C_6  and  C_7
REMARK    7  A    between atoms: C_7  and  C_8
REMARK    8  A    between atoms: N_10  and  C_11
REMARK    9  A    between atoms: C_15  and  C_16
REMARK   10  A    between atoms: N_27  and  C_28
REMARK   11  A    between atoms: N_27  and  C_29
REMARK   12  A    between atoms: C_29  and  C_30
REMARK   13  A    between atoms: C_29  and  C_31
REMARK                            x       y       z     vdW  Elec       q    Type
REMARK                         _______ _______ _______ _____ _____    ______ ____
ROOT
ATOM      1  C   UNL     1       0.097  11.516  19.924  0.00  0.00    +0.000 A 
ATOM      2  S   UNL     1       1.437  11.719  18.902  0.00  0.00    +0.000 S 
ATOM      3  C   UNL     1       1.253  13.387  18.912  0.00  0.00    +0.000 A 
ATOM      4  C   UNL     1       0.126  13.820  19.594  0.00  0.00    +0.000 A 
ATOM      5  C   UNL     1      -0.601  12.695  20.172  0.00  0.00    +0.000 A 
ATOM      6  C   UNL     1      -0.142  15.298  19.696  0.00  0.00    +0.000 C 
ATOM      7  C   UNL     1       0.760  16.134  18.735  0.00  0.00    +0.000 C 
ATOM      8  N   UNL     1       2.268  15.678  18.720  0.00  0.00    +0.000 N 
ATOM      9  C   UNL     1       3.037  16.491  17.678  0.00  0.00    +0.000 C 
ATOM     10  C   UNL     1       2.250  14.223  18.202  0.00  0.00    +0.000 C 
ENDROOT
BRANCH   5  11
ATOM     11  C   UNL     1      -1.877  12.754  21.028  0.00  0.00    +0.000 A 
ATOM     12  N   UNL     1      -1.896  12.581  22.339  0.00  0.00    +0.000 NA
ATOM     13  C   UNL     1      -3.218  12.652  22.822  0.00  0.00    +0.000 A 
ATOM     14  C   UNL     1      -3.657  12.511  24.158  0.00  0.00    +0.000 A 
ATOM     15  C   UNL     1      -5.025  12.591  24.472  0.00  0.00    +0.000 A 
ATOM     16  C   UNL     1      -5.972  12.812  23.475  0.00  0.00    +0.000 A 
ATOM     17  C   UNL     1      -5.569  12.964  22.146  0.00  0.00    +0.000 A 
ATOM     18  C   UNL     1      -4.195  12.881  21.851  0.00  0.00    +0.000 A 
ATOM     19  S   UNL     1      -3.434  13.034  20.340  0.00  0.00    +0.000 S 
ENDBRANCH   5  11
BRANCH   1  22
ATOM     20  C   UNL     1       0.245   9.656  21.451  0.00  0.00    +0.000 C 
ATOM     21  O   UNL     1       0.881  10.253  22.319  0.00  0.00    +0.000 OA
ATOM     22  N   UNL     1      -0.165  10.200  20.243  0.00  0.00    +0.000 N 
ATOM     23  H   UNL     1      -0.945   9.732  19.782  0.00  0.00    +0.000 HD
BRANCH  20  24
ATOM     24  C   UNL     1      -0.108   8.192  21.644  0.00  0.00    +0.000 C 
BRANCH  24  25
ATOM     25  C   UNL     1       0.988   7.200  21.254  0.00  0.00    +0.000 C 
BRANCH  25  26
ATOM     26  N   UNL     1       2.032   7.755  20.371  0.00  0.00    +0.000 NA
ATOM     27  H   UNL     1       1.605   8.471  19.775  0.00  0.00    +0.000 HD
BRANCH  26  28
ATOM     28  C   UNL     1       2.686   6.758  19.494  0.00  0.00    +0.000 C 
ATOM     29  C   UNL     1       2.502   7.227  18.046  0.00  0.00    +0.000 C 
BRANCH  28  31
ATOM     30  C   UNL     1       3.179   4.279  19.936  0.00  0.00    +0.000 C 
ATOM     31  C   UNL     1       2.116   5.348  19.727  0.00  0.00    +0.000 C 
ENDBRANCH  28  31
ENDBRANCH  26  28
ENDBRANCH  25  26
ENDBRANCH  24  25
ENDBRANCH  20  24
ENDBRANCH   1  22
BRANCH   8  32
ATOM     32  C   UNL     1       2.927  15.776  20.141  0.00  0.00    +0.000 C 
ATOM     33  C   UNL     1       4.299  15.090  20.218  0.00  0.00    +0.000 C 
ATOM     34  C   UNL     1       3.079  17.236  20.588  0.00  0.00    +0.000 C 
ENDBRANCH   8  32
TORSDOF 8
ENDMDL
MODEL 8
REMARK VINA RESULT:      -6.1      3.813      7.897
REMARK  Name = 
REMARK  13 active torsions:
REMARK  status: ('A' for Active; 'I' for Inactive)
REMARK    1  A    between atoms: C_1  and  C_2
REMARK    2  A    between atoms: C_2  and  C_3
REMARK    3  A    between atoms: C_3  and  C_4
REMARK    4  A    between atoms: C_3  and  N_5
REMARK    5  A    between atoms: N_5  and  C_6
REMARK    6  A    between atoms: C_6  and  C_7
REMARK    7  A    between atoms: C_7  and  C_8
REMARK    8  A    between atoms: N_10  and  C_11
REMARK    9  A    between atoms: C_15  and  C_16
REMARK   10  A    between atoms: N_27  and  C_28
REMARK   11  A    between atoms: N_27  and  C_29
REMARK   12  A    between atoms: C_29  and  C_30
REMARK   13  A    between atoms: C_29  and  C_31
REMARK                            x       y       z     vdW  Elec       q    Type
REMARK                         _______ _______ _______ _____ _____    ______ ____
ROOT
ATOM      1  C   UNL     1       1.311  12.327  18.442  0.00  0.00    +0.000 A 
ATOM      2  S   UNL     1       2.811  13.122  18.467  0.00  0.00    +0.000 S 
ATOM      3  C   UNL     1       2.130  14.488  19.165  0.00  0.00    +0.000 A 
ATOM      4  C   UNL     1       0.752  14.418  19.298  0.00  0.00    +0.000 A 
ATOM      5  C   UNL     1       0.243  13.135  18.825  0.00  0.00    +0.000 A 
ATOM      6  C   UNL     1       0.021  15.573  19.931  0.00  0.00    +0.000 C 
ATOM      7  C   UNL     1       0.921  16.838  20.078  0.00  0.00    +0.000 C 
ATOM      8  N   UNL     1       2.372  16.530  20.610  0.00  0.00    +0.000 N 
ATOM      9  C   UNL     1       3.197  17.817  20.620  0.00  0.00    +0.000 C 
ATOM     10  C   UNL     1       3.014  15.617  19.542  0.00  0.00    +0.000 C 
ENDROOT
BRANCH   5  11
ATOM     11  C   UNL     1      -1.217  12.653  18.835  0.00  0.00    +0.000 A 
ATOM     12  N   UNL     1      -1.774  11.966  17.852  0.00  0.00    +0.000 NA
ATOM     13  C   UNL     1      -3.130  11.712  18.142  0.00  0.00    +0.000 A 
ATOM     14  C   UNL     1      -4.067  11.017  17.344  0.00  0.00    +0.000 A 
ATOM     15  C   UNL     1      -5.398  10.867  17.773  0.00  0.00    +0.000 A 
ATOM     16  C   UNL     1      -5.816  11.397  18.991  0.00  0.00    +0.000 A 
ATOM     17  C   UNL     1      -4.912  12.082  19.807  0.00  0.00    +0.000 A 
ATOM     18  C   UNL     1      -3.584  12.222  19.359  0.00  0.00    +0.000 A 
ATOM     19  S   UNL     1      -2.289  12.992  20.144  0.00  0.00    +0.000 S 
ENDBRANCH   5  11
BRANCH   1  22
ATOM     20  C   UNL     1       1.257   9.935  18.743  0.00  0.00    +0.000 C 
ATOM     21  O   UNL     1       1.132   9.963  19.967  0.00  0.00    +0.000 OA
ATOM     22  N   UNL     1       1.367  11.050  17.925  0.00  0.00    +0.000 N 
ATOM     23  H   UNL     1       1.129  10.910  16.943  0.00  0.00    +0.000 HD
BRANCH  20  24
ATOM     24  C   UNL     1       1.353   8.603  18.022  0.00  0.00    +0.000 C 
BRANCH  24  25
ATOM     25  C   UNL     1       2.539   7.727  18.424  0.00  0.00    +0.000 C 
BRANCH  25  26
ATOM     26  N   UNL     1       2.474   7.200  19.800  0.00  0.00    +0.000 NA
ATOM     27  H   UNL     1       3.193   7.668  20.361  0.00  0.00    +0.000 HD
BRANCH  26  28
ATOM     28  C   UNL     1       2.689   5.738  19.907  0.00  0.00    +0.000 C 
ATOM     29  C   UNL     1       2.839   5.188  18.484  0.00  0.00    +0.000 C 
BRANCH  28  31
ATOM     30  C   UNL     1       1.002   3.808  20.003  0.00  0.00    +0.000 C 
ATOM     31  C   UNL     1       1.542   5.060  20.677  0.00  0.00    +0.000 C 
ENDBRANCH  28  31
ENDBRANCH  26  28
ENDBRANCH  25  26
ENDBRANCH  24  25
ENDBRANCH  20  24
ENDBRANCH   1  22
BRANCH   8  32
ATOM     32  C   UNL     1       2.348  15.839  22.020  0.00  0.00    +0.000 C 
ATOM     33  C   UNL     1       3.721  15.306  22.453  0.00  0.00    +0.000 C 
ATOM     34  C   UNL     1       1.824  16.793  23.101  0.00  0.00    +0.000 C 
ENDBRANCH   8  32
TORSDOF 8
ENDMDL
MODEL 9
REMARK VINA RESULT:      -6.1      4.069      6.871
REMARK  Name = 
REMARK  13 active torsions:
REMARK  status: ('A' for Active; 'I' for Inactive)
REMARK    1  A    between atoms: C_1  and  C_2
REMARK    2  A    between atoms: C_2  and  C_3
REMARK    3  A    between atoms: C_3  and  C_4
REMARK    4  A    between atoms: C_3  and  N_5
REMARK    5  A    between atoms: N_5  and  C_6
REMARK    6  A    between atoms: C_6  and  C_7
REMARK    7  A    between atoms: C_7  and  C_8
REMARK    8  A    between atoms: N_10  and  C_11
REMARK    9  A    between atoms: C_15  and  C_16
REMARK   10  A    between atoms: N_27  and  C_28
REMARK   11  A    between atoms: N_27  and  C_29
REMARK   12  A    between atoms: C_29  and  C_30
REMARK   13  A    between atoms: C_29  and  C_31
REMARK                            x       y       z     vdW  Elec       q    Type
REMARK                         _______ _______ _______ _____ _____    ______ ____
ROOT
ATOM      1  C   UNL     1       0.601  10.987  20.596  0.00  0.00    +0.000 A 
ATOM      2  S   UNL     1      -0.640  10.200  21.445  0.00  0.00    +0.000 S 
ATOM      3  C   UNL     1      -1.091  11.626  22.204  0.00  0.00    +0.000 A 
ATOM      4  C   UNL     1      -0.260  12.698  21.918  0.00  0.00    +0.000 A 
ATOM      5  C   UNL     1       0.790  12.311  20.982  0.00  0.00    +0.000 A 
ATOM      6  C   UNL     1      -0.569  14.043  22.521  0.00  0.00    +0.000 C 
ATOM      7  C   UNL     1      -1.645  13.957  23.647  0.00  0.00    +0.000 C 
ATOM      8  N   UNL     1      -2.870  13.032  23.289  0.00  0.00    +0.000 N 
ATOM      9  C   UNL     1      -3.808  12.938  24.493  0.00  0.00    +0.000 C 
ATOM     10  C   UNL     1      -2.274  11.620  23.098  0.00  0.00    +0.000 C 
ENDROOT
BRANCH   5  11
ATOM     11  C   UNL     1       1.886  13.213  20.390  0.00  0.00    +0.000 A 
ATOM     12  N   UNL     1       2.909  13.684  21.083  0.00  0.00    +0.000 NA
ATOM     13  C   UNL     1       3.711  14.511  20.270  0.00  0.00    +0.000 A 
ATOM     14  C   UNL     1       4.885  15.204  20.638  0.00  0.00    +0.000 A 
ATOM     15  C   UNL     1       5.562  16.009  19.704  0.00  0.00    +0.000 A 
ATOM     16  C   UNL     1       5.090  16.134  18.400  0.00  0.00    +0.000 A 
ATOM     17  C   UNL     1       3.936  15.454  18.002  0.00  0.00    +0.000 A 
ATOM     18  C   UNL     1       3.272  14.654  18.952  0.00  0.00    +0.000 A 
ATOM     19  S   UNL     1       1.868  13.722  18.741  0.00  0.00    +0.000 S 
ENDBRANCH   5  11
BRANCH   1  22
ATOM     20  C   UNL     1       0.917   9.962  18.436  0.00  0.00    +0.000 C 
ATOM     21  O   UNL     1      -0.076  10.462  17.910  0.00  0.00    +0.000 OA
ATOM     22  N   UNL     1       1.310  10.158  19.752  0.00  0.00    +0.000 N 
ATOM     23  H   UNL     1       2.292   9.976  19.958  0.00  0.00    +0.000 HD
BRANCH  20  24
ATOM     24  C   UNL     1       1.794   9.010  17.643  0.00  0.00    +0.000 C 
BRANCH  24  25
ATOM     25  C   UNL     1       2.378   7.844  18.440  0.00  0.00    +0.000 C 
BRANCH  25  26
ATOM     26  N   UNL     1       3.337   7.009  17.692  0.00  0.00    +0.000 NA
ATOM     27  H   UNL     1       3.013   6.931  16.723  0.00  0.00    +0.000 HD
BRANCH  26  28
ATOM     28  C   UNL     1       3.508   5.640  18.229  0.00  0.00    +0.000 C 
ATOM     29  C   UNL     1       4.151   4.789  17.128  0.00  0.00    +0.000 C 
BRANCH  28  31
ATOM     30  C   UNL     1       1.556   4.046  17.752  0.00  0.00    +0.000 C 
ATOM     31  C   UNL     1       2.168   5.057  18.710  0.00  0.00    +0.000 C 
ENDBRANCH  28  31
ENDBRANCH  26  28
ENDBRANCH  25  26
ENDBRANCH  24  25
ENDBRANCH  20  24
ENDBRANCH   1  22
BRANCH   8  32
ATOM     32  C   UNL     1      -3.620  13.521  21.999  0.00  0.00    +0.000 C 
ATOM     33  C   UNL     1      -4.749  12.576  21.565  0.00  0.00    +0.000 C 
ATOM     34  C   UNL     1      -4.198  14.929  22.188  0.00  0.00    +0.000 C 
ENDBRANCH   8  32
TORSDOF 8
ENDMDL
