MODEL 1
REMARK VINA RESULT:      -7.5      0.000      0.000
REMARK  Name = 
REMARK  13 active torsions:
REMARK  status: ('A' for Active; 'I' for Inactive)
REMARK    1  A    between atoms: C_1  and  O_2
REMARK    2  A    between atoms: O_2  and  C_3
REMARK    3  A    between atoms: C_6  and  N_7
REMARK    4  A    between atoms: C_8  and  C_10
REMARK    5  A    between atoms: C_10  and  C_12
REMARK    6  A    between atoms: N_14  and  C_15
REMARK    7  A    between atoms: C_15  and  C_16
REMARK    8  A    between atoms: C_15  and  C_17
REMARK    9  A    between atoms: C_15  and  C_18
REMARK   10  A    between atoms: C_18  and  O_19
REMARK   11  A    between atoms: O_19  and  C_20
REMARK   12  A    between atoms: C_20  and  C_21
REMARK   13  A    between atoms: C_21  and  O_23
REMARK                            x       y       z     vdW  Elec       q    Type
REMARK                         _______ _______ _______ _____ _____    ______ ____
ROOT
ATOM      1  C   UNL     1       0.627  10.502  18.799  0.00  0.00    +0.000 A 
ATOM      2  C   UNL     1       0.789  11.389  19.845  0.00  0.00    +0.000 A 
ATOM      3  N   UNL     1      -0.375  12.096  20.041  0.00  0.00    +0.000 N 
ATOM      4  C   UNL     1      -1.353  11.568  19.199  0.00  0.00    +0.000 A 
ATOM      5  C   UNL     1      -2.717  11.874  19.024  0.00  0.00    +0.000 A 
ATOM      6  C   UNL     1      -3.462  11.150  18.088  0.00  0.00    +0.000 A 
ATOM      7  C   UNL     1      -2.880  10.134  17.345  0.00  0.00    +0.000 A 
ATOM      8  C   UNL     1      -1.525   9.836  17.504  0.00  0.00    +0.000 A 
ATOM      9  C   UNL     1      -0.744  10.564  18.428  0.00  0.00    +0.000 A 
ENDROOT
BRANCH   3  10
ATOM     10  C   UNL     1      -0.529  13.236  20.985  0.00  0.00    +0.000 C 
ATOM     11  C   UNL     1       0.850  13.682  21.517  0.00  0.00    +0.000 C 
ATOM     12  C   UNL     1      -1.244  14.413  20.285  0.00  0.00    +0.000 C 
BRANCH  10  13
ATOM     13  C   UNL     1      -1.401  12.874  22.238  0.00  0.00    +0.000 C 
BRANCH  13  14
ATOM     14  O   UNL     1      -0.687  12.013  23.141  0.00  0.00    +0.000 OA
BRANCH  14  15
ATOM     15  C   UNL     1      -1.245  10.690  23.163  0.00  0.00    +0.000 C 
BRANCH  15  16
ATOM     16  C   UNL     1      -0.136   9.682  22.898  0.00  0.00    +0.000 C 
ATOM     17  O   UNL     1       0.928   9.649  23.498  0.00  0.00    +0.000 OA
BRANCH  16  18
ATOM     18  O   UNL     1      -0.466   8.797  21.923  0.00  0.00    +0.000 OA
ATOM     19  H   UNL     1      -0.122   7.911  22.188  0.00  0.00    +0.000 HD
ENDBRANCH  16  18
ENDBRANCH  15  16
ENDBRANCH  14  15
ENDBRANCH  13  14
ENDBRANCH  10  13
ENDBRANCH   3  10
BRANCH   1  20
ATOM     20  C   UNL     1       1.687   9.677  18.239  0.00  0.00    +0.000 C 
ATOM     21  O   UNL     1       2.445  10.057  17.344  0.00  0.00    +0.000 OA
BRANCH  20  23
ATOM     22  N   UNL     1       2.492   7.382  17.933  0.00  0.00    +0.000 N 
ATOM     23  C   UNL     1       1.934   8.290  18.823  0.00  0.00    +0.000 C 
ATOM     24  O   UNL     1       1.662   8.117  20.003  0.00  0.00    +0.000 OA
ATOM     25  H   UNL     1       2.629   7.705  16.982  0.00  0.00    +0.000 HD
BRANCH  22  29
ATOM     26  C   UNL     1       3.649   3.484  18.840  0.00  0.00    +0.000 A 
ATOM     27  C   UNL     1       2.415   3.659  18.243  0.00  0.00    +0.000 A 
ATOM     28  C   UNL     1       2.003   4.954  17.939  0.00  0.00    +0.000 A 
ATOM     29  C   UNL     1       2.825   6.041  18.233  0.00  0.00    +0.000 A 
ATOM     30  C   UNL     1       4.043   5.752  18.850  0.00  0.00    +0.000 A 
ATOM     31  N   UNL     1       4.476   4.502  19.157  0.00  0.00    +0.000 NA
BRANCH  26  33
ATOM     32  C   UNL     1       4.477   1.991  20.435  0.00  0.00    +0.000 C 
ATOM     33  O   UNL     1       4.009   2.178  19.106  0.00  0.00    +0.000 OA
ENDBRANCH  26  33
ENDBRANCH  22  29
ENDBRANCH  20  23
ENDBRANCH   1  20
TORSDOF 10
ENDMDL
MODEL 2
REMARK VINA RESULT:      -7.3      2.787      9.024
REMARK  Name = 
REMARK  13 active torsions:
REMARK  status: ('A' for Active; 'I' for Inactive)
REMARK    1  A    between atoms: C_1  and  O_2
REMARK    2  A    between atoms: O_2  and  C_3
REMARK    3  A    between atoms: C_6  and  N_7
REMARK    4  A    between atoms: C_8  and  C_10
REMARK    5  A    between atoms: C_10  and  C_12
REMARK    6  A    between atoms: N_14  and  C_15
REMARK    7  A    between atoms: C_15  and  C_16
REMARK    8  A    between atoms: C_15  and  C_17
REMARK    9  A    between atoms: C_15  and  C_18
REMARK   10  A    between atoms: C_18  and  O_19
REMARK   11  A    between atoms: O_19  and  C_20
REMARK   12  A    between atoms: C_20  and  C_21
REMARK   13  A    between atoms: C_21  and  O_23
REMARK                            x       y       z     vdW  Elec       q    Type
REMARK                         _______ _______ _______ _____ _____    ______ ____
ROOT
ATOM      1  C   UNL     1       2.823   6.436  18.413  0.00  0.00    +0.000 A 
ATOM      2  C   UNL     1       3.921   6.690  17.615  0.00  0.00    +0.000 A 
ATOM      3  N   UNL     1       4.379   5.515  17.065  0.00  0.00    +0.000 N 
ATOM      4  C   UNL     1       3.486   4.498  17.403  0.00  0.00    +0.000 A 
ATOM      5  C   UNL     1       3.441   3.129  17.073  0.00  0.00    +0.000 A 
ATOM      6  C   UNL     1       2.394   2.344  17.565  0.00  0.00    +0.000 A 
ATOM      7  C   UNL     1       1.400   2.897  18.358  0.00  0.00    +0.000 A 
ATOM      8  C   UNL     1       1.447   4.250  18.700  0.00  0.00    +0.000 A 
ATOM      9  C   UNL     1       2.504   5.062  18.233  0.00  0.00    +0.000 A 
ENDROOT
BRANCH   3  10
ATOM     10  C   UNL     1       5.626   5.379  16.265  0.00  0.00    +0.000 C 
ATOM     11  C   UNL     1       6.281   4.004  16.523  0.00  0.00    +0.000 C 
ATOM     12  C   UNL     1       5.317   5.556  14.763  0.00  0.00    +0.000 C 
BRANCH  10  13
ATOM     13  C   UNL     1       6.699   6.465  16.625  0.00  0.00    +0.000 C 
BRANCH  13  14
ATOM     14  O   UNL     1       7.773   5.904  17.398  0.00  0.00    +0.000 OA
BRANCH  14  15
ATOM     15  C   UNL     1       7.898   6.548  18.676  0.00  0.00    +0.000 C 
BRANCH  15  16
ATOM     16  C   UNL     1       7.419   5.592  19.759  0.00  0.00    +0.000 C 
ATOM     17  O   UNL     1       6.301   5.102  19.806  0.00  0.00    +0.000 OA
BRANCH  16  18
ATOM     18  O   UNL     1       8.386   5.323  20.673  0.00  0.00    +0.000 OA
ATOM     19  H   UNL     1       9.257   5.346  20.210  0.00  0.00    +0.000 HD
ENDBRANCH  16  18
ENDBRANCH  15  16
ENDBRANCH  14  15
ENDBRANCH  13  14
ENDBRANCH  10  13
ENDBRANCH   3  10
BRANCH   1  20
ATOM     20  C   UNL     1       2.154   7.427  19.244  0.00  0.00    +0.000 C 
ATOM     21  O   UNL     1       1.868   7.242  20.429  0.00  0.00    +0.000 OA
BRANCH  20  23
ATOM     22  N   UNL     1       1.275   9.694  19.551  0.00  0.00    +0.000 N 
ATOM     23  C   UNL     1       1.843   8.799  18.655  0.00  0.00    +0.000 C 
ATOM     24  O   UNL     1       2.150   8.995  17.486  0.00  0.00    +0.000 OA
ATOM     25  H   UNL     1       1.074   9.340  20.480  0.00  0.00    +0.000 HD
BRANCH  22  29
ATOM     26  C   UNL     1       0.013  13.573  18.704  0.00  0.00    +0.000 A 
ATOM     27  C   UNL     1       1.302  13.229  18.341  0.00  0.00    +0.000 A 
ATOM     28  C   UNL     1       1.748  11.941  18.623  0.00  0.00    +0.000 A 
ATOM     29  C   UNL     1       0.907  11.026  19.254  0.00  0.00    +0.000 A 
ATOM     30  C   UNL     1      -0.369  11.483  19.590  0.00  0.00    +0.000 A 
ATOM     31  N   UNL     1      -0.837  12.730  19.327  0.00  0.00    +0.000 NA
BRANCH  26  33
ATOM     32  C   UNL     1       0.335  15.850  19.114  0.00  0.00    +0.000 C 
ATOM     33  O   UNL     1      -0.379  14.858  18.388  0.00  0.00    +0.000 OA
ENDBRANCH  26  33
ENDBRANCH  22  29
ENDBRANCH  20  23
ENDBRANCH   1  20
TORSDOF 10
ENDMDL
MODEL 3
REMARK VINA RESULT:      -7.1      3.000      9.294
REMARK  Name = 
REMARK  13 active torsions:
REMARK  status: ('A' for Active; 'I' for Inactive)
REMARK    1  A    between atoms: C_1  and  O_2
REMARK    2  A    between atoms: O_2  and  C_3
REMARK    3  A    between atoms: C_6  and  N_7
REMARK    4  A    between atoms: C_8  and  C_10
REMARK    5  A    between atoms: C_10  and  C_12
REMARK    6  A    between atoms: N_14  and  C_15
REMARK    7  A    between atoms: C_15  and  C_16
REMARK    8  A    between atoms: C_15  and  C_17
REMARK    9  A    between atoms: C_15  and  C_18
REMARK   10  A    between atoms: C_18  and  O_19
REMARK   11  A    between atoms: O_19  and  C_20
REMARK   12  A    between atoms: C_20  and  C_21
REMARK   13  A    between atoms: C_21  and  O_23
REMARK                            x       y       z     vdW  Elec       q    Type
REMARK                         _______ _______ _______ _____ _____    ______ ____
ROOT
ATOM      1  C   UNL     1       3.484   7.059  18.059  0.00  0.00    +0.000 A 
ATOM      2  C   UNL     1       4.847   7.205  17.890  0.00  0.00    +0.000 A 
ATOM      3  N   UNL     1       5.485   6.028  18.209  0.00  0.00    +0.000 N 
ATOM      4  C   UNL     1       4.513   5.060  18.461  0.00  0.00    +0.000 A 
ATOM      5  C   UNL     1       4.602   3.691  18.779  0.00  0.00    +0.000 A 
ATOM      6  C   UNL     1       3.426   2.959  18.972  0.00  0.00    +0.000 A 
ATOM      7  C   UNL     1       2.183   3.559  18.840  0.00  0.00    +0.000 A 
ATOM      8  C   UNL     1       2.089   4.919  18.538  0.00  0.00    +0.000 A 
ATOM      9  C   UNL     1       3.261   5.687  18.358  0.00  0.00    +0.000 A 
ENDROOT
BRANCH   3  10
ATOM     10  C   UNL     1       6.960   5.853  18.281  0.00  0.00    +0.000 C 
ATOM     11  C   UNL     1       7.677   7.121  17.765  0.00  0.00    +0.000 C 
ATOM     12  C   UNL     1       7.389   5.544  19.732  0.00  0.00    +0.000 C 
BRANCH  10  13
ATOM     13  C   UNL     1       7.474   4.657  17.407  0.00  0.00    +0.000 C 
BRANCH  13  14
ATOM     14  O   UNL     1       7.483   4.996  16.010  0.00  0.00    +0.000 OA
BRANCH  14  15
ATOM     15  C   UNL     1       6.534   4.213  15.269  0.00  0.00    +0.000 C 
BRANCH  15  16
ATOM     16  C   UNL     1       6.821   4.365  13.782  0.00  0.00    +0.000 C 
ATOM     17  O   UNL     1       7.464   5.280  13.291  0.00  0.00    +0.000 OA
BRANCH  16  18
ATOM     18  O   UNL     1       6.293   3.352  13.049  0.00  0.00    +0.000 OA
ATOM     19  H   UNL     1       5.929   2.682  13.675  0.00  0.00    +0.000 HD
ENDBRANCH  16  18
ENDBRANCH  15  16
ENDBRANCH  14  15
ENDBRANCH  13  14
ENDBRANCH  10  13
ENDBRANCH   3  10
BRANCH   1  20
ATOM     20  C   UNL     1       2.511   8.134  17.928  0.00  0.00    +0.000 C 
ATOM     21  O   UNL     1       2.123   8.573  16.843  0.00  0.00    +0.000 OA
BRANCH  20  23
ATOM     22  N   UNL     1       1.331   9.982  19.023  0.00  0.00    +0.000 N 
ATOM     23  C   UNL     1       1.876   8.716  19.187  0.00  0.00    +0.000 C 
ATOM     24  O   UNL     1       1.870   8.018  20.192  0.00  0.00    +0.000 OA
ATOM     25  H   UNL     1       1.452  10.415  18.114  0.00  0.00    +0.000 HD
BRANCH  22  29
ATOM     26  C   UNL     1      -0.430  12.259  22.034  0.00  0.00    +0.000 A 
ATOM     27  C   UNL     1      -1.155  11.193  21.536  0.00  0.00    +0.000 A 
ATOM     28  C   UNL     1      -0.591  10.424  20.522  0.00  0.00    +0.000 A 
ATOM     29  C   UNL     1       0.678  10.729  20.031  0.00  0.00    +0.000 A 
ATOM     30  C   UNL     1       1.315  11.835  20.595  0.00  0.00    +0.000 A 
ATOM     31  N   UNL     1       0.795  12.604  21.585  0.00  0.00    +0.000 NA
BRANCH  26  33
ATOM     32  C   UNL     1      -2.275  12.421  23.459  0.00  0.00    +0.000 C 
ATOM     33  O   UNL     1      -1.035  12.978  23.046  0.00  0.00    +0.000 OA
ENDBRANCH  26  33
ENDBRANCH  22  29
ENDBRANCH  20  23
ENDBRANCH   1  20
TORSDOF 10
ENDMDL
MODEL 4
REMARK VINA RESULT:      -7.1      3.101      9.317
REMARK  Name = 
REMARK  13 active torsions:
REMARK  status: ('A' for Active; 'I' for Inactive)
REMARK    1  A    between atoms: C_1  and  O_2
REMARK    2  A    between atoms: O_2  and  C_3
REMARK    3  A    between atoms: C_6  and  N_7
REMARK    4  A    between atoms: C_8  and  C_10
REMARK    5  A    between atoms: C_10  and  C_12
REMARK    6  A    between atoms: N_14  and  C_15
REMARK    7  A    between atoms: C_15  and  C_16
REMARK    8  A    between atoms: C_15  and  C_17
REMARK    9  A    between atoms: C_15  and  C_18
REMARK   10  A    between atoms: C_18  and  O_19
REMARK   11  A    between atoms: O_19  and  C_20
REMARK   12  A    between atoms: C_20  and  C_21
REMARK   13  A    between atoms: C_21  and  O_23
REMARK                            x       y       z     vdW  Elec       q    Type
REMARK                         _______ _______ _______ _____ _____    ______ ____
ROOT
ATOM      1  C   UNL     1       3.316   7.204  17.807  0.00  0.00    +0.000 A 
ATOM      2  C   UNL     1       4.681   7.312  17.625  0.00  0.00    +0.000 A 
ATOM      3  N   UNL     1       5.260   6.065  17.688  0.00  0.00    +0.000 N 
ATOM      4  C   UNL     1       4.242   5.116  17.780  0.00  0.00    +0.000 A 
ATOM      5  C   UNL     1       4.262   3.709  17.824  0.00  0.00    +0.000 A 
ATOM      6  C   UNL     1       3.052   3.013  17.909  0.00  0.00    +0.000 A 
ATOM      7  C   UNL     1       1.841   3.689  17.937  0.00  0.00    +0.000 A 
ATOM      8  C   UNL     1       1.816   5.085  17.907  0.00  0.00    +0.000 A 
ATOM      9  C   UNL     1       3.024   5.813  17.842  0.00  0.00    +0.000 A 
ENDROOT
BRANCH   3  10
ATOM     10  C   UNL     1       6.725   5.806  17.677  0.00  0.00    +0.000 C 
ATOM     11  C   UNL     1       7.503   7.130  17.517  0.00  0.00    +0.000 C 
ATOM     12  C   UNL     1       7.147   5.085  18.976  0.00  0.00    +0.000 C 
BRANCH  10  13
ATOM     13  C   UNL     1       7.168   4.876  16.494  0.00  0.00    +0.000 C 
BRANCH  13  14
ATOM     14  O   UNL     1       6.726   5.394  15.228  0.00  0.00    +0.000 OA
BRANCH  14  15
ATOM     15  C   UNL     1       5.919   4.441  14.519  0.00  0.00    +0.000 C 
BRANCH  15  16
ATOM     16  C   UNL     1       6.580   4.128  13.184  0.00  0.00    +0.000 C 
ATOM     17  O   UNL     1       6.255   3.209  12.449  0.00  0.00    +0.000 OA
BRANCH  16  18
ATOM     18  O   UNL     1       7.574   5.003  12.884  0.00  0.00    +0.000 OA
ATOM     19  H   UNL     1       8.337   4.811  13.479  0.00  0.00    +0.000 HD
ENDBRANCH  16  18
ENDBRANCH  15  16
ENDBRANCH  14  15
ENDBRANCH  13  14
ENDBRANCH  10  13
ENDBRANCH   3  10
BRANCH   1  20
ATOM     20  C   UNL     1       2.402   8.332  17.919  0.00  0.00    +0.000 C 
ATOM     21  O   UNL     1       2.090   9.052  16.968  0.00  0.00    +0.000 OA
BRANCH  20  23
ATOM     22  N   UNL     1       0.943   9.754  19.280  0.00  0.00    +0.000 N 
ATOM     23  C   UNL     1       1.732   8.612  19.260  0.00  0.00    +0.000 C 
ATOM     24  O   UNL     1       1.913   7.806  20.162  0.00  0.00    +0.000 OA
ATOM     25  H   UNL     1       0.931  10.313  18.435  0.00  0.00    +0.000 HD
BRANCH  22  29
ATOM     26  C   UNL     1      -1.269  11.279  22.464  0.00  0.00    +0.000 A 
ATOM     27  C   UNL     1      -0.339  10.297  22.748  0.00  0.00    +0.000 A 
ATOM     28  C   UNL     1       0.406   9.766  21.698  0.00  0.00    +0.000 A 
ATOM     29  C   UNL     1       0.210  10.222  20.396  0.00  0.00    +0.000 A 
ATOM     30  C   UNL     1      -0.764  11.206  20.219  0.00  0.00    +0.000 A 
ATOM     31  N   UNL     1      -1.505  11.747  21.220  0.00  0.00    +0.000 NA
BRANCH  26  33
ATOM     32  C   UNL     1      -1.965  13.197  23.602  0.00  0.00    +0.000 C 
ATOM     33  O   UNL     1      -1.968  11.777  23.546  0.00  0.00    +0.000 OA
ENDBRANCH  26  33
ENDBRANCH  22  29
ENDBRANCH  20  23
ENDBRANCH   1  20
TORSDOF 10
ENDMDL
MODEL 5
REMARK VINA RESULT:      -7.0      2.282      8.593
REMARK  Name = 
REMARK  13 active torsions:
REMARK  status: ('A' for Active; 'I' for Inactive)
REMARK    1  A    between atoms: C_1  and  O_2
REMARK    2  A    between atoms: O_2  and  C_3
REMARK    3  A    between atoms: C_6  and  N_7
REMARK    4  A    between atoms: C_8  and  C_10
REMARK    5  A    between atoms: C_10  and  C_12
REMARK    6  A    between atoms: N_14  and  C_15
REMARK    7  A    between atoms: C_15  and  C_16
REMARK    8  A    between atoms: C_15  and  C_17
REMARK    9  A    between atoms: C_15  and  C_18
REMARK   10  A    between atoms: C_18  and  O_19
REMARK   11  A    between atoms: O_19  and  C_20
REMARK   12  A    between atoms: C_20  and  C_21
REMARK   13  A    between atoms: C_21  and  O_23
REMARK                            x       y       z     vdW  Elec       q    Type
REMARK                         _______ _______ _______ _____ _____    ______ ____
ROOT
ATOM      1  C   UNL     1       3.141   6.713  17.957  0.00  0.00    +0.000 A 
ATOM      2  C   UNL     1       2.490   5.521  18.211  0.00  0.00    +0.000 A 
ATOM      3  N   UNL     1       3.320   4.465  17.913  0.00  0.00    +0.000 N 
ATOM      4  C   UNL     1       4.576   4.975  17.586  0.00  0.00    +0.000 A 
ATOM      5  C   UNL     1       5.793   4.351  17.251  0.00  0.00    +0.000 A 
ATOM      6  C   UNL     1       6.912   5.144  16.976  0.00  0.00    +0.000 A 
ATOM      7  C   UNL     1       6.839   6.527  17.041  0.00  0.00    +0.000 A 
ATOM      8  C   UNL     1       5.632   7.151  17.359  0.00  0.00    +0.000 A 
ATOM      9  C   UNL     1       4.481   6.376  17.623  0.00  0.00    +0.000 A 
ENDROOT
BRANCH   3  10
ATOM     10  C   UNL     1       2.914   3.034  17.927  0.00  0.00    +0.000 C 
ATOM     11  C   UNL     1       3.051   2.423  16.516  0.00  0.00    +0.000 C 
ATOM     12  C   UNL     1       3.772   2.247  18.942  0.00  0.00    +0.000 C 
BRANCH  10  13
ATOM     13  C   UNL     1       1.421   2.831  18.364  0.00  0.00    +0.000 C 
BRANCH  13  14
ATOM     14  O   UNL     1       1.330   2.384  19.727  0.00  0.00    +0.000 OA
BRANCH  14  15
ATOM     15  C   UNL     1       0.887   3.435  20.600  0.00  0.00    +0.000 C 
BRANCH  15  16
ATOM     16  C   UNL     1       2.007   3.773  21.574  0.00  0.00    +0.000 C 
ATOM     17  O   UNL     1       2.485   2.988  22.378  0.00  0.00    +0.000 OA
BRANCH  16  18
ATOM     18  O   UNL     1       2.438   5.053  21.440  0.00  0.00    +0.000 OA
ATOM     19  H   UNL     1       1.646   5.629  21.322  0.00  0.00    +0.000 HD
ENDBRANCH  16  18
ENDBRANCH  15  16
ENDBRANCH  14  15
ENDBRANCH  13  14
ENDBRANCH  10  13
ENDBRANCH   3  10
BRANCH   1  20
ATOM     20  C   UNL     1       2.526   8.029  18.046  0.00  0.00    +0.000 C 
ATOM     21  O   UNL     1       2.430   8.803  17.091  0.00  0.00    +0.000 OA
BRANCH  20  23
ATOM     22  N   UNL     1       1.221   9.675  19.308  0.00  0.00    +0.000 N 
ATOM     23  C   UNL     1       1.900   8.466  19.367  0.00  0.00    +0.000 C 
ATOM     24  O   UNL     1       2.016   7.713  20.324  0.00  0.00    +0.000 OA
ATOM     25  H   UNL     1       1.251  10.171  18.424  0.00  0.00    +0.000 HD
BRANCH  22  29
ATOM     26  C   UNL     1      -0.680  11.642  22.451  0.00  0.00    +0.000 A 
ATOM     27  C   UNL     1      -0.684  10.260  22.470  0.00  0.00    +0.000 A 
ATOM     28  C   UNL     1      -0.062   9.581  21.425  0.00  0.00    +0.000 A 
ATOM     29  C   UNL     1       0.547  10.289  20.390  0.00  0.00    +0.000 A 
ATOM     30  C   UNL     1       0.479  11.681  20.462  0.00  0.00    +0.000 A 
ATOM     31  N   UNL     1      -0.116  12.374  21.467  0.00  0.00    +0.000 NA
BRANCH  26  33
ATOM     32  C   UNL     1      -1.316  13.677  23.406  0.00  0.00    +0.000 C 
ATOM     33  O   UNL     1      -1.300  12.261  23.518  0.00  0.00    +0.000 OA
ENDBRANCH  26  33
ENDBRANCH  22  29
ENDBRANCH  20  23
ENDBRANCH   1  20
TORSDOF 10
ENDMDL
MODEL 6
REMARK VINA RESULT:      -6.9      1.122      1.176
REMARK  Name = 
REMARK  13 active torsions:
REMARK  status: ('A' for Active; 'I' for Inactive)
REMARK    1  A    between atoms: C_1  and  O_2
REMARK    2  A    between atoms: O_2  and  C_3
REMARK    3  A    between atoms: C_6  and  N_7
REMARK    4  A    between atoms: C_8  and  C_10
REMARK    5  A    between atoms: C_10  and  C_12
REMARK    6  A    between atoms: N_14  and  C_15
REMARK    7  A    between atoms: C_15  and  C_16
REMARK    8  A    between atoms: C_15  and  C_17
REMARK    9  A    between atoms: C_15  and  C_18
REMARK   10  A    between atoms: C_18  and  O_19
REMARK   11  A    between atoms: O_19  and  C_20
REMARK   12  A    between atoms: C_20  and  C_21
REMARK   13  A    between atoms: C_21  and  O_23
REMARK                            x       y       z     vdW  Elec       q    Type
REMARK                         _______ _______ _______ _____ _____    ______ ____
ROOT
ATOM      1  C   UNL     1       0.551  10.731  18.759  0.00  0.00    +0.000 A 
ATOM      2  C   UNL     1       0.594  11.520  19.892  0.00  0.00    +0.000 A 
ATOM      3  N   UNL     1      -0.651  12.053  20.136  0.00  0.00    +0.000 N 
ATOM      4  C   UNL     1      -1.549  11.498  19.225  0.00  0.00    +0.000 A 
ATOM      5  C   UNL     1      -2.939  11.649  19.056  0.00  0.00    +0.000 A 
ATOM      6  C   UNL     1      -3.581  10.939  18.036  0.00  0.00    +0.000 A 
ATOM      7  C   UNL     1      -2.872  10.084  17.206  0.00  0.00    +0.000 A 
ATOM      8  C   UNL     1      -1.492   9.941  17.361  0.00  0.00    +0.000 A 
ATOM      9  C   UNL     1      -0.814  10.662  18.369  0.00  0.00    +0.000 A 
ENDROOT
BRANCH   3  10
ATOM     10  C   UNL     1      -0.953  13.062  21.187  0.00  0.00    +0.000 C 
ATOM     11  C   UNL     1       0.343  13.775  21.634  0.00  0.00    +0.000 C 
ATOM     12  C   UNL     1      -1.979  14.088  20.660  0.00  0.00    +0.000 C 
BRANCH  10  13
ATOM     13  C   UNL     1      -1.586  12.427  22.474  0.00  0.00    +0.000 C 
BRANCH  13  14
ATOM     14  O   UNL     1      -0.624  11.644  23.199  0.00  0.00    +0.000 OA
BRANCH  14  15
ATOM     15  C   UNL     1      -0.974  10.251  23.209  0.00  0.00    +0.000 C 
BRANCH  15  16
ATOM     16  C   UNL     1       0.148   9.455  22.558  0.00  0.00    +0.000 C 
ATOM     17  O   UNL     1       1.327   9.540  22.866  0.00  0.00    +0.000 OA
BRANCH  16  18
ATOM     18  O   UNL     1      -0.308   8.613  21.595  0.00  0.00    +0.000 OA
ATOM     19  H   UNL     1      -0.552   7.760  22.028  0.00  0.00    +0.000 HD
ENDBRANCH  16  18
ENDBRANCH  15  16
ENDBRANCH  14  15
ENDBRANCH  13  14
ENDBRANCH  10  13
ENDBRANCH   3  10
BRANCH   1  20
ATOM     20  C   UNL     1       1.711  10.106  18.139  0.00  0.00    +0.000 C 
ATOM     21  O   UNL     1       2.620  10.740  17.599  0.00  0.00    +0.000 OA
BRANCH  20  23
ATOM     22  N   UNL     1       2.223   8.106  19.459  0.00  0.00    +0.000 N 
ATOM     23  C   UNL     1       1.861   8.590  18.210  0.00  0.00    +0.000 C 
ATOM     24  O   UNL     1       1.618   7.949  17.196  0.00  0.00    +0.000 OA
ATOM     25  H   UNL     1       2.404   8.797  20.179  0.00  0.00    +0.000 HD
BRANCH  22  29
ATOM     26  C   UNL     1       2.912   4.081  20.286  0.00  0.00    +0.000 A 
ATOM     27  C   UNL     1       1.773   4.654  20.818  0.00  0.00    +0.000 A 
ATOM     28  C   UNL     1       1.527   6.001  20.562  0.00  0.00    +0.000 A 
ATOM     29  C   UNL     1       2.415   6.743  19.786  0.00  0.00    +0.000 A 
ATOM     30  C   UNL     1       3.541   6.070  19.311  0.00  0.00    +0.000 A 
ATOM     31  N   UNL     1       3.810   4.759  19.539  0.00  0.00    +0.000 NA
BRANCH  26  33
ATOM     32  C   UNL     1       4.163   2.164  19.819  0.00  0.00    +0.000 C 
ATOM     33  O   UNL     1       3.098   2.741  20.562  0.00  0.00    +0.000 OA
ENDBRANCH  26  33
ENDBRANCH  22  29
ENDBRANCH  20  23
ENDBRANCH   1  20
TORSDOF 10
ENDMDL
MODEL 7
REMARK VINA RESULT:      -6.9      5.898      9.647
REMARK  Name = 
REMARK  13 active torsions:
REMARK  status: ('A' for Active; 'I' for Inactive)
REMARK    1  A    between atoms: C_1  and  O_2
REMARK    2  A    between atoms: O_2  and  C_3
REMARK    3  A    between atoms: C_6  and  N_7
REMARK    4  A    between atoms: C_8  and  C_10
REMARK    5  A    between atoms: C_10  and  C_12
REMARK    6  A    between atoms: N_14  and  C_15
REMARK    7  A    between atoms: C_15  and  C_16
REMARK    8  A    between atoms: C_15  and  C_17
REMARK    9  A    between atoms: C_15  and  C_18
REMARK   10  A    between atoms: C_18  and  O_19
REMARK   11  A    between atoms: O_19  and  C_20
REMARK   12  A    between atoms: C_20  and  C_21
REMARK   13  A    between atoms: C_21  and  O_23
REMARK                            x       y       z     vdW  Elec       q    Type
REMARK                         _______ _______ _______ _____ _____    ______ ____
ROOT
ATOM      1  C   UNL     1       6.589   5.945  18.152  0.00  0.00    +0.000 A 
ATOM      2  C   UNL     1       5.391   5.866  18.836  0.00  0.00    +0.000 A 
ATOM      3  N   UNL     1       4.414   5.364  18.006  0.00  0.00    +0.000 N 
ATOM      4  C   UNL     1       5.014   4.986  16.806  0.00  0.00    +0.000 A 
ATOM      5  C   UNL     1       4.501   4.380  15.642  0.00  0.00    +0.000 A 
ATOM      6  C   UNL     1       5.367   4.107  14.579  0.00  0.00    +0.000 A 
ATOM      7  C   UNL     1       6.717   4.412  14.662  0.00  0.00    +0.000 A 
ATOM      8  C   UNL     1       7.228   5.026  15.807  0.00  0.00    +0.000 A 
ATOM      9  C   UNL     1       6.372   5.331  16.889  0.00  0.00    +0.000 A 
ENDROOT
BRANCH   3  10
ATOM     10  C   UNL     1       2.970   5.271  18.353  0.00  0.00    +0.000 C 
ATOM     11  C   UNL     1       2.789   5.211  19.885  0.00  0.00    +0.000 C 
ATOM     12  C   UNL     1       2.204   6.476  17.765  0.00  0.00    +0.000 C 
BRANCH  10  13
ATOM     13  C   UNL     1       2.287   3.987  17.767  0.00  0.00    +0.000 C 
BRANCH  13  14
ATOM     14  O   UNL     1       2.395   2.876  18.673  0.00  0.00    +0.000 OA
BRANCH  14  15
ATOM     15  C   UNL     1       3.305   1.879  18.183  0.00  0.00    +0.000 C 
BRANCH  15  16
ATOM     16  C   UNL     1       4.392   1.648  19.222  0.00  0.00    +0.000 C 
ATOM     17  O   UNL     1       4.830   2.509  19.970  0.00  0.00    +0.000 OA
BRANCH  16  18
ATOM     18  O   UNL     1       4.819   0.359  19.245  0.00  0.00    +0.000 OA
ATOM     19  H   UNL     1       4.804   0.051  20.182  0.00  0.00    +0.000 HD
ENDBRANCH  16  18
ENDBRANCH  15  16
ENDBRANCH  14  15
ENDBRANCH  13  14
ENDBRANCH  10  13
ENDBRANCH   3  10
BRANCH   1  20
ATOM     20  C   UNL     1       7.808   6.539  18.682  0.00  0.00    +0.000 C 
ATOM     21  O   UNL     1       8.631   5.918  19.359  0.00  0.00    +0.000 OA
BRANCH  20  23
ATOM     22  N   UNL     1       8.834   8.671  19.322  0.00  0.00    +0.000 N 
ATOM     23  C   UNL     1       8.138   7.987  18.334  0.00  0.00    +0.000 C 
ATOM     24  O   UNL     1       7.803   8.394  17.230  0.00  0.00    +0.000 OA
ATOM     25  H   UNL     1       9.005   8.170  20.186  0.00  0.00    +0.000 HD
BRANCH  22  29
ATOM     26  C   UNL     1      10.151  12.601  18.900  0.00  0.00    +0.000 A 
ATOM     27  C   UNL     1       9.946  12.132  20.184  0.00  0.00    +0.000 A 
ATOM     28  C   UNL     1       9.497  10.824  20.349  0.00  0.00    +0.000 A 
ATOM     29  C   UNL     1       9.264  10.015  19.238  0.00  0.00    +0.000 A 
ATOM     30  C   UNL     1       9.489  10.594  17.988  0.00  0.00    +0.000 A 
ATOM     31  N   UNL     1       9.929  11.863  17.792  0.00  0.00    +0.000 NA
BRANCH  26  33
ATOM     32  C   UNL     1       9.874  14.674  17.860  0.00  0.00    +0.000 C 
ATOM     33  O   UNL     1      10.608  13.899  18.799  0.00  0.00    +0.000 OA
ENDBRANCH  26  33
ENDBRANCH  22  29
ENDBRANCH  20  23
ENDBRANCH   1  20
TORSDOF 10
ENDMDL
MODEL 8
REMARK VINA RESULT:      -6.8      3.003      9.388
REMARK  Name = 
REMARK  13 active torsions:
REMARK  status: ('A' for Active; 'I' for Inactive)
REMARK    1  A    between atoms: C_1  and  O_2
REMARK    2  A    between atoms: O_2  and  C_3
REMARK    3  A    between atoms: C_6  and  N_7
REMARK    4  A    between atoms: C_8  and  C_10
REMARK    5  A    between atoms: C_10  and  C_12
REMARK    6  A    between atoms: N_14  and  C_15
REMARK    7  A    between atoms: C_15  and  C_16
REMARK    8  A    between atoms: C_15  and  C_17
REMARK    9  A    between atoms: C_15  and  C_18
REMARK   10  A    between atoms: C_18  and  O_19
REMARK   11  A    between atoms: O_19  and  C_20
REMARK   12  A    between atoms: C_20  and  C_21
REMARK   13  A    between atoms: C_21  and  O_23
REMARK                            x       y       z     vdW  Elec       q    Type
REMARK                         _______ _______ _______ _____ _____    ______ ____
ROOT
ATOM      1  C   UNL     1       3.240   6.780  18.410  0.00  0.00    +0.000 A 
ATOM      2  C   UNL     1       4.545   6.972  18.002  0.00  0.00    +0.000 A 
ATOM      3  N   UNL     1       5.299   5.865  18.317  0.00  0.00    +0.000 N 
ATOM      4  C   UNL     1       4.445   4.883  18.818  0.00  0.00    +0.000 A 
ATOM      5  C   UNL     1       4.671   3.559  19.244  0.00  0.00    +0.000 A 
ATOM      6  C   UNL     1       3.590   2.797  19.697  0.00  0.00    +0.000 A 
ATOM      7  C   UNL     1       2.307   3.321  19.721  0.00  0.00    +0.000 A 
ATOM      8  C   UNL     1       2.079   4.637  19.314  0.00  0.00    +0.000 A 
ATOM      9  C   UNL     1       3.156   5.437  18.869  0.00  0.00    +0.000 A 
ENDROOT
BRANCH   3  10
ATOM     10  C   UNL     1       6.775   5.767  18.157  0.00  0.00    +0.000 C 
ATOM     11  C   UNL     1       7.313   6.991  17.383  0.00  0.00    +0.000 C 
ATOM     12  C   UNL     1       7.455   5.663  19.540  0.00  0.00    +0.000 C 
BRANCH  10  13
ATOM     13  C   UNL     1       7.217   4.495  17.353  0.00  0.00    +0.000 C 
BRANCH  13  14
ATOM     14  O   UNL     1       7.315   4.773  15.946  0.00  0.00    +0.000 OA
BRANCH  14  15
ATOM     15  C   UNL     1       6.264   4.133  15.206  0.00  0.00    +0.000 C 
BRANCH  15  16
ATOM     16  C   UNL     1       6.539   4.295  13.718  0.00  0.00    +0.000 C 
ATOM     17  O   UNL     1       5.985   3.654  12.837  0.00  0.00    +0.000 OA
BRANCH  16  18
ATOM     18  O   UNL     1       7.466   5.254  13.466  0.00  0.00    +0.000 OA
ATOM     19  H   UNL     1       7.309   5.595  12.553  0.00  0.00    +0.000 HD
ENDBRANCH  16  18
ENDBRANCH  15  16
ENDBRANCH  14  15
ENDBRANCH  13  14
ENDBRANCH  10  13
ENDBRANCH   3  10
BRANCH   1  20
ATOM     20  C   UNL     1       2.193   7.789  18.344  0.00  0.00    +0.000 C 
ATOM     21  O   UNL     1       1.656   8.147  17.294  0.00  0.00    +0.000 OA
BRANCH  20  23
ATOM     22  N   UNL     1       1.062   9.638  19.488  0.00  0.00    +0.000 N 
ATOM     23  C   UNL     1       1.671   8.401  19.640  0.00  0.00    +0.000 C 
ATOM     24  O   UNL     1       1.797   7.745  20.666  0.00  0.00    +0.000 OA
ATOM     25  H   UNL     1       1.071  10.037  18.555  0.00  0.00    +0.000 HD
BRANCH  22  29
ATOM     26  C   UNL     1      -0.753  11.762  22.578  0.00  0.00    +0.000 A 
ATOM     27  C   UNL     1       0.152  12.442  21.785  0.00  0.00    +0.000 A 
ATOM     28  C   UNL     1       0.778  11.749  20.751  0.00  0.00    +0.000 A 
ATOM     29  C   UNL     1       0.490  10.404  20.530  0.00  0.00    +0.000 A 
ATOM     30  C   UNL     1      -0.428   9.812  21.400  0.00  0.00    +0.000 A 
ATOM     31  N   UNL     1      -1.058  10.458  22.414  0.00  0.00    +0.000 NA
BRANCH  26  33
ATOM     32  C   UNL     1      -1.240  13.905  23.374  0.00  0.00    +0.000 C 
ATOM     33  O   UNL     1      -1.352  12.502  23.578  0.00  0.00    +0.000 OA
ENDBRANCH  26  33
ENDBRANCH  22  29
ENDBRANCH  20  23
ENDBRANCH   1  20
TORSDOF 10
ENDMDL
MODEL 9
REMARK VINA RESULT:      -6.8      5.685      9.506
REMARK  Name = 
REMARK  13 active torsions:
REMARK  status: ('A' for Active; 'I' for Inactive)
REMARK    1  A    between atoms: C_1  and  O_2
REMARK    2  A    between atoms: O_2  and  C_3
REMARK    3  A    between atoms: C_6  and  N_7
REMARK    4  A    between atoms: C_8  and  C_10
REMARK    5  A    between atoms: C_10  and  C_12
REMARK    6  A    between atoms: N_14  and  C_15
REMARK    7  A    between atoms: C_15  and  C_16
REMARK    8  A    between atoms: C_15  and  C_17
REMARK    9  A    between atoms: C_15  and  C_18
REMARK   10  A    between atoms: C_18  and  O_19
REMARK   11  A    between atoms: O_19  and  C_20
REMARK   12  A    between atoms: C_20  and  C_21
REMARK   13  A    between atoms: C_21  and  O_23
REMARK                            x       y       z     vdW  Elec       q    Type
REMARK                         _______ _______ _______ _____ _____    ______ ____
ROOT
ATOM      1  C   UNL     1       6.533   5.988  18.210  0.00  0.00    +0.000 A 
ATOM      2  C   UNL     1       5.336   5.987  18.900  0.00  0.00    +0.000 A 
ATOM      3  N   UNL     1       4.343   5.456  18.110  0.00  0.00    +0.000 N 
ATOM      4  C   UNL     1       4.926   4.980  16.936  0.00  0.00    +0.000 A 
ATOM      5  C   UNL     1       4.393   4.310  15.818  0.00  0.00    +0.000 A 
ATOM      6  C   UNL     1       5.247   3.943  14.774  0.00  0.00    +0.000 A 
ATOM      7  C   UNL     1       6.604   4.217  14.832  0.00  0.00    +0.000 A 
ATOM      8  C   UNL     1       7.137   4.894  15.931  0.00  0.00    +0.000 A 
ATOM      9  C   UNL     1       6.294   5.295  16.992  0.00  0.00    +0.000 A 
ENDROOT
BRANCH   3  10
ATOM     10  C   UNL     1       2.899   5.425  18.466  0.00  0.00    +0.000 C 
ATOM     11  C   UNL     1       2.724   5.427  20.001  0.00  0.00    +0.000 C 
ATOM     12  C   UNL     1       2.170   6.632  17.838  0.00  0.00    +0.000 C 
BRANCH  10  13
ATOM     13  C   UNL     1       2.169   4.143  17.931  0.00  0.00    +0.000 C 
BRANCH  13  14
ATOM     14  O   UNL     1       1.712   3.312  19.011  0.00  0.00    +0.000 OA
BRANCH  14  15
ATOM     15  C   UNL     1       2.115   1.945  18.833  0.00  0.00    +0.000 C 
BRANCH  15  16
ATOM     16  C   UNL     1       3.630   1.856  18.957  0.00  0.00    +0.000 C 
ATOM     17  O   UNL     1       4.267   2.227  19.931  0.00  0.00    +0.000 OA
BRANCH  16  18
ATOM     18  O   UNL     1       4.205   1.296  17.862  0.00  0.00    +0.000 OA
ATOM     19  H   UNL     1       3.540   1.304  17.133  0.00  0.00    +0.000 HD
ENDBRANCH  16  18
ENDBRANCH  15  16
ENDBRANCH  14  15
ENDBRANCH  13  14
ENDBRANCH  10  13
ENDBRANCH   3  10
BRANCH   1  20
ATOM     20  C   UNL     1       7.769   6.585  18.693  0.00  0.00    +0.000 C 
ATOM     21  O   UNL     1       8.567   5.998  19.428  0.00  0.00    +0.000 OA
BRANCH  20  23
ATOM     22  N   UNL     1       8.764   8.769  19.190  0.00  0.00    +0.000 N 
ATOM     23  C   UNL     1       8.150   7.985  18.223  0.00  0.00    +0.000 C 
ATOM     24  O   UNL     1       7.920   8.271  17.056  0.00  0.00    +0.000 OA
ATOM     25  H   UNL     1       8.850   8.364  20.116  0.00  0.00    +0.000 HD
BRANCH  22  29
ATOM     26  C   UNL     1      10.168  12.672  18.808  0.00  0.00    +0.000 A 
ATOM     27  C   UNL     1       9.278  12.220  17.852  0.00  0.00    +0.000 A 
ATOM     28  C   UNL     1       8.802  10.915  17.955  0.00  0.00    +0.000 A 
ATOM     29  C   UNL     1       9.219  10.094  19.001  0.00  0.00    +0.000 A 
ATOM     30  C   UNL     1      10.132  10.647  19.901  0.00  0.00    +0.000 A 
ATOM     31  N   UNL     1      10.613  11.914  19.832  0.00  0.00    +0.000 NA
BRANCH  26  33
ATOM     32  C   UNL     1      10.600  14.699  19.887  0.00  0.00    +0.000 C 
ATOM     33  O   UNL     1      10.595  13.977  18.663  0.00  0.00    +0.000 OA
ENDBRANCH  26  33
ENDBRANCH  22  29
ENDBRANCH  20  23
ENDBRANCH   1  20
TORSDOF 10
ENDMDL
