MODEL 1
REMARK VINA RESULT:      -6.7      0.000      0.000
REMARK  Name = 
REMARK  7 active torsions:
REMARK  status: ('A' for Active; 'I' for Inactive)
REMARK    1  A    between atoms: C_2  and  C_3
REMARK    2  A    between atoms: C_3  and  N_4
REMARK    3  A    between atoms: C_5  and  C_6
REMARK    4  A    between atoms: C_8  and  C_9
REMARK    5  A    between atoms: N_13  and  C_14
REMARK    6  A    between atoms: C_14  and  C_15
REMARK    7  A    between atoms: C_18  and  C_19
REMARK                            x       y       z     vdW  Elec       q    Type
REMARK                         _______ _______ _______ _____ _____    ______ ____
ROOT
ATOM      1  N   UNL     1       4.335   4.707  17.126  0.00  0.00    +0.000 N 
ATOM      2  C   UNL     1       3.233   4.035  17.533  0.00  0.00    +0.000 A 
ATOM      3  C   UNL     1       2.972   2.560  17.410  0.00  0.00    +0.000 C 
ATOM      4  C   UNL     1       2.358   4.893  18.148  0.00  0.00    +0.000 A 
ATOM      5  C   UNL     1       2.939   6.150  18.144  0.00  0.00    +0.000 A 
ATOM      6  C   UNL     1       4.167   6.009  17.482  0.00  0.00    +0.000 A 
ATOM      7  C   UNL     1       5.203   7.070  17.200  0.00  0.00    +0.000 C 
ENDROOT
BRANCH   5   8
ATOM      8  C   UNL     1       2.321   7.343  18.798  0.00  0.00    +0.000 C 
ATOM      9  N   UNL     1       2.050   7.304  20.055  0.00  0.00    +0.000 NA
ATOM     10  N   UNL     1       1.390   8.271  20.781  0.00  0.00    +0.000 NA
ATOM     11  C   UNL     1       1.019   9.426  20.350  0.00  0.00    +0.000 C 
ATOM     12  N   UNL     1       0.331  10.307  21.226  0.00  0.00    +0.000 N 
ATOM     13  S   UNL     1       1.346  10.017  18.694  0.00  0.00    +0.000 S 
ATOM     14  C   UNL     1       1.956   8.503  17.907  0.00  0.00    +0.000 C 
ATOM     15  H   UNL     1       0.155  11.275  20.914  0.00  0.00    +0.000 HD
BRANCH  12  16
ATOM     16  C   UNL     1      -0.171   9.862  22.510  0.00  0.00    +0.000 C 
ATOM     17  C   UNL     1      -1.164  10.863  23.086  0.00  0.00    +0.000 C 
ENDBRANCH  12  16
ENDBRANCH   5   8
BRANCH   1  18
ATOM     18  C   UNL     1       5.538   4.132  16.513  0.00  0.00    +0.000 C 
BRANCH  18  20
ATOM     19  C   UNL     1       6.107   3.886  14.113  0.00  0.00    +0.000 C 
ATOM     20  C   UNL     1       5.652   4.649  15.107  0.00  0.00    +0.000 C 
ENDBRANCH  18  20
ENDBRANCH   1  18
TORSDOF 4
ENDMDL
MODEL 2
REMARK VINA RESULT:      -6.6      3.450      7.545
REMARK  Name = 
REMARK  7 active torsions:
REMARK  status: ('A' for Active; 'I' for Inactive)
REMARK    1  A    between atoms: C_2  and  C_3
REMARK    2  A    between atoms: C_3  and  N_4
REMARK    3  A    between atoms: C_5  and  C_6
REMARK    4  A    between atoms: C_8  and  C_9
REMARK    5  A    between atoms: N_13  and  C_14
REMARK    6  A    between atoms: C_14  and  C_15
REMARK    7  A    between atoms: C_18  and  C_19
REMARK                            x       y       z     vdW  Elec       q    Type
REMARK                         _______ _______ _______ _____ _____    ______ ____
ROOT
ATOM      1  N   UNL     1       1.788   4.446  19.232  0.00  0.00    +0.000 N 
ATOM      2  C   UNL     1       2.181   5.672  19.652  0.00  0.00    +0.000 A 
ATOM      3  C   UNL     1       1.557   6.502  20.736  0.00  0.00    +0.000 C 
ATOM      4  C   UNL     1       3.303   6.065  18.970  0.00  0.00    +0.000 A 
ATOM      5  C   UNL     1       3.640   5.041  18.100  0.00  0.00    +0.000 A 
ATOM      6  C   UNL     1       2.665   4.048  18.272  0.00  0.00    +0.000 A 
ATOM      7  C   UNL     1       2.555   2.716  17.570  0.00  0.00    +0.000 C 
ENDROOT
BRANCH   5   8
ATOM      8  C   UNL     1       4.860   5.064  17.238  0.00  0.00    +0.000 C 
ATOM      9  N   UNL     1       4.765   5.474  16.022  0.00  0.00    +0.000 NA
ATOM     10  N   UNL     1       5.763   5.458  15.073  0.00  0.00    +0.000 NA
ATOM     11  C   UNL     1       6.992   5.127  15.265  0.00  0.00    +0.000 C 
ATOM     12  N   UNL     1       7.899   5.149  14.171  0.00  0.00    +0.000 N 
ATOM     13  S   UNL     1       7.653   4.656  16.858  0.00  0.00    +0.000 S 
ATOM     14  C   UNL     1       6.129   4.502  17.826  0.00  0.00    +0.000 C 
ATOM     15  H   UNL     1       8.904   5.010  14.361  0.00  0.00    +0.000 HD
BRANCH  12  16
ATOM     16  C   UNL     1       7.438   5.308  12.807  0.00  0.00    +0.000 C 
ATOM     17  C   UNL     1       7.026   3.968  12.210  0.00  0.00    +0.000 C 
ENDBRANCH  12  16
ENDBRANCH   5   8
BRANCH   1  18
ATOM     18  C   UNL     1       0.688   3.641  19.779  0.00  0.00    +0.000 C 
BRANCH  18  20
ATOM     19  C   UNL     1       1.664   2.873  21.925  0.00  0.00    +0.000 C 
ATOM     20  C   UNL     1       1.268   2.591  20.683  0.00  0.00    +0.000 C 
ENDBRANCH  18  20
ENDBRANCH   1  18
TORSDOF 4
ENDMDL
MODEL 3
REMARK VINA RESULT:      -6.5      2.279      7.283
REMARK  Name = 
REMARK  7 active torsions:
REMARK  status: ('A' for Active; 'I' for Inactive)
REMARK    1  A    between atoms: C_2  and  C_3
REMARK    2  A    between atoms: C_3  and  N_4
REMARK    3  A    between atoms: C_5  and  C_6
REMARK    4  A    between atoms: C_8  and  C_9
REMARK    5  A    between atoms: N_13  and  C_14
REMARK    6  A    between atoms: C_14  and  C_15
REMARK    7  A    between atoms: C_18  and  C_19
REMARK                            x       y       z     vdW  Elec       q    Type
REMARK                         _______ _______ _______ _____ _____    ______ ____
ROOT
ATOM      1  N   UNL     1       0.751   9.594  19.925  0.00  0.00    +0.000 N 
ATOM      2  C   UNL     1       0.619   8.880  21.067  0.00  0.00    +0.000 A 
ATOM      3  C   UNL     1      -0.231   9.222  22.258  0.00  0.00    +0.000 C 
ATOM      4  C   UNL     1       1.351   7.724  20.986  0.00  0.00    +0.000 A 
ATOM      5  C   UNL     1       1.952   7.700  19.739  0.00  0.00    +0.000 A 
ATOM      6  C   UNL     1       1.574   8.891  19.102  0.00  0.00    +0.000 A 
ATOM      7  C   UNL     1       1.950   9.372  17.722  0.00  0.00    +0.000 C 
ENDROOT
BRANCH   5   8
ATOM      8  C   UNL     1       2.773   6.554  19.244  0.00  0.00    +0.000 C 
ATOM      9  N   UNL     1       3.516   6.712  18.206  0.00  0.00    +0.000 NA
ATOM     10  N   UNL     1       4.246   5.734  17.565  0.00  0.00    +0.000 NA
ATOM     11  C   UNL     1       4.393   4.516  17.953  0.00  0.00    +0.000 C 
ATOM     12  N   UNL     1       5.170   3.623  17.167  0.00  0.00    +0.000 N 
ATOM     13  S   UNL     1       3.690   3.866  19.464  0.00  0.00    +0.000 S 
ATOM     14  C   UNL     1       2.599   5.231  19.946  0.00  0.00    +0.000 C 
ATOM     15  H   UNL     1       5.389   2.691  17.551  0.00  0.00    +0.000 HD
BRANCH  12  16
ATOM     16  C   UNL     1       5.608   3.974  15.831  0.00  0.00    +0.000 C 
ATOM     17  C   UNL     1       7.033   4.510  15.847  0.00  0.00    +0.000 C 
ENDBRANCH  12  16
ENDBRANCH   5   8
BRANCH   1  18
ATOM     18  C   UNL     1       0.054  10.841  19.583  0.00  0.00    +0.000 C 
BRANCH  18  20
ATOM     19  C   UNL     1      -1.554  10.278  17.783  0.00  0.00    +0.000 C 
ATOM     20  C   UNL     1      -1.318  10.499  19.077  0.00  0.00    +0.000 C 
ENDBRANCH  18  20
ENDBRANCH   1  18
TORSDOF 4
ENDMDL
MODEL 4
REMARK VINA RESULT:      -6.4      1.842      2.138
REMARK  Name = 
REMARK  7 active torsions:
REMARK  status: ('A' for Active; 'I' for Inactive)
REMARK    1  A    between atoms: C_2  and  C_3
REMARK    2  A    between atoms: C_3  and  N_4
REMARK    3  A    between atoms: C_5  and  C_6
REMARK    4  A    between atoms: C_8  and  C_9
REMARK    5  A    between atoms: N_13  and  C_14
REMARK    6  A    between atoms: C_14  and  C_15
REMARK    7  A    between atoms: C_18  and  C_19
REMARK                            x       y       z     vdW  Elec       q    Type
REMARK                         _______ _______ _______ _____ _____    ______ ____
ROOT
ATOM      1  N   UNL     1       4.250   4.752  17.204  0.00  0.00    +0.000 N 
ATOM      2  C   UNL     1       3.078   4.150  17.516  0.00  0.00    +0.000 A 
ATOM      3  C   UNL     1       2.755   2.687  17.414  0.00  0.00    +0.000 C 
ATOM      4  C   UNL     1       2.192   5.073  18.009  0.00  0.00    +0.000 A 
ATOM      5  C   UNL     1       2.835   6.299  18.024  0.00  0.00    +0.000 A 
ATOM      6  C   UNL     1       4.116   6.073  17.499  0.00  0.00    +0.000 A 
ATOM      7  C   UNL     1       5.229   7.070  17.291  0.00  0.00    +0.000 C 
ENDROOT
BRANCH   5   8
ATOM      8  C   UNL     1       2.218   7.544  18.572  0.00  0.00    +0.000 C 
ATOM      9  N   UNL     1       2.031   8.551  17.794  0.00  0.00    +0.000 NA
ATOM     10  N   UNL     1       1.574   9.797  18.164  0.00  0.00    +0.000 NA
ATOM     11  C   UNL     1       1.158  10.140  19.332  0.00  0.00    +0.000 C 
ATOM     12  N   UNL     1       0.731  11.477  19.555  0.00  0.00    +0.000 N 
ATOM     13  S   UNL     1       1.052   9.013  20.717  0.00  0.00    +0.000 S 
ATOM     14  C   UNL     1       1.937   7.577  20.053  0.00  0.00    +0.000 C 
ATOM     15  H   UNL     1       0.279  11.707  20.453  0.00  0.00    +0.000 HD
BRANCH  12  16
ATOM     16  C   UNL     1       0.968  12.521  18.579  0.00  0.00    +0.000 C 
ATOM     17  C   UNL     1      -0.232  13.454  18.476  0.00  0.00    +0.000 C 
ENDBRANCH  12  16
ENDBRANCH   5   8
BRANCH   1  18
ATOM     18  C   UNL     1       5.478   4.096  16.737  0.00  0.00    +0.000 C 
BRANCH  18  20
ATOM     19  C   UNL     1       6.406   4.753  14.535  0.00  0.00    +0.000 C 
ATOM     20  C   UNL     1       5.480   4.098  15.235  0.00  0.00    +0.000 C 
ENDBRANCH  18  20
ENDBRANCH   1  18
TORSDOF 4
ENDMDL
MODEL 5
REMARK VINA RESULT:      -6.4      1.170      2.619
REMARK  Name = 
REMARK  7 active torsions:
REMARK  status: ('A' for Active; 'I' for Inactive)
REMARK    1  A    between atoms: C_2  and  C_3
REMARK    2  A    between atoms: C_3  and  N_4
REMARK    3  A    between atoms: C_5  and  C_6
REMARK    4  A    between atoms: C_8  and  C_9
REMARK    5  A    between atoms: N_13  and  C_14
REMARK    6  A    between atoms: C_14  and  C_15
REMARK    7  A    between atoms: C_18  and  C_19
REMARK                            x       y       z     vdW  Elec       q    Type
REMARK                         _______ _______ _______ _____ _____    ______ ____
ROOT
ATOM      1  N   UNL     1       3.654   4.476  18.569  0.00  0.00    +0.000 N 
ATOM      2  C   UNL     1       4.108   5.213  17.529  0.00  0.00    +0.000 A 
ATOM      3  C   UNL     1       4.925   4.732  16.364  0.00  0.00    +0.000 C 
ATOM      4  C   UNL     1       3.670   6.507  17.643  0.00  0.00    +0.000 A 
ATOM      5  C   UNL     1       2.897   6.584  18.790  0.00  0.00    +0.000 A 
ATOM      6  C   UNL     1       2.918   5.302  19.360  0.00  0.00    +0.000 A 
ATOM      7  C   UNL     1       2.238   4.830  20.621  0.00  0.00    +0.000 C 
ENDROOT
BRANCH   5   8
ATOM      8  C   UNL     1       2.175   7.821  19.213  0.00  0.00    +0.000 C 
ATOM      9  N   UNL     1       1.822   7.957  20.442  0.00  0.00    +0.000 NA
ATOM     10  N   UNL     1       1.064   8.980  20.968  0.00  0.00    +0.000 NA
ATOM     11  C   UNL     1       0.664  10.031  20.342  0.00  0.00    +0.000 C 
ATOM     12  N   UNL     1      -0.128  10.991  21.028  0.00  0.00    +0.000 N 
ATOM     13  S   UNL     1       1.071  10.384  18.637  0.00  0.00    +0.000 S 
ATOM     14  C   UNL     1       1.812   8.808  18.132  0.00  0.00    +0.000 C 
ATOM     15  H   UNL     1      -0.332  11.888  20.559  0.00  0.00    +0.000 HD
BRANCH  12  16
ATOM     16  C   UNL     1      -0.692  10.716  22.333  0.00  0.00    +0.000 C 
ATOM     17  C   UNL     1      -1.296  11.974  22.944  0.00  0.00    +0.000 C 
ENDBRANCH  12  16
ENDBRANCH   5   8
BRANCH   1  18
ATOM     18  C   UNL     1       3.826   3.030  18.762  0.00  0.00    +0.000 C 
BRANCH  18  20
ATOM     19  C   UNL     1       1.589   1.999  18.476  0.00  0.00    +0.000 C 
ATOM     20  C   UNL     1       2.778   2.313  17.959  0.00  0.00    +0.000 C 
ENDBRANCH  18  20
ENDBRANCH   1  18
TORSDOF 4
ENDMDL
MODEL 6
REMARK VINA RESULT:      -6.3      2.203      2.842
REMARK  Name = 
REMARK  7 active torsions:
REMARK  status: ('A' for Active; 'I' for Inactive)
REMARK    1  A    between atoms: C_2  and  C_3
REMARK    2  A    between atoms: C_3  and  N_4
REMARK    3  A    between atoms: C_5  and  C_6
REMARK    4  A    between atoms: C_8  and  C_9
REMARK    5  A    between atoms: N_13  and  C_14
REMARK    6  A    between atoms: C_14  and  C_15
REMARK    7  A    between atoms: C_18  and  C_19
REMARK                            x       y       z     vdW  Elec       q    Type
REMARK                         _______ _______ _______ _____ _____    ______ ____
ROOT
ATOM      1  N   UNL     1       3.340   3.936  19.980  0.00  0.00    +0.000 N 
ATOM      2  C   UNL     1       2.241   3.910  20.771  0.00  0.00    +0.000 A 
ATOM      3  C   UNL     1       1.774   2.776  21.638  0.00  0.00    +0.000 C 
ATOM      4  C   UNL     1       1.600   5.121  20.724  0.00  0.00    +0.000 A 
ATOM      5  C   UNL     1       2.331   5.945  19.885  0.00  0.00    +0.000 A 
ATOM      6  C   UNL     1       3.405   5.173  19.420  0.00  0.00    +0.000 A 
ATOM      7  C   UNL     1       4.510   5.583  18.477  0.00  0.00    +0.000 C 
ENDROOT
BRANCH   5   8
ATOM      8  C   UNL     1       1.990   7.379  19.642  0.00  0.00    +0.000 C 
ATOM      9  N   UNL     1       1.465   8.073  20.589  0.00  0.00    +0.000 NA
ATOM     10  N   UNL     1       1.000   9.366  20.496  0.00  0.00    +0.000 NA
ATOM     11  C   UNL     1       1.103  10.141  19.473  0.00  0.00    +0.000 C 
ATOM     12  N   UNL     1       0.554  11.450  19.533  0.00  0.00    +0.000 N 
ATOM     13  S   UNL     1       1.934   9.677  17.959  0.00  0.00    +0.000 S 
ATOM     14  C   UNL     1       2.196   7.907  18.244  0.00  0.00    +0.000 C 
ATOM     15  H   UNL     1       0.756  12.105  18.761  0.00  0.00    +0.000 HD
BRANCH  12  16
ATOM     16  C   UNL     1      -0.317  11.859  20.616  0.00  0.00    +0.000 C 
ATOM     17  C   UNL     1       0.305  12.994  21.419  0.00  0.00    +0.000 C 
ENDBRANCH  12  16
ENDBRANCH   5   8
BRANCH   1  18
ATOM     18  C   UNL     1       4.341   2.871  19.833  0.00  0.00    +0.000 C 
BRANCH  18  20
ATOM     19  C   UNL     1       3.201   2.103  17.770  0.00  0.00    +0.000 C 
ATOM     20  C   UNL     1       3.777   1.806  18.935  0.00  0.00    +0.000 C 
ENDBRANCH  18  20
ENDBRANCH   1  18
TORSDOF 4
ENDMDL
MODEL 7
REMARK VINA RESULT:      -6.3      0.820      1.135
REMARK  Name = 
REMARK  7 active torsions:
REMARK  status: ('A' for Active; 'I' for Inactive)
REMARK    1  A    between atoms: C_2  and  C_3
REMARK    2  A    between atoms: C_3  and  N_4
REMARK    3  A    between atoms: C_5  and  C_6
REMARK    4  A    between atoms: C_8  and  C_9
REMARK    5  A    between atoms: N_13  and  C_14
REMARK    6  A    between atoms: C_14  and  C_15
REMARK    7  A    between atoms: C_18  and  C_19
REMARK                            x       y       z     vdW  Elec       q    Type
REMARK                         _______ _______ _______ _____ _____    ______ ____
ROOT
ATOM      1  N   UNL     1       4.139   4.956  17.249  0.00  0.00    +0.000 N 
ATOM      2  C   UNL     1       3.021   4.315  17.662  0.00  0.00    +0.000 A 
ATOM      3  C   UNL     1       2.737   2.842  17.582  0.00  0.00    +0.000 C 
ATOM      4  C   UNL     1       2.153   5.207  18.237  0.00  0.00    +0.000 A 
ATOM      5  C   UNL     1       2.755   6.454  18.201  0.00  0.00    +0.000 A 
ATOM      6  C   UNL     1       3.990   6.271  17.562  0.00  0.00    +0.000 A 
ATOM      7  C   UNL     1       5.047   7.305  17.261  0.00  0.00    +0.000 C 
ENDROOT
BRANCH   5   8
ATOM      8  C   UNL     1       2.149   7.676  18.809  0.00  0.00    +0.000 C 
ATOM      9  N   UNL     1       1.865   7.683  20.063  0.00  0.00    +0.000 NA
ATOM     10  N   UNL     1       1.213   8.684  20.750  0.00  0.00    +0.000 NA
ATOM     11  C   UNL     1       0.864   9.829  20.277  0.00  0.00    +0.000 C 
ATOM     12  N   UNL     1       0.180  10.750  21.116  0.00  0.00    +0.000 N 
ATOM     13  S   UNL     1       1.215  10.360  18.606  0.00  0.00    +0.000 S 
ATOM     14  C   UNL     1       1.810   8.812  17.876  0.00  0.00    +0.000 C 
ATOM     15  H   UNL     1       0.022  11.709  20.770  0.00  0.00    +0.000 HD
BRANCH  12  16
ATOM     16  C   UNL     1      -0.341  10.355  22.409  0.00  0.00    +0.000 C 
ATOM     17  C   UNL     1      -1.331  11.385  22.937  0.00  0.00    +0.000 C 
ENDBRANCH  12  16
ENDBRANCH   5   8
BRANCH   1  18
ATOM     18  C   UNL     1       5.341   4.341  16.671  0.00  0.00    +0.000 C 
BRANCH  18  20
ATOM     19  C   UNL     1       7.685   4.542  17.452  0.00  0.00    +0.000 C 
ATOM     20  C   UNL     1       6.406   4.286  17.729  0.00  0.00    +0.000 C 
ENDBRANCH  18  20
ENDBRANCH   1  18
TORSDOF 4
ENDMDL
MODEL 8
REMARK VINA RESULT:      -6.3      1.170      2.661
REMARK  Name = 
REMARK  7 active torsions:
REMARK  status: ('A' for Active; 'I' for Inactive)
REMARK    1  A    between atoms: C_2  and  C_3
REMARK    2  A    between atoms: C_3  and  N_4
REMARK    3  A    between atoms: C_5  and  C_6
REMARK    4  A    between atoms: C_8  and  C_9
REMARK    5  A    between atoms: N_13  and  C_14
REMARK    6  A    between atoms: C_14  and  C_15
REMARK    7  A    between atoms: C_18  and  C_19
REMARK                            x       y       z     vdW  Elec       q    Type
REMARK                         _______ _______ _______ _____ _____    ______ ____
ROOT
ATOM      1  N   UNL     1       2.944   3.928  18.176  0.00  0.00    +0.000 N 
ATOM      2  C   UNL     1       3.787   4.683  17.434  0.00  0.00    +0.000 A 
ATOM      3  C   UNL     1       4.756   4.203  16.391  0.00  0.00    +0.000 C 
ATOM      4  C   UNL     1       3.609   6.011  17.724  0.00  0.00    +0.000 A 
ATOM      5  C   UNL     1       2.604   6.097  18.673  0.00  0.00    +0.000 A 
ATOM      6  C   UNL     1       2.218   4.778  18.951  0.00  0.00    +0.000 A 
ATOM      7  C   UNL     1       1.159   4.298  19.913  0.00  0.00    +0.000 C 
ENDROOT
BRANCH   5   8
ATOM      8  C   UNL     1       2.067   7.393  19.186  0.00  0.00    +0.000 C 
ATOM      9  N   UNL     1       1.751   7.498  20.429  0.00  0.00    +0.000 NA
ATOM     10  N   UNL     1       1.150   8.580  21.033  0.00  0.00    +0.000 NA
ATOM     11  C   UNL     1       0.893   9.714  20.481  0.00  0.00    +0.000 C 
ATOM     12  N   UNL     1       0.251  10.729  21.241  0.00  0.00    +0.000 N 
ATOM     13  S   UNL     1       1.324  10.115  18.792  0.00  0.00    +0.000 S 
ATOM     14  C   UNL     1       1.831   8.487  18.176  0.00  0.00    +0.000 C 
ATOM     15  H   UNL     1       0.169  11.673  20.832  0.00  0.00    +0.000 HD
BRANCH  12  16
ATOM     16  C   UNL     1      -0.329  10.452  22.539  0.00  0.00    +0.000 C 
ATOM     17  C   UNL     1      -1.330  11.531  22.932  0.00  0.00    +0.000 C 
ENDBRANCH  12  16
ENDBRANCH   5   8
BRANCH   1  18
ATOM     18  C   UNL     1       2.763   2.473  18.091  0.00  0.00    +0.000 C 
BRANCH  18  20
ATOM     19  C   UNL     1       4.304   2.280  20.023  0.00  0.00    +0.000 C 
ATOM     20  C   UNL     1       3.873   1.808  18.853  0.00  0.00    +0.000 C 
ENDBRANCH  18  20
ENDBRANCH   1  18
TORSDOF 4
ENDMDL
MODEL 9
REMARK VINA RESULT:      -6.2      2.208      7.356
REMARK  Name = 
REMARK  7 active torsions:
REMARK  status: ('A' for Active; 'I' for Inactive)
REMARK    1  A    between atoms: C_2  and  C_3
REMARK    2  A    between atoms: C_3  and  N_4
REMARK    3  A    between atoms: C_5  and  C_6
REMARK    4  A    between atoms: C_8  and  C_9
REMARK    5  A    between atoms: N_13  and  C_14
REMARK    6  A    between atoms: C_14  and  C_15
REMARK    7  A    between atoms: C_18  and  C_19
REMARK                            x       y       z     vdW  Elec       q    Type
REMARK                         _______ _______ _______ _____ _____    ______ ____
ROOT
ATOM      1  N   UNL     1       0.712   9.658  20.109  0.00  0.00    +0.000 N 
ATOM      2  C   UNL     1       0.662   8.982  21.281  0.00  0.00    +0.000 A 
ATOM      3  C   UNL     1      -0.089   9.372  22.522  0.00  0.00    +0.000 C 
ATOM      4  C   UNL     1       1.374   7.814  21.181  0.00  0.00    +0.000 A 
ATOM      5  C   UNL     1       1.876   7.744  19.893  0.00  0.00    +0.000 A 
ATOM      6  C   UNL     1       1.462   8.919  19.248  0.00  0.00    +0.000 A 
ATOM      7  C   UNL     1       1.735   9.351  17.829  0.00  0.00    +0.000 C 
ENDROOT
BRANCH   5   8
ATOM      8  C   UNL     1       2.644   6.572  19.373  0.00  0.00    +0.000 C 
ATOM      9  N   UNL     1       3.470   6.739  18.401  0.00  0.00    +0.000 NA
ATOM     10  N   UNL     1       4.171   5.753  17.743  0.00  0.00    +0.000 NA
ATOM     11  C   UNL     1       4.199   4.503  18.052  0.00  0.00    +0.000 C 
ATOM     12  N   UNL     1       4.964   3.607  17.258  0.00  0.00    +0.000 N 
ATOM     13  S   UNL     1       3.343   3.812  19.462  0.00  0.00    +0.000 S 
ATOM     14  C   UNL     1       2.324   5.223  19.966  0.00  0.00    +0.000 C 
ATOM     15  H   UNL     1       5.086   2.637  17.589  0.00  0.00    +0.000 HD
BRANCH  12  16
ATOM     16  C   UNL     1       5.522   4.009  15.983  0.00  0.00    +0.000 C 
ATOM     17  C   UNL     1       6.985   4.407  16.128  0.00  0.00    +0.000 C 
ENDBRANCH  12  16
ENDBRANCH   5   8
BRANCH   1  18
ATOM     18  C   UNL     1       0.004  10.902  19.782  0.00  0.00    +0.000 C 
BRANCH  18  20
ATOM     19  C   UNL     1       1.724  12.665  19.505  0.00  0.00    +0.000 C 
ATOM     20  C   UNL     1       0.821  12.061  20.277  0.00  0.00    +0.000 C 
ENDBRANCH  18  20
ENDBRANCH   1  18
TORSDOF 4
ENDMDL
