MODEL 1
REMARK VINA RESULT:      -7.5      0.000      0.000
REMARK  Name = 
REMARK  7 active torsions:
REMARK  status: ('A' for Active; 'I' for Inactive)
REMARK    1  A    between atoms: C_1  and  C_2
REMARK    2  A    between atoms: C_2  and  C_3
REMARK    3  A    between atoms: C_2  and  C_4
REMARK    4  A    between atoms: C_4  and  C_5
REMARK    5  A    between atoms: C_8  and  C_10
REMARK    6  A    between atoms: C_16  and  O_17
REMARK    7  A    between atoms: C_16  and  C_18
REMARK                            x       y       z     vdW  Elec       q    Type
REMARK                         _______ _______ _______ _____ _____    ______ ____
ROOT
ATOM      1  C   UNL     1       2.280   5.327  19.393  0.00  0.00    +0.000 C 
ATOM      2  N   UNL     1       3.454   5.575  18.911  0.00  0.00    +0.000 NA
ATOM      3  N   UNL     1       3.710   4.610  17.977  0.00  0.00    +0.000 N 
ATOM      4  C   UNL     1       4.956   4.469  17.370  0.00  0.00    +0.000 C 
ATOM      5  O   UNL     1       5.176   3.566  16.560  0.00  0.00    +0.000 OA
ATOM      6  C   UNL     1       2.683   3.548  17.973  0.00  0.00    +0.000 C 
ATOM      7  C   UNL     1       1.526   4.241  18.699  0.00  0.00    +0.000 C 
ENDROOT
BRANCH   4   8
ATOM      8  C   UNL     1       6.046   5.435  17.720  0.00  0.00    +0.000 A 
ATOM      9  C   UNL     1       6.200   6.650  17.049  0.00  0.00    +0.000 A 
ATOM     10  C   UNL     1       7.252   7.476  17.403  0.00  0.00    +0.000 A 
ATOM     11  N   UNL     1       8.115   7.203  18.398  0.00  0.00    +0.000 NA
ATOM     12  C   UNL     1       7.916   6.051  19.068  0.00  0.00    +0.000 A 
ATOM     13  C   UNL     1       6.908   5.143  18.776  0.00  0.00    +0.000 A 
ENDBRANCH   4   8
BRANCH   6  14
ATOM     14  C   UNL     1       3.165   2.261  18.720  0.00  0.00    +0.000 C 
ATOM     15  F   UNL     1       3.638   1.307  17.884  0.00  0.00    +0.000 F 
ATOM     16  F   UNL     1       4.161   2.522  19.603  0.00  0.00    +0.000 F 
ATOM     17  F   UNL     1       2.151   1.703  19.428  0.00  0.00    +0.000 F 
ENDBRANCH   6  14
BRANCH   6  18
ATOM     18  O   UNL     1       2.256   3.300  16.626  0.00  0.00    +0.000 OA
ATOM     19  H   UNL     1       1.660   4.042  16.398  0.00  0.00    +0.000 HD
ENDBRANCH   6  18
BRANCH   1  20
ATOM     20  C   UNL     1       1.723   6.103  20.549  0.00  0.00    +0.000 C 
BRANCH  20  22
ATOM     21  C   UNL     1       1.819   8.071  18.931  0.00  0.00    +0.000 C 
ATOM     22  C   UNL     1       1.938   7.614  20.388  0.00  0.00    +0.000 C 
ATOM     23  C   UNL     1       0.932   8.373  21.253  0.00  0.00    +0.000 C 
ENDBRANCH  20  22
ENDBRANCH   1  20
TORSDOF 5
ENDMDL
MODEL 2
REMARK VINA RESULT:      -7.5      0.086      1.003
REMARK  Name = 
REMARK  7 active torsions:
REMARK  status: ('A' for Active; 'I' for Inactive)
REMARK    1  A    between atoms: C_1  and  C_2
REMARK    2  A    between atoms: C_2  and  C_3
REMARK    3  A    between atoms: C_2  and  C_4
REMARK    4  A    between atoms: C_4  and  C_5
REMARK    5  A    between atoms: C_8  and  C_10
REMARK    6  A    between atoms: C_16  and  O_17
REMARK    7  A    between atoms: C_16  and  C_18
REMARK                            x       y       z     vdW  Elec       q    Type
REMARK                         _______ _______ _______ _____ _____    ______ ____
ROOT
ATOM      1  C   UNL     1       2.286   5.352  19.364  0.00  0.00    +0.000 C 
ATOM      2  N   UNL     1       3.462   5.595  18.887  0.00  0.00    +0.000 NA
ATOM      3  N   UNL     1       3.727   4.617  17.969  0.00  0.00    +0.000 N 
ATOM      4  C   UNL     1       4.978   4.470  17.373  0.00  0.00    +0.000 C 
ATOM      5  O   UNL     1       5.206   3.555  16.580  0.00  0.00    +0.000 OA
ATOM      6  C   UNL     1       2.703   3.553  17.975  0.00  0.00    +0.000 C 
ATOM      7  C   UNL     1       1.539   4.254  18.681  0.00  0.00    +0.000 C 
ENDROOT
BRANCH   4   8
ATOM      8  C   UNL     1       6.063   5.443  17.717  0.00  0.00    +0.000 A 
ATOM      9  C   UNL     1       6.988   5.189  18.733  0.00  0.00    +0.000 A 
ATOM     10  C   UNL     1       7.940   6.151  19.019  0.00  0.00    +0.000 A 
ATOM     11  N   UNL     1       8.066   7.306  18.340  0.00  0.00    +0.000 NA
ATOM     12  C   UNL     1       7.197   7.506  17.330  0.00  0.00    +0.000 A 
ATOM     13  C   UNL     1       6.191   6.618  16.978  0.00  0.00    +0.000 A 
ENDBRANCH   4   8
BRANCH   6  14
ATOM     14  C   UNL     1       3.182   2.278  18.744  0.00  0.00    +0.000 C 
ATOM     15  F   UNL     1       3.613   1.291  17.923  0.00  0.00    +0.000 F 
ATOM     16  F   UNL     1       4.208   2.545  19.591  0.00  0.00    +0.000 F 
ATOM     17  F   UNL     1       2.179   1.760  19.496  0.00  0.00    +0.000 F 
ENDBRANCH   6  14
BRANCH   6  18
ATOM     18  O   UNL     1       2.286   3.283  16.628  0.00  0.00    +0.000 OA
ATOM     19  H   UNL     1       1.309   3.233  16.660  0.00  0.00    +0.000 HD
ENDBRANCH   6  18
BRANCH   1  20
ATOM     20  C   UNL     1       1.719   6.144  20.504  0.00  0.00    +0.000 C 
BRANCH  20  22
ATOM     21  C   UNL     1       1.731   8.157  18.941  0.00  0.00    +0.000 C 
ATOM     22  C   UNL     1       1.998   7.646  20.359  0.00  0.00    +0.000 C 
ATOM     23  C   UNL     1       1.146   8.427  21.360  0.00  0.00    +0.000 C 
ENDBRANCH  20  22
ENDBRANCH   1  20
TORSDOF 5
ENDMDL
MODEL 3
REMARK VINA RESULT:      -7.3      3.264      6.363
REMARK  Name = 
REMARK  7 active torsions:
REMARK  status: ('A' for Active; 'I' for Inactive)
REMARK    1  A    between atoms: C_1  and  C_2
REMARK    2  A    between atoms: C_2  and  C_3
REMARK    3  A    between atoms: C_2  and  C_4
REMARK    4  A    between atoms: C_4  and  C_5
REMARK    5  A    between atoms: C_8  and  C_10
REMARK    6  A    between atoms: C_16  and  O_17
REMARK    7  A    between atoms: C_16  and  C_18
REMARK                            x       y       z     vdW  Elec       q    Type
REMARK                         _______ _______ _______ _____ _____    ______ ____
ROOT
ATOM      1  C   UNL     1       5.780   4.248  15.203  0.00  0.00    +0.000 C 
ATOM      2  N   UNL     1       4.810   4.121  16.048  0.00  0.00    +0.000 NA
ATOM      3  N   UNL     1       4.997   5.074  17.011  0.00  0.00    +0.000 N 
ATOM      4  C   UNL     1       4.230   5.123  18.173  0.00  0.00    +0.000 C 
ATOM      5  O   UNL     1       4.444   5.966  19.046  0.00  0.00    +0.000 OA
ATOM      6  C   UNL     1       6.294   5.767  16.867  0.00  0.00    +0.000 C 
ATOM      7  C   UNL     1       6.655   5.439  15.415  0.00  0.00    +0.000 C 
ENDROOT
BRANCH   4   8
ATOM      8  C   UNL     1       3.130   4.124  18.357  0.00  0.00    +0.000 A 
ATOM      9  C   UNL     1       1.810   4.402  17.993  0.00  0.00    +0.000 A 
ATOM     10  C   UNL     1       0.840   3.444  18.227  0.00  0.00    +0.000 A 
ATOM     11  N   UNL     1       1.098   2.228  18.741  0.00  0.00    +0.000 NA
ATOM     12  C   UNL     1       2.386   1.961  19.035  0.00  0.00    +0.000 A 
ATOM     13  C   UNL     1       3.429   2.860  18.863  0.00  0.00    +0.000 A 
ENDBRANCH   4   8
BRANCH   6  14
ATOM     14  C   UNL     1       7.362   5.235  17.878  0.00  0.00    +0.000 C 
ATOM     15  F   UNL     1       8.141   6.215  18.394  0.00  0.00    +0.000 F 
ATOM     16  F   UNL     1       6.796   4.601  18.936  0.00  0.00    +0.000 F 
ATOM     17  F   UNL     1       8.189   4.339  17.283  0.00  0.00    +0.000 F 
ENDBRANCH   6  14
BRANCH   6  18
ATOM     18  O   UNL     1       6.090   7.185  16.947  0.00  0.00    +0.000 OA
ATOM     19  H   UNL     1       5.850   7.365  17.878  0.00  0.00    +0.000 HD
ENDBRANCH   6  18
BRANCH   1  20
ATOM     20  C   UNL     1       5.978   3.274  14.080  0.00  0.00    +0.000 C 
BRANCH  20  22
ATOM     21  C   UNL     1       7.144   3.972  11.924  0.00  0.00    +0.000 C 
ATOM     22  C   UNL     1       5.827   3.938  12.705  0.00  0.00    +0.000 C 
ATOM     23  C   UNL     1       4.762   3.203  11.892  0.00  0.00    +0.000 C 
ENDBRANCH  20  22
ENDBRANCH   1  20
TORSDOF 5
ENDMDL
MODEL 4
REMARK VINA RESULT:      -7.3      3.274      6.435
REMARK  Name = 
REMARK  7 active torsions:
REMARK  status: ('A' for Active; 'I' for Inactive)
REMARK    1  A    between atoms: C_1  and  C_2
REMARK    2  A    between atoms: C_2  and  C_3
REMARK    3  A    between atoms: C_2  and  C_4
REMARK    4  A    between atoms: C_4  and  C_5
REMARK    5  A    between atoms: C_8  and  C_10
REMARK    6  A    between atoms: C_16  and  O_17
REMARK    7  A    between atoms: C_16  and  C_18
REMARK                            x       y       z     vdW  Elec       q    Type
REMARK                         _______ _______ _______ _____ _____    ______ ____
ROOT
ATOM      1  C   UNL     1       5.754   4.239  15.184  0.00  0.00    +0.000 C 
ATOM      2  N   UNL     1       4.797   4.107  16.041  0.00  0.00    +0.000 NA
ATOM      3  N   UNL     1       4.990   5.062  17.001  0.00  0.00    +0.000 N 
ATOM      4  C   UNL     1       4.237   5.108  18.172  0.00  0.00    +0.000 C 
ATOM      5  O   UNL     1       4.457   5.953  19.042  0.00  0.00    +0.000 OA
ATOM      6  C   UNL     1       6.279   5.764  16.838  0.00  0.00    +0.000 C 
ATOM      7  C   UNL     1       6.623   5.437  15.383  0.00  0.00    +0.000 C 
ENDROOT
BRANCH   4   8
ATOM      8  C   UNL     1       3.147   4.100  18.373  0.00  0.00    +0.000 A 
ATOM      9  C   UNL     1       3.395   2.848  18.941  0.00  0.00    +0.000 A 
ATOM     10  C   UNL     1       2.345   1.955  19.061  0.00  0.00    +0.000 A 
ATOM     11  N   UNL     1       1.078   2.236  18.710  0.00  0.00    +0.000 NA
ATOM     12  C   UNL     1       0.852   3.469  18.214  0.00  0.00    +0.000 A 
ATOM     13  C   UNL     1       1.837   4.429  18.029  0.00  0.00    +0.000 A 
ENDBRANCH   4   8
BRANCH   6  14
ATOM     14  C   UNL     1       7.364   5.242  17.837  0.00  0.00    +0.000 C 
ATOM     15  F   UNL     1       8.144   6.228  18.339  0.00  0.00    +0.000 F 
ATOM     16  F   UNL     1       6.817   4.607  18.903  0.00  0.00    +0.000 F 
ATOM     17  F   UNL     1       8.189   4.350  17.233  0.00  0.00    +0.000 F 
ENDBRANCH   6  14
BRANCH   6  18
ATOM     18  O   UNL     1       6.065   7.182  16.919  0.00  0.00    +0.000 OA
ATOM     19  H   UNL     1       5.453   7.313  17.672  0.00  0.00    +0.000 HD
ENDBRANCH   6  18
BRANCH   1  20
ATOM     20  C   UNL     1       5.946   3.265  14.060  0.00  0.00    +0.000 C 
BRANCH  20  22
ATOM     21  C   UNL     1       7.132   3.943  11.908  0.00  0.00    +0.000 C 
ATOM     22  C   UNL     1       5.812   3.934  12.685  0.00  0.00    +0.000 C 
ATOM     23  C   UNL     1       4.735   3.222  11.868  0.00  0.00    +0.000 C 
ENDBRANCH  20  22
ENDBRANCH   1  20
TORSDOF 5
ENDMDL
MODEL 5
REMARK VINA RESULT:      -7.3      2.031      4.793
REMARK  Name = 
REMARK  7 active torsions:
REMARK  status: ('A' for Active; 'I' for Inactive)
REMARK    1  A    between atoms: C_1  and  C_2
REMARK    2  A    between atoms: C_2  and  C_3
REMARK    3  A    between atoms: C_2  and  C_4
REMARK    4  A    between atoms: C_4  and  C_5
REMARK    5  A    between atoms: C_8  and  C_10
REMARK    6  A    between atoms: C_16  and  O_17
REMARK    7  A    between atoms: C_16  and  C_18
REMARK                            x       y       z     vdW  Elec       q    Type
REMARK                         _______ _______ _______ _____ _____    ______ ____
ROOT
ATOM      1  C   UNL     1       5.103   4.530  19.001  0.00  0.00    +0.000 C 
ATOM      2  N   UNL     1       4.200   5.398  19.319  0.00  0.00    +0.000 NA
ATOM      3  N   UNL     1       3.161   4.703  19.875  0.00  0.00    +0.000 N 
ATOM      4  C   UNL     1       1.942   5.302  20.186  0.00  0.00    +0.000 C 
ATOM      5  O   UNL     1       1.006   4.647  20.648  0.00  0.00    +0.000 OA
ATOM      6  C   UNL     1       3.337   3.241  19.753  0.00  0.00    +0.000 C 
ATOM      7  C   UNL     1       4.839   3.138  19.474  0.00  0.00    +0.000 C 
ENDROOT
BRANCH   4   8
ATOM      8  C   UNL     1       1.774   6.770  19.943  0.00  0.00    +0.000 A 
ATOM      9  C   UNL     1       1.333   7.639  20.945  0.00  0.00    +0.000 A 
ATOM     10  C   UNL     1       1.166   8.977  20.637  0.00  0.00    +0.000 A 
ATOM     11  N   UNL     1       1.452   9.510  19.436  0.00  0.00    +0.000 NA
ATOM     12  C   UNL     1       1.927   8.664  18.500  0.00  0.00    +0.000 A 
ATOM     13  C   UNL     1       2.107   7.302  18.699  0.00  0.00    +0.000 A 
ENDBRANCH   4   8
BRANCH   6  14
ATOM     14  C   UNL     1       2.476   2.640  18.593  0.00  0.00    +0.000 C 
ATOM     15  F   UNL     1       1.310   2.101  19.022  0.00  0.00    +0.000 F 
ATOM     16  F   UNL     1       2.148   3.570  17.662  0.00  0.00    +0.000 F 
ATOM     17  F   UNL     1       3.154   1.660  17.945  0.00  0.00    +0.000 F 
ENDBRANCH   6  14
BRANCH   6  18
ATOM     18  O   UNL     1       3.095   2.622  21.024  0.00  0.00    +0.000 OA
ATOM     19  H   UNL     1       3.187   1.660  20.870  0.00  0.00    +0.000 HD
ENDBRANCH   6  18
BRANCH   1  20
ATOM     20  C   UNL     1       6.332   4.917  18.236  0.00  0.00    +0.000 C 
BRANCH  20  22
ATOM     21  C   UNL     1       7.445   7.083  17.483  0.00  0.00    +0.000 C 
ATOM     22  C   UNL     1       6.159   6.252  17.500  0.00  0.00    +0.000 C 
ATOM     23  C   UNL     1       5.690   5.995  16.068  0.00  0.00    +0.000 C 
ENDBRANCH  20  22
ENDBRANCH   1  20
TORSDOF 5
ENDMDL
MODEL 6
REMARK VINA RESULT:      -7.3      2.264      4.329
REMARK  Name = 
REMARK  7 active torsions:
REMARK  status: ('A' for Active; 'I' for Inactive)
REMARK    1  A    between atoms: C_1  and  C_2
REMARK    2  A    between atoms: C_2  and  C_3
REMARK    3  A    between atoms: C_2  and  C_4
REMARK    4  A    between atoms: C_4  and  C_5
REMARK    5  A    between atoms: C_8  and  C_10
REMARK    6  A    between atoms: C_16  and  O_17
REMARK    7  A    between atoms: C_16  and  C_18
REMARK                            x       y       z     vdW  Elec       q    Type
REMARK                         _______ _______ _______ _____ _____    ______ ____
ROOT
ATOM      1  C   UNL     1       2.131   3.708  18.054  0.00  0.00    +0.000 C 
ATOM      2  N   UNL     1       2.064   4.996  18.138  0.00  0.00    +0.000 NA
ATOM      3  N   UNL     1       3.255   5.485  17.675  0.00  0.00    +0.000 N 
ATOM      4  C   UNL     1       3.599   6.832  17.773  0.00  0.00    +0.000 C 
ATOM      5  O   UNL     1       4.695   7.242  17.387  0.00  0.00    +0.000 OA
ATOM      6  C   UNL     1       4.241   4.413  17.429  0.00  0.00    +0.000 C 
ATOM      7  C   UNL     1       3.337   3.180  17.350  0.00  0.00    +0.000 C 
ENDROOT
BRANCH   4   8
ATOM      8  C   UNL     1       2.613   7.790  18.367  0.00  0.00    +0.000 A 
ATOM      9  C   UNL     1       2.028   8.810  17.613  0.00  0.00    +0.000 A 
ATOM     10  C   UNL     1       1.154   9.680  18.240  0.00  0.00    +0.000 A 
ATOM     11  N   UNL     1       0.787   9.575  19.529  0.00  0.00    +0.000 NA
ATOM     12  C   UNL     1       1.323   8.551  20.224  0.00  0.00    +0.000 A 
ATOM     13  C   UNL     1       2.227   7.639  19.699  0.00  0.00    +0.000 A 
ENDBRANCH   4   8
BRANCH   6  14
ATOM     14  C   UNL     1       5.294   4.305  18.581  0.00  0.00    +0.000 C 
ATOM     15  F   UNL     1       6.566   4.497  18.158  0.00  0.00    +0.000 F 
ATOM     16  F   UNL     1       5.075   5.216  19.562  0.00  0.00    +0.000 F 
ATOM     17  F   UNL     1       5.248   3.082  19.165  0.00  0.00    +0.000 F 
ENDBRANCH   6  14
BRANCH   6  18
ATOM     18  O   UNL     1       4.830   4.594  16.132  0.00  0.00    +0.000 OA
ATOM     19  H   UNL     1       4.197   4.202  15.498  0.00  0.00    +0.000 HD
ENDBRANCH   6  18
BRANCH   1  20
ATOM     20  C   UNL     1       1.051   2.827  18.606  0.00  0.00    +0.000 C 
BRANCH  20  22
ATOM     21  C   UNL     1       2.235   2.246  20.788  0.00  0.00    +0.000 C 
ATOM     22  C   UNL     1       0.996   2.870  20.139  0.00  0.00    +0.000 C 
ATOM     23  C   UNL     1       0.838   4.317  20.609  0.00  0.00    +0.000 C 
ENDBRANCH  20  22
ENDBRANCH   1  20
TORSDOF 5
ENDMDL
MODEL 7
REMARK VINA RESULT:      -7.3      2.036      4.719
REMARK  Name = 
REMARK  7 active torsions:
REMARK  status: ('A' for Active; 'I' for Inactive)
REMARK    1  A    between atoms: C_1  and  C_2
REMARK    2  A    between atoms: C_2  and  C_3
REMARK    3  A    between atoms: C_2  and  C_4
REMARK    4  A    between atoms: C_4  and  C_5
REMARK    5  A    between atoms: C_8  and  C_10
REMARK    6  A    between atoms: C_16  and  O_17
REMARK    7  A    between atoms: C_16  and  C_18
REMARK                            x       y       z     vdW  Elec       q    Type
REMARK                         _______ _______ _______ _____ _____    ______ ____
ROOT
ATOM      1  C   UNL     1       5.092   4.512  19.013  0.00  0.00    +0.000 C 
ATOM      2  N   UNL     1       4.192   5.387  19.322  0.00  0.00    +0.000 NA
ATOM      3  N   UNL     1       3.151   4.703  19.885  0.00  0.00    +0.000 N 
ATOM      4  C   UNL     1       1.935   5.310  20.190  0.00  0.00    +0.000 C 
ATOM      5  O   UNL     1       0.996   4.664  20.659  0.00  0.00    +0.000 OA
ATOM      6  C   UNL     1       3.321   3.239  19.779  0.00  0.00    +0.000 C 
ATOM      7  C   UNL     1       4.823   3.127  19.501  0.00  0.00    +0.000 C 
ENDROOT
BRANCH   4   8
ATOM      8  C   UNL     1       1.772   6.776  19.931  0.00  0.00    +0.000 A 
ATOM      9  C   UNL     1       2.034   7.338  18.679  0.00  0.00    +0.000 A 
ATOM     10  C   UNL     1       1.897   8.706  18.523  0.00  0.00    +0.000 A 
ATOM     11  N   UNL     1       1.474   9.531  19.497  0.00  0.00    +0.000 NA
ATOM     12  C   UNL     1       1.174   8.961  20.680  0.00  0.00    +0.000 A 
ATOM     13  C   UNL     1       1.301   7.605  20.948  0.00  0.00    +0.000 A 
ENDBRANCH   4   8
BRANCH   6  14
ATOM     14  C   UNL     1       2.457   2.629  18.626  0.00  0.00    +0.000 C 
ATOM     15  F   UNL     1       2.085   3.542  17.699  0.00  0.00    +0.000 F 
ATOM     16  F   UNL     1       3.115   1.650  17.956  0.00  0.00    +0.000 F 
ATOM     17  F   UNL     1       1.322   2.071  19.116  0.00  0.00    +0.000 F 
ENDBRANCH   6  14
BRANCH   6  18
ATOM     18  O   UNL     1       3.076   2.635  21.057  0.00  0.00    +0.000 OA
ATOM     19  H   UNL     1       2.241   2.135  20.956  0.00  0.00    +0.000 HD
ENDBRANCH   6  18
BRANCH   1  20
ATOM     20  C   UNL     1       6.323   4.886  18.243  0.00  0.00    +0.000 C 
BRANCH  20  22
ATOM     21  C   UNL     1       7.465   7.067  17.583  0.00  0.00    +0.000 C 
ATOM     22  C   UNL     1       6.176   6.242  17.540  0.00  0.00    +0.000 C 
ATOM     23  C   UNL     1       5.748   6.026  16.088  0.00  0.00    +0.000 C 
ENDBRANCH  20  22
ENDBRANCH   1  20
TORSDOF 5
ENDMDL
MODEL 8
REMARK VINA RESULT:      -7.2      2.291      5.105
REMARK  Name = 
REMARK  7 active torsions:
REMARK  status: ('A' for Active; 'I' for Inactive)
REMARK    1  A    between atoms: C_1  and  C_2
REMARK    2  A    between atoms: C_2  and  C_3
REMARK    3  A    between atoms: C_2  and  C_4
REMARK    4  A    between atoms: C_4  and  C_5
REMARK    5  A    between atoms: C_8  and  C_10
REMARK    6  A    between atoms: C_16  and  O_17
REMARK    7  A    between atoms: C_16  and  C_18
REMARK                            x       y       z     vdW  Elec       q    Type
REMARK                         _______ _______ _______ _____ _____    ______ ____
ROOT
ATOM      1  C   UNL     1       4.318   4.977  17.153  0.00  0.00    +0.000 C 
ATOM      2  N   UNL     1       3.702   5.918  17.789  0.00  0.00    +0.000 NA
ATOM      3  N   UNL     1       3.105   5.337  18.874  0.00  0.00    +0.000 N 
ATOM      4  C   UNL     1       2.217   6.027  19.697  0.00  0.00    +0.000 C 
ATOM      5  O   UNL     1       1.660   5.471  20.645  0.00  0.00    +0.000 OA
ATOM      6  C   UNL     1       3.204   3.864  18.844  0.00  0.00    +0.000 C 
ATOM      7  C   UNL     1       4.347   3.655  17.847  0.00  0.00    +0.000 C 
ENDROOT
BRANCH   4   8
ATOM      8  C   UNL     1       1.936   7.470  19.411  0.00  0.00    +0.000 A 
ATOM      9  C   UNL     1       2.134   8.023  18.144  0.00  0.00    +0.000 A 
ATOM     10  C   UNL     1       1.888   9.373  17.963  0.00  0.00    +0.000 A 
ATOM     11  N   UNL     1       1.415  10.183  18.927  0.00  0.00    +0.000 NA
ATOM     12  C   UNL     1       1.180   9.616  20.127  0.00  0.00    +0.000 A 
ATOM     13  C   UNL     1       1.417   8.281  20.419  0.00  0.00    +0.000 A 
ENDBRANCH   4   8
BRANCH   6  14
ATOM     14  C   UNL     1       1.873   3.194  18.369  0.00  0.00    +0.000 C 
ATOM     15  F   UNL     1       1.067   4.039  17.685  0.00  0.00    +0.000 F 
ATOM     16  F   UNL     1       2.095   2.133  17.553  0.00  0.00    +0.000 F 
ATOM     17  F   UNL     1       1.160   2.731  19.426  0.00  0.00    +0.000 F 
ENDBRANCH   6  14
BRANCH   6  18
ATOM     18  O   UNL     1       3.658   3.389  20.121  0.00  0.00    +0.000 OA
ATOM     19  H   UNL     1       3.383   4.069  20.768  0.00  0.00    +0.000 HD
ENDBRANCH   6  18
BRANCH   1  20
ATOM     20  C   UNL     1       4.973   5.221  15.826  0.00  0.00    +0.000 C 
BRANCH  20  22
ATOM     21  C   UNL     1       6.212   3.946  14.000  0.00  0.00    +0.000 C 
ATOM     22  C   UNL     1       6.041   4.167  15.505  0.00  0.00    +0.000 C 
ATOM     23  C   UNL     1       7.376   4.582  16.123  0.00  0.00    +0.000 C 
ENDBRANCH  20  22
ENDBRANCH   1  20
TORSDOF 5
ENDMDL
MODEL 9
REMARK VINA RESULT:      -7.2      1.672      2.346
REMARK  Name = 
REMARK  7 active torsions:
REMARK  status: ('A' for Active; 'I' for Inactive)
REMARK    1  A    between atoms: C_1  and  C_2
REMARK    2  A    between atoms: C_2  and  C_3
REMARK    3  A    between atoms: C_2  and  C_4
REMARK    4  A    between atoms: C_4  and  C_5
REMARK    5  A    between atoms: C_8  and  C_10
REMARK    6  A    between atoms: C_16  and  O_17
REMARK    7  A    between atoms: C_16  and  C_18
REMARK                            x       y       z     vdW  Elec       q    Type
REMARK                         _______ _______ _______ _____ _____    ______ ____
ROOT
ATOM      1  C   UNL     1       2.327   6.041  19.202  0.00  0.00    +0.000 C 
ATOM      2  N   UNL     1       3.269   5.590  18.441  0.00  0.00    +0.000 NA
ATOM      3  N   UNL     1       3.004   4.266  18.225  0.00  0.00    +0.000 N 
ATOM      4  C   UNL     1       3.903   3.418  17.581  0.00  0.00    +0.000 C 
ATOM      5  O   UNL     1       3.659   2.219  17.434  0.00  0.00    +0.000 OA
ATOM      6  C   UNL     1       1.883   3.778  19.055  0.00  0.00    +0.000 C 
ATOM      7  C   UNL     1       1.202   5.091  19.449  0.00  0.00    +0.000 C 
ENDROOT
BRANCH   4   8
ATOM      8  C   UNL     1       5.190   3.984  17.067  0.00  0.00    +0.000 A 
ATOM      9  C   UNL     1       6.248   4.305  17.921  0.00  0.00    +0.000 A 
ATOM     10  C   UNL     1       7.394   4.859  17.379  0.00  0.00    +0.000 A 
ATOM     11  N   UNL     1       7.577   5.062  16.062  0.00  0.00    +0.000 NA
ATOM     12  C   UNL     1       6.565   4.695  15.251  0.00  0.00    +0.000 A 
ATOM     13  C   UNL     1       5.366   4.155  15.695  0.00  0.00    +0.000 A 
ENDBRANCH   4   8
BRANCH   6  14
ATOM     14  C   UNL     1       2.380   2.971  20.300  0.00  0.00    +0.000 C 
ATOM     15  F   UNL     1       3.719   3.049  20.485  0.00  0.00    +0.000 F 
ATOM     16  F   UNL     1       1.809   3.401  21.452  0.00  0.00    +0.000 F 
ATOM     17  F   UNL     1       2.071   1.655  20.179  0.00  0.00    +0.000 F 
ENDBRANCH   6  14
BRANCH   6  18
ATOM     18  O   UNL     1       0.961   3.047  18.233  0.00  0.00    +0.000 OA
ATOM     19  H   UNL     1       0.075   3.395  18.458  0.00  0.00    +0.000 HD
ENDBRANCH   6  18
BRANCH   1  20
ATOM     20  C   UNL     1       2.365   7.431  19.763  0.00  0.00    +0.000 C 
BRANCH  20  22
ATOM     21  C   UNL     1       0.904   9.517  19.860  0.00  0.00    +0.000 C 
ATOM     22  C   UNL     1       1.464   8.396  18.980  0.00  0.00    +0.000 C 
ATOM     23  C   UNL     1       2.243   8.995  17.810  0.00  0.00    +0.000 C 
ENDBRANCH  20  22
ENDBRANCH   1  20
TORSDOF 5
ENDMDL
