MODEL 1
REMARK VINA RESULT:      -9.1      0.000      0.000
REMARK  Name = 
REMARK  8 active torsions:
REMARK  status: ('A' for Active; 'I' for Inactive)
REMARK    1  A    between atoms: C_1  and  O_2
REMARK    2  A    between atoms: O_2  and  C_3
REMARK    3  A    between atoms: C_6  and  N_7
REMARK    4  A    between atoms: N_7  and  C_8
REMARK    5  A    between atoms: C_9  and  C_10
REMARK    6  A    between atoms: C_10  and  C_12
REMARK    7  A    between atoms: C_14  and  C_15
REMARK    8  A    between atoms: C_18  and  C_19
REMARK                            x       y       z     vdW  Elec       q    Type
REMARK                         _______ _______ _______ _____ _____    ______ ____
ROOT
ATOM      1  C   UNL     1       5.261   6.126  17.350  0.00  0.00    +0.000 A 
ATOM      2  N   UNL     1       4.572   7.271  17.706  0.00  0.00    +0.000 NA
ATOM      3  C   UNL     1       3.339   6.909  18.014  0.00  0.00    +0.000 A 
ATOM      4  N   UNL     1       3.161   5.550  17.772  0.00  0.00    +0.000 N 
ATOM      5  C   UNL     1       2.024   4.737  17.878  0.00  0.00    +0.000 A 
ATOM      6  C   UNL     1       2.124   3.414  17.666  0.00  0.00    +0.000 A 
ATOM      7  C   UNL     1       3.410   2.864  17.281  0.00  0.00    +0.000 A 
ATOM      8  C   UNL     1       4.497   3.646  17.132  0.00  0.00    +0.000 A 
ATOM      9  C   UNL     1       4.400   5.045  17.383  0.00  0.00    +0.000 A 
ENDROOT
BRANCH   3  10
ATOM     10  C   UNL     1       2.345   7.846  18.554  0.00  0.00    +0.000 A 
ATOM     11  C   UNL     1       1.815   8.836  17.715  0.00  0.00    +0.000 A 
ATOM     12  C   UNL     1       0.902   9.780  18.200  0.00  0.00    +0.000 A 
ATOM     13  C   UNL     1       0.498   9.744  19.540  0.00  0.00    +0.000 A 
ATOM     14  C   UNL     1       1.040   8.768  20.385  0.00  0.00    +0.000 A 
ATOM     15  C   UNL     1       1.970   7.845  19.902  0.00  0.00    +0.000 A 
BRANCH  13  16
ATOM     16  C   UNL     1      -0.498  10.738  20.088  0.00  0.00    +0.000 C 
ATOM     17  F   UNL     1      -0.059  12.026  20.062  0.00  0.00    +0.000 F 
ATOM     18  F   UNL     1      -1.671  10.728  19.393  0.00  0.00    +0.000 F 
ATOM     19  F   UNL     1      -0.829  10.480  21.382  0.00  0.00    +0.000 F 
ENDBRANCH  13  16
ENDBRANCH   3  10
BRANCH   1  20
ATOM     20  C   UNL     1       6.680   6.125  17.004  0.00  0.00    +0.000 C 
ATOM     21  O   UNL     1       7.114   6.053  15.857  0.00  0.00    +0.000 OA
BRANCH  20  23
ATOM     22  C   UNL     1       8.194   7.351  18.547  0.00  0.00    +0.000 C 
ATOM     23  C   UNL     1       7.575   6.217  18.195  0.00  0.00    +0.000 C 
BRANCH  22  24
ATOM     24  N   UNL     1       8.162   8.553  17.896  0.00  0.00    +0.000 N 
ATOM     25  H   UNL     1       7.745   8.526  16.963  0.00  0.00    +0.000 HD
BRANCH  24  29
ATOM     26  C   UNL     1       9.503  12.394  19.040  0.00  0.00    +0.000 A 
ATOM     27  C   UNL     1       8.769  12.199  17.873  0.00  0.00    +0.000 A 
ATOM     28  C   UNL     1       8.315  10.924  17.528  0.00  0.00    +0.000 A 
ATOM     29  C   UNL     1       8.598   9.813  18.330  0.00  0.00    +0.000 A 
ATOM     30  C   UNL     1       9.373  10.013  19.480  0.00  0.00    +0.000 A 
ATOM     31  C   UNL     1       9.813  11.296  19.842  0.00  0.00    +0.000 A 
BRANCH  26  33
ATOM     32  C   UNL     1       9.514  14.627  18.278  0.00  0.00    +0.000 C 
ATOM     33  O   UNL     1       9.889  13.683  19.274  0.00  0.00    +0.000 OA
ENDBRANCH  26  33
ENDBRANCH  24  29
ENDBRANCH  22  24
ENDBRANCH  20  23
ENDBRANCH   1  20
TORSDOF 7
ENDMDL
MODEL 2
REMARK VINA RESULT:      -8.7      4.304      6.229
REMARK  Name = 
REMARK  8 active torsions:
REMARK  status: ('A' for Active; 'I' for Inactive)
REMARK    1  A    between atoms: C_1  and  O_2
REMARK    2  A    between atoms: O_2  and  C_3
REMARK    3  A    between atoms: C_6  and  N_7
REMARK    4  A    between atoms: N_7  and  C_8
REMARK    5  A    between atoms: C_9  and  C_10
REMARK    6  A    between atoms: C_10  and  C_12
REMARK    7  A    between atoms: C_14  and  C_15
REMARK    8  A    between atoms: C_18  and  C_19
REMARK                            x       y       z     vdW  Elec       q    Type
REMARK                         _______ _______ _______ _____ _____    ______ ____
ROOT
ATOM      1  C   UNL     1       1.708   6.145  20.539  0.00  0.00    +0.000 A 
ATOM      2  N   UNL     1       1.021   6.996  21.384  0.00  0.00    +0.000 NA
ATOM      3  C   UNL     1       0.985   8.183  20.803  0.00  0.00    +0.000 A 
ATOM      4  N   UNL     1       1.727   8.165  19.625  0.00  0.00    +0.000 N 
ATOM      5  C   UNL     1       2.036   9.188  18.717  0.00  0.00    +0.000 A 
ATOM      6  C   UNL     1       2.710   8.901  17.590  0.00  0.00    +0.000 A 
ATOM      7  C   UNL     1       3.149   7.537  17.367  0.00  0.00    +0.000 A 
ATOM      8  C   UNL     1       2.896   6.558  18.258  0.00  0.00    +0.000 A 
ATOM      9  C   UNL     1       2.158   6.854  19.440  0.00  0.00    +0.000 A 
ENDROOT
BRANCH   3  10
ATOM     10  C   UNL     1       0.233   9.317  21.355  0.00  0.00    +0.000 A 
ATOM     11  C   UNL     1      -0.091   9.322  22.719  0.00  0.00    +0.000 A 
ATOM     12  C   UNL     1      -0.847  10.358  23.277  0.00  0.00    +0.000 A 
ATOM     13  C   UNL     1      -1.289  11.418  22.476  0.00  0.00    +0.000 A 
ATOM     14  C   UNL     1      -0.983  11.407  21.109  0.00  0.00    +0.000 A 
ATOM     15  C   UNL     1      -0.250  10.356  20.552  0.00  0.00    +0.000 A 
BRANCH  13  16
ATOM     16  C   UNL     1      -2.092  12.560  23.052  0.00  0.00    +0.000 C 
ATOM     17  F   UNL     1      -3.091  12.161  23.887  0.00  0.00    +0.000 F 
ATOM     18  F   UNL     1      -1.320  13.417  23.777  0.00  0.00    +0.000 F 
ATOM     19  F   UNL     1      -2.685  13.315  22.089  0.00  0.00    +0.000 F 
ENDBRANCH  13  16
ENDBRANCH   3  10
BRANCH   1  20
ATOM     20  C   UNL     1       1.895   4.723  20.819  0.00  0.00    +0.000 C 
ATOM     21  O   UNL     1       2.588   4.282  21.733  0.00  0.00    +0.000 OA
BRANCH  20  23
ATOM     22  C   UNL     1       1.768   2.903  19.132  0.00  0.00    +0.000 C 
ATOM     23  C   UNL     1       1.157   3.835  19.874  0.00  0.00    +0.000 C 
BRANCH  22  24
ATOM     24  N   UNL     1       3.108   2.637  19.068  0.00  0.00    +0.000 N 
ATOM     25  H   UNL     1       3.401   1.786  19.554  0.00  0.00    +0.000 HD
BRANCH  24  29
ATOM     26  C   UNL     1       6.177   4.663  16.987  0.00  0.00    +0.000 A 
ATOM     27  C   UNL     1       5.136   4.032  16.311  0.00  0.00    +0.000 A 
ATOM     28  C   UNL     1       4.119   3.390  17.021  0.00  0.00    +0.000 A 
ATOM     29  C   UNL     1       4.127   3.348  18.419  0.00  0.00    +0.000 A 
ATOM     30  C   UNL     1       5.202   3.949  19.088  0.00  0.00    +0.000 A 
ATOM     31  C   UNL     1       6.215   4.614  18.380  0.00  0.00    +0.000 A 
BRANCH  26  33
ATOM     32  C   UNL     1       7.101   4.852  14.824  0.00  0.00    +0.000 C 
ATOM     33  O   UNL     1       7.110   5.260  16.187  0.00  0.00    +0.000 OA
ENDBRANCH  26  33
ENDBRANCH  24  29
ENDBRANCH  22  24
ENDBRANCH  20  23
ENDBRANCH   1  20
TORSDOF 7
ENDMDL
MODEL 3
REMARK VINA RESULT:      -8.7      3.544      5.922
REMARK  Name = 
REMARK  8 active torsions:
REMARK  status: ('A' for Active; 'I' for Inactive)
REMARK    1  A    between atoms: C_1  and  O_2
REMARK    2  A    between atoms: O_2  and  C_3
REMARK    3  A    between atoms: C_6  and  N_7
REMARK    4  A    between atoms: N_7  and  C_8
REMARK    5  A    between atoms: C_9  and  C_10
REMARK    6  A    between atoms: C_10  and  C_12
REMARK    7  A    between atoms: C_14  and  C_15
REMARK    8  A    between atoms: C_18  and  C_19
REMARK                            x       y       z     vdW  Elec       q    Type
REMARK                         _______ _______ _______ _____ _____    ______ ____
ROOT
ATOM      1  C   UNL     1       1.682   6.178  20.516  0.00  0.00    +0.000 A 
ATOM      2  N   UNL     1       0.968   6.987  21.381  0.00  0.00    +0.000 NA
ATOM      3  C   UNL     1       0.906   8.189  20.834  0.00  0.00    +0.000 A 
ATOM      4  N   UNL     1       1.655   8.225  19.662  0.00  0.00    +0.000 N 
ATOM      5  C   UNL     1       1.943   9.280  18.785  0.00  0.00    +0.000 A 
ATOM      6  C   UNL     1       2.631   9.044  17.655  0.00  0.00    +0.000 A 
ATOM      7  C   UNL     1       3.106   7.698  17.395  0.00  0.00    +0.000 A 
ATOM      8  C   UNL     1       2.873   6.688  18.256  0.00  0.00    +0.000 A 
ATOM      9  C   UNL     1       2.120   6.930  19.441  0.00  0.00    +0.000 A 
ENDROOT
BRANCH   3  10
ATOM     10  C   UNL     1       0.122   9.287  21.414  0.00  0.00    +0.000 A 
ATOM     11  C   UNL     1      -0.268  10.355  20.593  0.00  0.00    +0.000 A 
ATOM     12  C   UNL     1      -0.973  11.445  21.114  0.00  0.00    +0.000 A 
ATOM     13  C   UNL     1      -1.309  11.483  22.473  0.00  0.00    +0.000 A 
ATOM     14  C   UNL     1      -0.905  10.426  23.299  0.00  0.00    +0.000 A 
ATOM     15  C   UNL     1      -0.178   9.353  22.779  0.00  0.00    +0.000 A 
BRANCH  13  16
ATOM     16  C   UNL     1      -2.085  12.637  23.061  0.00  0.00    +0.000 C 
ATOM     17  F   UNL     1      -1.318  13.508  23.772  0.00  0.00    +0.000 F 
ATOM     18  F   UNL     1      -2.706  13.381  22.102  0.00  0.00    +0.000 F 
ATOM     19  F   UNL     1      -3.067  12.224  23.906  0.00  0.00    +0.000 F 
ENDBRANCH  13  16
ENDBRANCH   3  10
BRANCH   1  20
ATOM     20  C   UNL     1       1.904   4.755  20.756  0.00  0.00    +0.000 C 
ATOM     21  O   UNL     1       2.561   4.304  21.692  0.00  0.00    +0.000 OA
BRANCH  20  23
ATOM     22  C   UNL     1       1.934   2.992  19.004  0.00  0.00    +0.000 C 
ATOM     23  C   UNL     1       1.251   3.878  19.741  0.00  0.00    +0.000 C 
BRANCH  22  24
ATOM     24  N   UNL     1       3.283   2.771  19.010  0.00  0.00    +0.000 N 
ATOM     25  H   UNL     1       3.582   1.950  19.542  0.00  0.00    +0.000 HD
BRANCH  24  29
ATOM     26  C   UNL     1       6.355   5.060  17.227  0.00  0.00    +0.000 A 
ATOM     27  C   UNL     1       6.221   4.977  18.611  0.00  0.00    +0.000 A 
ATOM     28  C   UNL     1       5.214   4.194  19.178  0.00  0.00    +0.000 A 
ATOM     29  C   UNL     1       4.307   3.491  18.377  0.00  0.00    +0.000 A 
ATOM     30  C   UNL     1       4.423   3.615  16.987  0.00  0.00    +0.000 A 
ATOM     31  C   UNL     1       5.448   4.383  16.412  0.00  0.00    +0.000 A 
BRANCH  26  33
ATOM     32  C   UNL     1       7.483   7.124  17.420  0.00  0.00    +0.000 C 
ATOM     33  O   UNL     1       7.379   5.853  16.790  0.00  0.00    +0.000 OA
ENDBRANCH  26  33
ENDBRANCH  24  29
ENDBRANCH  22  24
ENDBRANCH  20  23
ENDBRANCH   1  20
TORSDOF 7
ENDMDL
MODEL 4
REMARK VINA RESULT:      -8.6      0.847      1.605
REMARK  Name = 
REMARK  8 active torsions:
REMARK  status: ('A' for Active; 'I' for Inactive)
REMARK    1  A    between atoms: C_1  and  O_2
REMARK    2  A    between atoms: O_2  and  C_3
REMARK    3  A    between atoms: C_6  and  N_7
REMARK    4  A    between atoms: N_7  and  C_8
REMARK    5  A    between atoms: C_9  and  C_10
REMARK    6  A    between atoms: C_10  and  C_12
REMARK    7  A    between atoms: C_14  and  C_15
REMARK    8  A    between atoms: C_18  and  C_19
REMARK                            x       y       z     vdW  Elec       q    Type
REMARK                         _______ _______ _______ _____ _____    ______ ____
ROOT
ATOM      1  C   UNL     1       5.144   5.365  17.555  0.00  0.00    +0.000 A 
ATOM      2  N   UNL     1       4.624   6.622  17.801  0.00  0.00    +0.000 NA
ATOM      3  C   UNL     1       3.348   6.466  18.110  0.00  0.00    +0.000 A 
ATOM      4  N   UNL     1       2.980   5.130  17.976  0.00  0.00    +0.000 N 
ATOM      5  C   UNL     1       1.736   4.499  18.122  0.00  0.00    +0.000 A 
ATOM      6  C   UNL     1       1.648   3.162  18.021  0.00  0.00    +0.000 A 
ATOM      7  C   UNL     1       2.845   2.405  17.711  0.00  0.00    +0.000 A 
ATOM      8  C   UNL     1       4.035   3.008  17.524  0.00  0.00    +0.000 A 
ATOM      9  C   UNL     1       4.137   4.423  17.657  0.00  0.00    +0.000 A 
ENDROOT
BRANCH   3  10
ATOM     10  C   UNL     1       2.494   7.577  18.549  0.00  0.00    +0.000 A 
ATOM     11  C   UNL     1       2.057   7.617  19.880  0.00  0.00    +0.000 A 
ATOM     12  C   UNL     1       1.203   8.630  20.329  0.00  0.00    +0.000 A 
ATOM     13  C   UNL     1       0.774   9.631  19.449  0.00  0.00    +0.000 A 
ATOM     14  C   UNL     1       1.193   9.583  18.113  0.00  0.00    +0.000 A 
ATOM     15  C   UNL     1       2.024   8.554  17.664  0.00  0.00    +0.000 A 
BRANCH  13  16
ATOM     16  C   UNL     1      -0.134  10.747  19.907  0.00  0.00    +0.000 C 
ATOM     17  F   UNL     1      -1.159  11.008  19.050  0.00  0.00    +0.000 F 
ATOM     18  F   UNL     1      -0.713  10.478  21.111  0.00  0.00    +0.000 F 
ATOM     19  F   UNL     1       0.531  11.923  20.067  0.00  0.00    +0.000 F 
ENDBRANCH  13  16
ENDBRANCH   3  10
BRANCH   1  20
ATOM     20  C   UNL     1       6.552   5.132  17.243  0.00  0.00    +0.000 C 
ATOM     21  O   UNL     1       6.967   4.759  16.148  0.00  0.00    +0.000 OA
BRANCH  20  23
ATOM     22  C   UNL     1       7.979   6.601  18.652  0.00  0.00    +0.000 C 
ATOM     23  C   UNL     1       7.462   5.392  18.397  0.00  0.00    +0.000 C 
BRANCH  22  24
ATOM     24  N   UNL     1       7.819   7.745  17.921  0.00  0.00    +0.000 N 
ATOM     25  H   UNL     1       7.237   7.644  17.085  0.00  0.00    +0.000 HD
BRANCH  24  29
ATOM     26  C   UNL     1       9.308  11.597  18.815  0.00  0.00    +0.000 A 
ATOM     27  C   UNL     1       9.611  10.498  19.614  0.00  0.00    +0.000 A 
ATOM     28  C   UNL     1       9.129   9.230  19.285  0.00  0.00    +0.000 A 
ATOM     29  C   UNL     1       8.318   9.033  18.161  0.00  0.00    +0.000 A 
ATOM     30  C   UNL     1       7.984  10.152  17.388  0.00  0.00    +0.000 A 
ATOM     31  C   UNL     1       8.485  11.425  17.702  0.00  0.00    +0.000 A 
BRANCH  26  33
ATOM     32  C   UNL     1      11.193  12.731  19.669  0.00  0.00    +0.000 C 
ATOM     33  O   UNL     1       9.839  12.784  19.235  0.00  0.00    +0.000 OA
ENDBRANCH  26  33
ENDBRANCH  24  29
ENDBRANCH  22  24
ENDBRANCH  20  23
ENDBRANCH   1  20
TORSDOF 7
ENDMDL
MODEL 5
REMARK VINA RESULT:      -8.6      3.769      5.766
REMARK  Name = 
REMARK  8 active torsions:
REMARK  status: ('A' for Active; 'I' for Inactive)
REMARK    1  A    between atoms: C_1  and  O_2
REMARK    2  A    between atoms: O_2  and  C_3
REMARK    3  A    between atoms: C_6  and  N_7
REMARK    4  A    between atoms: N_7  and  C_8
REMARK    5  A    between atoms: C_9  and  C_10
REMARK    6  A    between atoms: C_10  and  C_12
REMARK    7  A    between atoms: C_14  and  C_15
REMARK    8  A    between atoms: C_18  and  C_19
REMARK                            x       y       z     vdW  Elec       q    Type
REMARK                         _______ _______ _______ _____ _____    ______ ____
ROOT
ATOM      1  C   UNL     1       4.421   5.449  18.976  0.00  0.00    +0.000 A 
ATOM      2  N   UNL     1       3.848   6.705  18.884  0.00  0.00    +0.000 NA
ATOM      3  C   UNL     1       2.679   6.650  19.499  0.00  0.00    +0.000 A 
ATOM      4  N   UNL     1       2.414   5.348  19.914  0.00  0.00    +0.000 N 
ATOM      5  C   UNL     1       1.287   4.792  20.536  0.00  0.00    +0.000 A 
ATOM      6  C   UNL     1       1.301   3.505  20.921  0.00  0.00    +0.000 A 
ATOM      7  C   UNL     1       2.476   2.704  20.635  0.00  0.00    +0.000 A 
ATOM      8  C   UNL     1       3.545   3.219  19.997  0.00  0.00    +0.000 A 
ATOM      9  C   UNL     1       3.543   4.590  19.611  0.00  0.00    +0.000 A 
ENDROOT
BRANCH   3  10
ATOM     10  C   UNL     1       1.833   7.832  19.707  0.00  0.00    +0.000 A 
ATOM     11  C   UNL     1       1.209   8.015  20.949  0.00  0.00    +0.000 A 
ATOM     12  C   UNL     1       0.356   9.100  21.175  0.00  0.00    +0.000 A 
ATOM     13  C   UNL     1       0.117  10.032  20.157  0.00  0.00    +0.000 A 
ATOM     14  C   UNL     1       0.726   9.843  18.909  0.00  0.00    +0.000 A 
ATOM     15  C   UNL     1       1.555   8.743  18.681  0.00  0.00    +0.000 A 
BRANCH  13  16
ATOM     16  C   UNL     1      -0.784  11.224  20.376  0.00  0.00    +0.000 C 
ATOM     17  F   UNL     1      -1.901  11.217  19.597  0.00  0.00    +0.000 F 
ATOM     18  F   UNL     1      -1.226  11.306  21.662  0.00  0.00    +0.000 F 
ATOM     19  F   UNL     1      -0.155  12.403  20.122  0.00  0.00    +0.000 F 
ENDBRANCH  13  16
ENDBRANCH   3  10
BRANCH   1  20
ATOM     20  C   UNL     1       5.753   5.141  18.462  0.00  0.00    +0.000 C 
ATOM     21  O   UNL     1       6.271   4.028  18.501  0.00  0.00    +0.000 OA
BRANCH  20  23
ATOM     22  C   UNL     1       7.207   6.247  16.776  0.00  0.00    +0.000 C 
ATOM     23  C   UNL     1       6.445   6.326  17.874  0.00  0.00    +0.000 C 
BRANCH  22  24
ATOM     24  N   UNL     1       7.514   5.126  16.056  0.00  0.00    +0.000 N 
ATOM     25  H   UNL     1       8.191   4.502  16.499  0.00  0.00    +0.000 HD
BRANCH  24  29
ATOM     26  C   UNL     1       5.972   3.705  12.387  0.00  0.00    +0.000 A 
ATOM     27  C   UNL     1       5.324   3.451  13.594  0.00  0.00    +0.000 A 
ATOM     28  C   UNL     1       5.839   3.953  14.791  0.00  0.00    +0.000 A 
ATOM     29  C   UNL     1       7.020   4.702  14.813  0.00  0.00    +0.000 A 
ATOM     30  C   UNL     1       7.687   4.915  13.600  0.00  0.00    +0.000 A 
ATOM     31  C   UNL     1       7.162   4.432  12.391  0.00  0.00    +0.000 A 
BRANCH  26  33
ATOM     32  C   UNL     1       3.951   3.212  11.272  0.00  0.00    +0.000 C 
ATOM     33  O   UNL     1       5.373   3.166  11.283  0.00  0.00    +0.000 OA
ENDBRANCH  26  33
ENDBRANCH  24  29
ENDBRANCH  22  24
ENDBRANCH  20  23
ENDBRANCH   1  20
TORSDOF 7
ENDMDL
MODEL 6
REMARK VINA RESULT:      -8.5      3.702      5.726
REMARK  Name = 
REMARK  8 active torsions:
REMARK  status: ('A' for Active; 'I' for Inactive)
REMARK    1  A    between atoms: C_1  and  O_2
REMARK    2  A    between atoms: O_2  and  C_3
REMARK    3  A    between atoms: C_6  and  N_7
REMARK    4  A    between atoms: N_7  and  C_8
REMARK    5  A    between atoms: C_9  and  C_10
REMARK    6  A    between atoms: C_10  and  C_12
REMARK    7  A    between atoms: C_14  and  C_15
REMARK    8  A    between atoms: C_18  and  C_19
REMARK                            x       y       z     vdW  Elec       q    Type
REMARK                         _______ _______ _______ _____ _____    ______ ____
ROOT
ATOM      1  C   UNL     1       4.363   5.497  18.994  0.00  0.00    +0.000 A 
ATOM      2  N   UNL     1       3.771   6.744  19.070  0.00  0.00    +0.000 NA
ATOM      3  C   UNL     1       2.597   6.588  19.658  0.00  0.00    +0.000 A 
ATOM      4  N   UNL     1       2.350   5.237  19.886  0.00  0.00    +0.000 N 
ATOM      5  C   UNL     1       1.226   4.583  20.412  0.00  0.00    +0.000 A 
ATOM      6  C   UNL     1       1.259   3.255  20.616  0.00  0.00    +0.000 A 
ATOM      7  C   UNL     1       2.449   2.519  20.236  0.00  0.00    +0.000 A 
ATOM      8  C   UNL     1       3.515   3.134  19.687  0.00  0.00    +0.000 A 
ATOM      9  C   UNL     1       3.494   4.546  19.495  0.00  0.00    +0.000 A 
ENDROOT
BRANCH   3  10
ATOM     10  C   UNL     1       1.730   7.717  20.017  0.00  0.00    +0.000 A 
ATOM     11  C   UNL     1       1.514   8.736  19.079  0.00  0.00    +0.000 A 
ATOM     12  C   UNL     1       0.734   9.854  19.396  0.00  0.00    +0.000 A 
ATOM     13  C   UNL     1       0.148   9.968  20.662  0.00  0.00    +0.000 A 
ATOM     14  C   UNL     1       0.377   8.960  21.608  0.00  0.00    +0.000 A 
ATOM     15  C   UNL     1       1.178   7.859  21.295  0.00  0.00    +0.000 A 
BRANCH  13  16
ATOM     16  C   UNL     1      -0.713  11.153  21.028  0.00  0.00    +0.000 C 
ATOM     17  F   UNL     1      -1.682  11.431  20.112  0.00  0.00    +0.000 F 
ATOM     18  F   UNL     1      -1.361  10.973  22.214  0.00  0.00    +0.000 F 
ATOM     19  F   UNL     1       0.010  12.296  21.168  0.00  0.00    +0.000 F 
ENDBRANCH  13  16
ENDBRANCH   3  10
BRANCH   1  20
ATOM     20  C   UNL     1       5.705   5.284  18.458  0.00  0.00    +0.000 C 
ATOM     21  O   UNL     1       6.292   4.204  18.466  0.00  0.00    +0.000 OA
BRANCH  20  23
ATOM     22  C   UNL     1       7.103   6.506  16.806  0.00  0.00    +0.000 C 
ATOM     23  C   UNL     1       6.315   6.521  17.888  0.00  0.00    +0.000 C 
BRANCH  22  24
ATOM     24  N   UNL     1       7.512   5.416  16.090  0.00  0.00    +0.000 N 
ATOM     25  H   UNL     1       8.327   4.931  16.471  0.00  0.00    +0.000 HD
BRANCH  24  29
ATOM     26  C   UNL     1       5.801   3.608  12.675  0.00  0.00    +0.000 A 
ATOM     27  C   UNL     1       5.175   3.550  13.918  0.00  0.00    +0.000 A 
ATOM     28  C   UNL     1       5.747   4.177  15.027  0.00  0.00    +0.000 A 
ATOM     29  C   UNL     1       6.964   4.859  14.925  0.00  0.00    +0.000 A 
ATOM     30  C   UNL     1       7.607   4.874  13.680  0.00  0.00    +0.000 A 
ATOM     31  C   UNL     1       7.025   4.265  12.558  0.00  0.00    +0.000 A 
BRANCH  26  33
ATOM     32  C   UNL     1       5.699   1.709  11.278  0.00  0.00    +0.000 C 
ATOM     33  O   UNL     1       5.146   2.961  11.665  0.00  0.00    +0.000 OA
ENDBRANCH  26  33
ENDBRANCH  24  29
ENDBRANCH  22  24
ENDBRANCH  20  23
ENDBRANCH   1  20
TORSDOF 7
ENDMDL
MODEL 7
REMARK VINA RESULT:      -8.5      0.648      1.261
REMARK  Name = 
REMARK  8 active torsions:
REMARK  status: ('A' for Active; 'I' for Inactive)
REMARK    1  A    between atoms: C_1  and  O_2
REMARK    2  A    between atoms: O_2  and  C_3
REMARK    3  A    between atoms: C_6  and  N_7
REMARK    4  A    between atoms: N_7  and  C_8
REMARK    5  A    between atoms: C_9  and  C_10
REMARK    6  A    between atoms: C_10  and  C_12
REMARK    7  A    between atoms: C_14  and  C_15
REMARK    8  A    between atoms: C_18  and  C_19
REMARK                            x       y       z     vdW  Elec       q    Type
REMARK                         _______ _______ _______ _____ _____    ______ ____
ROOT
ATOM      1  C   UNL     1       5.094   6.265  17.532  0.00  0.00    +0.000 A 
ATOM      2  N   UNL     1       4.327   7.406  17.687  0.00  0.00    +0.000 NA
ATOM      3  C   UNL     1       3.199   7.045  18.275  0.00  0.00    +0.000 A 
ATOM      4  N   UNL     1       3.155   5.662  18.424  0.00  0.00    +0.000 N 
ATOM      5  C   UNL     1       2.148   4.821  18.919  0.00  0.00    +0.000 A 
ATOM      6  C   UNL     1       2.377   3.503  19.043  0.00  0.00    +0.000 A 
ATOM      7  C   UNL     1       3.655   2.972  18.610  0.00  0.00    +0.000 A 
ATOM      8  C   UNL     1       4.611   3.767  18.090  0.00  0.00    +0.000 A 
ATOM      9  C   UNL     1       4.381   5.169  17.982  0.00  0.00    +0.000 A 
ENDROOT
BRANCH   3  10
ATOM     10  C   UNL     1       2.183   8.012  18.708  0.00  0.00    +0.000 A 
ATOM     11  C   UNL     1       1.684   8.939  17.781  0.00  0.00    +0.000 A 
ATOM     12  C   UNL     1       0.750   9.909  18.162  0.00  0.00    +0.000 A 
ATOM     13  C   UNL     1       0.292   9.964  19.485  0.00  0.00    +0.000 A 
ATOM     14  C   UNL     1       0.803   9.052  20.417  0.00  0.00    +0.000 A 
ATOM     15  C   UNL     1       1.754   8.103  20.036  0.00  0.00    +0.000 A 
BRANCH  13  16
ATOM     16  C   UNL     1      -0.727  10.988  19.922  0.00  0.00    +0.000 C 
ATOM     17  F   UNL     1      -1.898  10.927  19.230  0.00  0.00    +0.000 F 
ATOM     18  F   UNL     1      -1.063  10.851  21.236  0.00  0.00    +0.000 F 
ATOM     19  F   UNL     1      -0.275  12.263  19.784  0.00  0.00    +0.000 F 
ENDBRANCH  13  16
ENDBRANCH   3  10
BRANCH   1  20
ATOM     20  C   UNL     1       6.443   6.282  16.973  0.00  0.00    +0.000 C 
ATOM     21  O   UNL     1       6.696   6.262  15.771  0.00  0.00    +0.000 OA
BRANCH  20  23
ATOM     22  C   UNL     1       8.143   7.453  18.358  0.00  0.00    +0.000 C 
ATOM     23  C   UNL     1       7.511   6.323  18.015  0.00  0.00    +0.000 C 
BRANCH  22  24
ATOM     24  N   UNL     1       7.973   8.697  17.818  0.00  0.00    +0.000 N 
ATOM     25  H   UNL     1       7.320   8.740  17.032  0.00  0.00    +0.000 HD
BRANCH  24  29
ATOM     26  C   UNL     1       9.684  12.332  19.128  0.00  0.00    +0.000 A 
ATOM     27  C   UNL     1       9.922  11.134  19.799  0.00  0.00    +0.000 A 
ATOM     28  C   UNL     1       9.366   9.941  19.332  0.00  0.00    +0.000 A 
ATOM     29  C   UNL     1       8.546   9.919  18.198  0.00  0.00    +0.000 A 
ATOM     30  C   UNL     1       8.279  11.136  17.557  0.00  0.00    +0.000 A 
ATOM     31  C   UNL     1       8.853  12.334  18.009  0.00  0.00    +0.000 A 
BRANCH  26  33
ATOM     32  C   UNL     1       9.409  14.352  20.317  0.00  0.00    +0.000 C 
ATOM     33  O   UNL     1      10.284  13.431  19.676  0.00  0.00    +0.000 OA
ENDBRANCH  26  33
ENDBRANCH  24  29
ENDBRANCH  22  24
ENDBRANCH  20  23
ENDBRANCH   1  20
TORSDOF 7
ENDMDL
MODEL 8
REMARK VINA RESULT:      -8.4      3.925      5.933
REMARK  Name = 
REMARK  8 active torsions:
REMARK  status: ('A' for Active; 'I' for Inactive)
REMARK    1  A    between atoms: C_1  and  O_2
REMARK    2  A    between atoms: O_2  and  C_3
REMARK    3  A    between atoms: C_6  and  N_7
REMARK    4  A    between atoms: N_7  and  C_8
REMARK    5  A    between atoms: C_9  and  C_10
REMARK    6  A    between atoms: C_10  and  C_12
REMARK    7  A    between atoms: C_14  and  C_15
REMARK    8  A    between atoms: C_18  and  C_19
REMARK                            x       y       z     vdW  Elec       q    Type
REMARK                         _______ _______ _______ _____ _____    ______ ____
ROOT
ATOM      1  C   UNL     1       3.781   6.506  18.125  0.00  0.00    +0.000 A 
ATOM      2  N   UNL     1       3.120   7.664  18.489  0.00  0.00    +0.000 NA
ATOM      3  C   UNL     1       2.262   7.344  19.443  0.00  0.00    +0.000 A 
ATOM      4  N   UNL     1       2.267   5.968  19.653  0.00  0.00    +0.000 N 
ATOM      5  C   UNL     1       1.489   5.164  20.498  0.00  0.00    +0.000 A 
ATOM      6  C   UNL     1       1.741   3.847  20.588  0.00  0.00    +0.000 A 
ATOM      7  C   UNL     1       2.790   3.279  19.762  0.00  0.00    +0.000 A 
ATOM      8  C   UNL     1       3.510   4.038  18.913  0.00  0.00    +0.000 A 
ATOM      9  C   UNL     1       3.263   5.439  18.836  0.00  0.00    +0.000 A 
ENDROOT
BRANCH   3  10
ATOM     10  C   UNL     1       1.461   8.344  20.161  0.00  0.00    +0.000 A 
ATOM     11  C   UNL     1       0.927   9.429  19.451  0.00  0.00    +0.000 A 
ATOM     12  C   UNL     1       0.199  10.429  20.103  0.00  0.00    +0.000 A 
ATOM     13  C   UNL     1      -0.014  10.358  21.486  0.00  0.00    +0.000 A 
ATOM     14  C   UNL     1       0.534   9.285  22.201  0.00  0.00    +0.000 A 
ATOM     15  C   UNL     1       1.282   8.303  21.548  0.00  0.00    +0.000 A 
BRANCH  13  16
ATOM     16  C   UNL     1      -0.810  11.413  22.215  0.00  0.00    +0.000 C 
ATOM     17  F   UNL     1      -1.993  11.721  21.615  0.00  0.00    +0.000 F 
ATOM     18  F   UNL     1      -1.124  11.034  23.486  0.00  0.00    +0.000 F 
ATOM     19  F   UNL     1      -0.132  12.587  22.332  0.00  0.00    +0.000 F 
ENDBRANCH  13  16
ENDBRANCH   3  10
BRANCH   1  20
ATOM     20  C   UNL     1       4.855   6.479  17.134  0.00  0.00    +0.000 C 
ATOM     21  O   UNL     1       4.776   6.973  16.012  0.00  0.00    +0.000 OA
BRANCH  20  23
ATOM     22  C   UNL     1       7.124   5.516  16.818  0.00  0.00    +0.000 C 
ATOM     23  C   UNL     1       6.082   5.779  17.616  0.00  0.00    +0.000 C 
BRANCH  22  24
ATOM     24  N   UNL     1       7.235   5.780  15.481  0.00  0.00    +0.000 N 
ATOM     25  H   UNL     1       7.663   6.681  15.255  0.00  0.00    +0.000 HD
BRANCH  24  29
ATOM     26  C   UNL     1       6.089   3.269  12.282  0.00  0.00    +0.000 A 
ATOM     27  C   UNL     1       5.422   3.238  13.504  0.00  0.00    +0.000 A 
ATOM     28  C   UNL     1       5.802   4.096  14.538  0.00  0.00    +0.000 A 
ATOM     29  C   UNL     1       6.868   4.989  14.383  0.00  0.00    +0.000 A 
ATOM     30  C   UNL     1       7.560   4.982  13.165  0.00  0.00    +0.000 A 
ATOM     31  C   UNL     1       7.167   4.138  12.115  0.00  0.00    +0.000 A 
BRANCH  26  33
ATOM     32  C   UNL     1       6.474   1.279  11.074  0.00  0.00    +0.000 C 
ATOM     33  O   UNL     1       5.626   2.388  11.346  0.00  0.00    +0.000 OA
ENDBRANCH  26  33
ENDBRANCH  24  29
ENDBRANCH  22  24
ENDBRANCH  20  23
ENDBRANCH   1  20
TORSDOF 7
ENDMDL
MODEL 9
REMARK VINA RESULT:      -8.4      5.953     10.545
REMARK  Name = 
REMARK  8 active torsions:
REMARK  status: ('A' for Active; 'I' for Inactive)
REMARK    1  A    between atoms: C_1  and  O_2
REMARK    2  A    between atoms: O_2  and  C_3
REMARK    3  A    between atoms: C_6  and  N_7
REMARK    4  A    between atoms: N_7  and  C_8
REMARK    5  A    between atoms: C_9  and  C_10
REMARK    6  A    between atoms: C_10  and  C_12
REMARK    7  A    between atoms: C_14  and  C_15
REMARK    8  A    between atoms: C_18  and  C_19
REMARK                            x       y       z     vdW  Elec       q    Type
REMARK                         _______ _______ _______ _____ _____    ______ ____
ROOT
ATOM      1  C   UNL     1      -0.262  10.470  18.853  0.00  0.00    +0.000 A 
ATOM      2  N   UNL     1       0.668   9.647  18.245  0.00  0.00    +0.000 NA
ATOM      3  C   UNL     1       1.251   8.940  19.198  0.00  0.00    +0.000 A 
ATOM      4  N   UNL     1       0.796   9.350  20.448  0.00  0.00    +0.000 N 
ATOM      5  C   UNL     1       1.169   8.951  21.739  0.00  0.00    +0.000 A 
ATOM      6  C   UNL     1       0.515   9.440  22.807  0.00  0.00    +0.000 A 
ATOM      7  C   UNL     1      -0.537  10.416  22.594  0.00  0.00    +0.000 A 
ATOM      8  C   UNL     1      -0.869  10.839  21.359  0.00  0.00    +0.000 A 
ATOM      9  C   UNL     1      -0.196  10.302  20.224  0.00  0.00    +0.000 A 
ENDROOT
BRANCH   3  10
ATOM     10  C   UNL     1       2.216   7.869  18.918  0.00  0.00    +0.000 A 
ATOM     11  C   UNL     1       2.326   6.797  19.814  0.00  0.00    +0.000 A 
ATOM     12  C   UNL     1       3.266   5.781  19.612  0.00  0.00    +0.000 A 
ATOM     13  C   UNL     1       4.113   5.817  18.498  0.00  0.00    +0.000 A 
ATOM     14  C   UNL     1       4.019   6.897  17.610  0.00  0.00    +0.000 A 
ATOM     15  C   UNL     1       3.097   7.922  17.832  0.00  0.00    +0.000 A 
BRANCH  13  16
ATOM     16  C   UNL     1       5.126   4.726  18.243  0.00  0.00    +0.000 C 
ATOM     17  F   UNL     1       5.793   4.861  17.064  0.00  0.00    +0.000 F 
ATOM     18  F   UNL     1       6.084   4.676  19.212  0.00  0.00    +0.000 F 
ATOM     19  F   UNL     1       4.560   3.490  18.215  0.00  0.00    +0.000 F 
ENDBRANCH  13  16
ENDBRANCH   3  10
BRANCH   1  20
ATOM     20  C   UNL     1      -1.149  11.358  18.106  0.00  0.00    +0.000 C 
ATOM     21  O   UNL     1      -1.183  12.579  18.241  0.00  0.00    +0.000 OA
BRANCH  20  23
ATOM     22  C   UNL     1      -3.314  10.969  16.949  0.00  0.00    +0.000 C 
ATOM     23  C   UNL     1      -2.033  10.634  17.146  0.00  0.00    +0.000 C 
BRANCH  22  24
ATOM     24  N   UNL     1      -4.025  11.949  17.586  0.00  0.00    +0.000 N 
ATOM     25  H   UNL     1      -3.880  12.893  17.220  0.00  0.00    +0.000 HD
BRANCH  24  29
ATOM     26  C   UNL     1      -6.891  11.627  20.673  0.00  0.00    +0.000 A 
ATOM     27  C   UNL     1      -7.068  10.986  19.450  0.00  0.00    +0.000 A 
ATOM     28  C   UNL     1      -6.094  11.086  18.453  0.00  0.00    +0.000 A 
ATOM     29  C   UNL     1      -4.933  11.842  18.648  0.00  0.00    +0.000 A 
ATOM     30  C   UNL     1      -4.786  12.518  19.867  0.00  0.00    +0.000 A 
ATOM     31  C   UNL     1      -5.751  12.402  20.880  0.00  0.00    +0.000 A 
BRANCH  26  33
ATOM     32  C   UNL     1      -7.820  12.236  22.755  0.00  0.00    +0.000 C 
ATOM     33  O   UNL     1      -7.908  11.454  21.570  0.00  0.00    +0.000 OA
ENDBRANCH  26  33
ENDBRANCH  24  29
ENDBRANCH  22  24
ENDBRANCH  20  23
ENDBRANCH   1  20
TORSDOF 7
ENDMDL
