MODEL 1
REMARK VINA RESULT:      -7.9      0.000      0.000
REMARK  Name = 
REMARK  4 active torsions:
REMARK  status: ('A' for Active; 'I' for Inactive)
REMARK    1  A    between atoms: C_1  and  C_2
REMARK    2  A    between atoms: C_5  and  C_6
REMARK    3  A    between atoms: C_6  and  N_7
REMARK    4  A    between atoms: N_7  and  C_8
REMARK                            x       y       z     vdW  Elec       q    Type
REMARK                         _______ _______ _______ _____ _____    ______ ____
ROOT
ATOM      1  C   UNL     1       5.368   4.340  17.001  0.00  0.00    +0.000 A 
ATOM      2  C   UNL     1       4.934   5.369  16.166  0.00  0.00    +0.000 A 
ATOM      3  C   UNL     1       5.524   6.640  16.230  0.00  0.00    +0.000 A 
ATOM      4  C   UNL     1       6.535   6.931  17.135  0.00  0.00    +0.000 A 
ATOM      5  N   UNL     1       7.093   8.147  17.145  0.00  0.00    +0.000 NA
ATOM      6  C   UNL     1       8.064   8.371  18.032  0.00  0.00    +0.000 A 
ATOM      7  N   UNL     1       8.650   9.622  18.032  0.00  0.00    +0.000 N 
ATOM      8  N   UNL     1       8.493   7.501  18.942  0.00  0.00    +0.000 NA
ATOM      9  C   UNL     1       7.932   6.286  18.919  0.00  0.00    +0.000 A 
ATOM     10  N   UNL     1       8.399   5.392  19.895  0.00  0.00    +0.000 N 
ATOM     11  C   UNL     1       6.930   5.925  18.018  0.00  0.00    +0.000 A 
ATOM     12  C   UNL     1       6.329   4.645  17.959  0.00  0.00    +0.000 A 
ATOM     13  H   UNL     1       8.003  10.297  17.648  0.00  0.00    +0.000 HD
ATOM     14  H   UNL     1       9.034   9.814  18.945  0.00  0.00    +0.000 HD
ATOM     15  H   UNL     1       9.151   5.864  20.391  0.00  0.00    +0.000 HD
ATOM     16  H   UNL     1       8.718   4.525  19.477  0.00  0.00    +0.000 HD
ENDROOT
BRANCH   1  17
ATOM     17  N   UNL     1       4.764   3.083  16.881  0.00  0.00    +0.000 N 
ATOM     18  H   UNL     1       5.174   2.564  16.106  0.00  0.00    +0.000 HD
BRANCH  17  19
ATOM     19  C   UNL     1       3.304   3.040  16.821  0.00  0.00    +0.000 C 
BRANCH  19  24
ATOM     20  C   UNL     1       1.191   2.616  22.231  0.00  0.00    +0.000 C 
ATOM     21  C   UNL     1       1.736   2.713  20.838  0.00  0.00    +0.000 A 
ATOM     22  C   UNL     1       3.073   2.404  20.570  0.00  0.00    +0.000 A 
ATOM     23  C   UNL     1       3.568   2.497  19.268  0.00  0.00    +0.000 A 
ATOM     24  C   UNL     1       2.738   2.896  18.210  0.00  0.00    +0.000 A 
ATOM     25  C   UNL     1       1.403   3.215  18.484  0.00  0.00    +0.000 A 
ATOM     26  C   UNL     1       0.907   3.124  19.788  0.00  0.00    +0.000 A 
ENDBRANCH  19  24
ENDBRANCH  17  19
ENDBRANCH   1  17
TORSDOF 3
ENDMDL
MODEL 2
REMARK VINA RESULT:      -7.9      0.054      1.053
REMARK  Name = 
REMARK  4 active torsions:
REMARK  status: ('A' for Active; 'I' for Inactive)
REMARK    1  A    between atoms: C_1  and  C_2
REMARK    2  A    between atoms: C_5  and  C_6
REMARK    3  A    between atoms: C_6  and  N_7
REMARK    4  A    between atoms: N_7  and  C_8
REMARK                            x       y       z     vdW  Elec       q    Type
REMARK                         _______ _______ _______ _____ _____    ______ ____
ROOT
ATOM      1  C   UNL     1       5.364   4.316  17.013  0.00  0.00    +0.000 A 
ATOM      2  C   UNL     1       4.925   5.338  16.172  0.00  0.00    +0.000 A 
ATOM      3  C   UNL     1       5.512   6.611  16.225  0.00  0.00    +0.000 A 
ATOM      4  C   UNL     1       6.525   6.911  17.126  0.00  0.00    +0.000 A 
ATOM      5  N   UNL     1       7.080   8.128  17.126  0.00  0.00    +0.000 NA
ATOM      6  C   UNL     1       8.053   8.360  18.009  0.00  0.00    +0.000 A 
ATOM      7  N   UNL     1       8.636   9.612  18.000  0.00  0.00    +0.000 N 
ATOM      8  N   UNL     1       8.486   7.498  18.925  0.00  0.00    +0.000 NA
ATOM      9  C   UNL     1       7.927   6.281  18.911  0.00  0.00    +0.000 A 
ATOM     10  N   UNL     1       8.399   5.396  19.892  0.00  0.00    +0.000 N 
ATOM     11  C   UNL     1       6.925   5.912  18.015  0.00  0.00    +0.000 A 
ATOM     12  C   UNL     1       6.326   4.630  17.966  0.00  0.00    +0.000 A 
ATOM     13  H   UNL     1       7.987  10.284  17.612  0.00  0.00    +0.000 HD
ATOM     14  H   UNL     1       9.022   9.812  18.910  0.00  0.00    +0.000 HD
ATOM     15  H   UNL     1       9.151   5.872  20.384  0.00  0.00    +0.000 HD
ATOM     16  H   UNL     1       8.719   4.526  19.480  0.00  0.00    +0.000 HD
ENDROOT
BRANCH   1  17
ATOM     17  N   UNL     1       4.762   3.057  16.904  0.00  0.00    +0.000 N 
ATOM     18  H   UNL     1       5.157   2.541  16.118  0.00  0.00    +0.000 HD
BRANCH  17  19
ATOM     19  C   UNL     1       3.301   3.008  16.874  0.00  0.00    +0.000 C 
BRANCH  19  24
ATOM     20  C   UNL     1       1.153   2.577  22.270  0.00  0.00    +0.000 C 
ATOM     21  C   UNL     1       1.704   2.700  20.881  0.00  0.00    +0.000 A 
ATOM     22  C   UNL     1       0.874   3.045  19.810  0.00  0.00    +0.000 A 
ATOM     23  C   UNL     1       1.400   3.159  18.522  0.00  0.00    +0.000 A 
ATOM     24  C   UNL     1       2.763   2.932  18.280  0.00  0.00    +0.000 A 
ATOM     25  C   UNL     1       3.588   2.576  19.353  0.00  0.00    +0.000 A 
ATOM     26  C   UNL     1       3.062   2.461  20.642  0.00  0.00    +0.000 A 
ENDBRANCH  19  24
ENDBRANCH  17  19
ENDBRANCH   1  17
TORSDOF 3
ENDMDL
MODEL 3
REMARK VINA RESULT:      -7.8      3.837      5.197
REMARK  Name = 
REMARK  4 active torsions:
REMARK  status: ('A' for Active; 'I' for Inactive)
REMARK    1  A    between atoms: C_1  and  C_2
REMARK    2  A    between atoms: C_5  and  C_6
REMARK    3  A    between atoms: C_6  and  N_7
REMARK    4  A    between atoms: N_7  and  C_8
REMARK                            x       y       z     vdW  Elec       q    Type
REMARK                         _______ _______ _______ _____ _____    ______ ____
ROOT
ATOM      1  C   UNL     1       4.133   5.295  18.768  0.00  0.00    +0.000 A 
ATOM      2  C   UNL     1       3.390   4.324  18.098  0.00  0.00    +0.000 A 
ATOM      3  C   UNL     1       3.815   3.827  16.857  0.00  0.00    +0.000 A 
ATOM      4  C   UNL     1       4.966   4.294  16.238  0.00  0.00    +0.000 A 
ATOM      5  N   UNL     1       5.354   3.774  15.068  0.00  0.00    +0.000 NA
ATOM      6  C   UNL     1       6.471   4.256  14.521  0.00  0.00    +0.000 A 
ATOM      7  N   UNL     1       6.880   3.709  13.320  0.00  0.00    +0.000 N 
ATOM      8  N   UNL     1       7.207   5.248  15.016  0.00  0.00    +0.000 NA
ATOM      9  C   UNL     1       6.812   5.757  16.189  0.00  0.00    +0.000 A 
ATOM     10  N   UNL     1       7.604   6.805  16.683  0.00  0.00    +0.000 N 
ATOM     11  C   UNL     1       5.680   5.313  16.872  0.00  0.00    +0.000 A 
ATOM     12  C   UNL     1       5.247   5.820  18.120  0.00  0.00    +0.000 A 
ATOM     13  H   UNL     1       6.082   3.315  12.840  0.00  0.00    +0.000 HD
ATOM     14  H   UNL     1       7.441   4.380  12.817  0.00  0.00    +0.000 HD
ATOM     15  H   UNL     1       8.387   6.911  16.043  0.00  0.00    +0.000 HD
ATOM     16  H   UNL     1       7.921   6.614  17.627  0.00  0.00    +0.000 HD
ENDROOT
BRANCH   1  17
ATOM     17  N   UNL     1       3.679   5.742  20.015  0.00  0.00    +0.000 N 
ATOM     18  H   UNL     1       4.045   5.148  20.758  0.00  0.00    +0.000 HD
BRANCH  17  19
ATOM     19  C   UNL     1       2.241   5.948  20.174  0.00  0.00    +0.000 C 
BRANCH  19  24
ATOM     20  C   UNL     1       0.760  11.420  18.838  0.00  0.00    +0.000 C 
ATOM     21  C   UNL     1       1.153  10.014  19.180  0.00  0.00    +0.000 A 
ATOM     22  C   UNL     1       1.743   9.183  18.224  0.00  0.00    +0.000 A 
ATOM     23  C   UNL     1       2.107   7.876  18.556  0.00  0.00    +0.000 A 
ATOM     24  C   UNL     1       1.890   7.378  19.849  0.00  0.00    +0.000 A 
ATOM     25  C   UNL     1       1.289   8.209  20.801  0.00  0.00    +0.000 A 
ATOM     26  C   UNL     1       0.924   9.517  20.468  0.00  0.00    +0.000 A 
ENDBRANCH  19  24
ENDBRANCH  17  19
ENDBRANCH   1  17
TORSDOF 3
ENDMDL
MODEL 4
REMARK VINA RESULT:      -7.8      2.700      6.591
REMARK  Name = 
REMARK  4 active torsions:
REMARK  status: ('A' for Active; 'I' for Inactive)
REMARK    1  A    between atoms: C_1  and  C_2
REMARK    2  A    between atoms: C_5  and  C_6
REMARK    3  A    between atoms: C_6  and  N_7
REMARK    4  A    between atoms: N_7  and  C_8
REMARK                            x       y       z     vdW  Elec       q    Type
REMARK                         _______ _______ _______ _____ _____    ______ ____
ROOT
ATOM      1  C   UNL     1       3.722   3.803  17.223  0.00  0.00    +0.000 A 
ATOM      2  C   UNL     1       2.364   4.113  17.158  0.00  0.00    +0.000 A 
ATOM      3  C   UNL     1       1.523   3.881  18.256  0.00  0.00    +0.000 A 
ATOM      4  C   UNL     1       1.996   3.316  19.432  0.00  0.00    +0.000 A 
ATOM      5  N   UNL     1       1.169   3.138  20.468  0.00  0.00    +0.000 NA
ATOM      6  C   UNL     1       1.678   2.595  21.575  0.00  0.00    +0.000 A 
ATOM      7  N   UNL     1       0.826   2.425  22.650  0.00  0.00    +0.000 N 
ATOM      8  N   UNL     1       2.929   2.169  21.721  0.00  0.00    +0.000 NA
ATOM      9  C   UNL     1       3.750   2.357  20.680  0.00  0.00    +0.000 A 
ATOM     10  N   UNL     1       5.061   1.893  20.861  0.00  0.00    +0.000 N 
ATOM     11  C   UNL     1       3.341   2.943  19.482  0.00  0.00    +0.000 A 
ATOM     12  C   UNL     1       4.187   3.170  18.371  0.00  0.00    +0.000 A 
ATOM     13  H   UNL     1      -0.127   2.363  22.319  0.00  0.00    +0.000 HD
ATOM     14  H   UNL     1       1.165   1.674  23.233  0.00  0.00    +0.000 HD
ATOM     15  H   UNL     1       5.127   1.557  21.818  0.00  0.00    +0.000 HD
ATOM     16  H   UNL     1       5.740   2.624  20.677  0.00  0.00    +0.000 HD
ENDROOT
BRANCH   1  17
ATOM     17  N   UNL     1       4.525   4.076  16.109  0.00  0.00    +0.000 N 
ATOM     18  H   UNL     1       4.147   3.618  15.280  0.00  0.00    +0.000 HD
BRANCH  17  19
ATOM     19  C   UNL     1       5.959   3.825  16.234  0.00  0.00    +0.000 C 
BRANCH  19  24
ATOM     20  C   UNL     1       8.441   8.505  18.654  0.00  0.00    +0.000 C 
ATOM     21  C   UNL     1       7.809   7.302  18.021  0.00  0.00    +0.000 A 
ATOM     22  C   UNL     1       7.015   7.429  16.878  0.00  0.00    +0.000 A 
ATOM     23  C   UNL     1       6.433   6.300  16.297  0.00  0.00    +0.000 A 
ATOM     24  C   UNL     1       6.637   5.025  16.844  0.00  0.00    +0.000 A 
ATOM     25  C   UNL     1       7.424   4.903  17.996  0.00  0.00    +0.000 A 
ATOM     26  C   UNL     1       8.005   6.033  18.578  0.00  0.00    +0.000 A 
ENDBRANCH  19  24
ENDBRANCH  17  19
ENDBRANCH   1  17
TORSDOF 3
ENDMDL
MODEL 5
REMARK VINA RESULT:      -7.8      5.592      7.332
REMARK  Name = 
REMARK  4 active torsions:
REMARK  status: ('A' for Active; 'I' for Inactive)
REMARK    1  A    between atoms: C_1  and  C_2
REMARK    2  A    between atoms: C_5  and  C_6
REMARK    3  A    between atoms: C_6  and  N_7
REMARK    4  A    between atoms: N_7  and  C_8
REMARK                            x       y       z     vdW  Elec       q    Type
REMARK                         _______ _______ _______ _____ _____    ______ ____
ROOT
ATOM      1  C   UNL     1       2.174   6.858  19.720  0.00  0.00    +0.000 A 
ATOM      2  C   UNL     1       2.745   6.806  18.448  0.00  0.00    +0.000 A 
ATOM      3  C   UNL     1       3.209   5.593  17.921  0.00  0.00    +0.000 A 
ATOM      4  C   UNL     1       3.145   4.409  18.645  0.00  0.00    +0.000 A 
ATOM      5  N   UNL     1       3.571   3.267  18.095  0.00  0.00    +0.000 NA
ATOM      6  C   UNL     1       3.481   2.159  18.833  0.00  0.00    +0.000 A 
ATOM      7  N   UNL     1       3.908   0.976  18.261  0.00  0.00    +0.000 N 
ATOM      8  N   UNL     1       3.049   2.101  20.090  0.00  0.00    +0.000 NA
ATOM      9  C   UNL     1       2.620   3.250  20.627  0.00  0.00    +0.000 A 
ATOM     10  N   UNL     1       2.176   3.160  21.955  0.00  0.00    +0.000 N 
ATOM     11  C   UNL     1       2.635   4.465  19.943  0.00  0.00    +0.000 A 
ATOM     12  C   UNL     1       2.174   5.692  20.478  0.00  0.00    +0.000 A 
ATOM     13  H   UNL     1       4.583   1.177  17.535  0.00  0.00    +0.000 HD
ATOM     14  H   UNL     1       4.183   0.330  18.986  0.00  0.00    +0.000 HD
ATOM     15  H   UNL     1       2.215   2.177  22.214  0.00  0.00    +0.000 HD
ATOM     16  H   UNL     1       1.239   3.533  22.056  0.00  0.00    +0.000 HD
ENDROOT
BRANCH   1  17
ATOM     17  N   UNL     1       1.704   8.090  20.191  0.00  0.00    +0.000 N 
ATOM     18  H   UNL     1       2.422   8.806  20.089  0.00  0.00    +0.000 HD
BRANCH  17  19
ATOM     19  C   UNL     1       1.127   8.122  21.534  0.00  0.00    +0.000 C 
BRANCH  19  24
ATOM     20  C   UNL     1      -2.228  12.846  22.113  0.00  0.00    +0.000 C 
ATOM     21  C   UNL     1      -1.355  11.637  21.961  0.00  0.00    +0.000 A 
ATOM     22  C   UNL     1      -0.813  11.297  20.718  0.00  0.00    +0.000 A 
ATOM     23  C   UNL     1       0.000  10.170  20.591  0.00  0.00    +0.000 A 
ATOM     24  C   UNL     1       0.290   9.364  21.702  0.00  0.00    +0.000 A 
ATOM     25  C   UNL     1      -0.263   9.701  22.943  0.00  0.00    +0.000 A 
ATOM     26  C   UNL     1      -1.079  10.829  23.070  0.00  0.00    +0.000 A 
ENDBRANCH  19  24
ENDBRANCH  17  19
ENDBRANCH   1  17
TORSDOF 3
ENDMDL
MODEL 6
REMARK VINA RESULT:      -7.7      5.898      7.148
REMARK  Name = 
REMARK  4 active torsions:
REMARK  status: ('A' for Active; 'I' for Inactive)
REMARK    1  A    between atoms: C_1  and  C_2
REMARK    2  A    between atoms: C_5  and  C_6
REMARK    3  A    between atoms: C_6  and  N_7
REMARK    4  A    between atoms: N_7  and  C_8
REMARK                            x       y       z     vdW  Elec       q    Type
REMARK                         _______ _______ _______ _____ _____    ______ ____
ROOT
ATOM      1  C   UNL     1       2.130   8.630  18.175  0.00  0.00    +0.000 A 
ATOM      2  C   UNL     1       1.747   7.986  19.351  0.00  0.00    +0.000 A 
ATOM      3  C   UNL     1       2.383   6.805  19.760  0.00  0.00    +0.000 A 
ATOM      4  C   UNL     1       3.393   6.220  19.007  0.00  0.00    +0.000 A 
ATOM      5  N   UNL     1       3.996   5.109  19.447  0.00  0.00    +0.000 NA
ATOM      6  C   UNL     1       4.962   4.593  18.686  0.00  0.00    +0.000 A 
ATOM      7  N   UNL     1       5.595   3.455  19.146  0.00  0.00    +0.000 N 
ATOM      8  N   UNL     1       5.345   5.061  17.501  0.00  0.00    +0.000 NA
ATOM      9  C   UNL     1       4.738   6.176  17.074  0.00  0.00    +0.000 A 
ATOM     10  N   UNL     1       5.159   6.642  15.819  0.00  0.00    +0.000 N 
ATOM     11  C   UNL     1       3.737   6.824  17.797  0.00  0.00    +0.000 A 
ATOM     12  C   UNL     1       3.089   8.011  17.380  0.00  0.00    +0.000 A 
ATOM     13  H   UNL     1       4.980   2.959  19.777  0.00  0.00    +0.000 HD
ATOM     14  H   UNL     1       5.973   2.940  18.366  0.00  0.00    +0.000 HD
ATOM     15  H   UNL     1       5.921   6.039  15.520  0.00  0.00    +0.000 HD
ATOM     16  H   UNL     1       5.450   7.612  15.866  0.00  0.00    +0.000 HD
ENDROOT
BRANCH   1  17
ATOM     17  N   UNL     1       1.480   9.819  17.822  0.00  0.00    +0.000 N 
ATOM     18  H   UNL     1       2.124  10.445  17.340  0.00  0.00    +0.000 HD
BRANCH  17  19
ATOM     19  C   UNL     1       0.756  10.529  18.875  0.00  0.00    +0.000 C 
BRANCH  19  24
ATOM     20  C   UNL     1      -4.826  11.168  17.340  0.00  0.00    +0.000 C 
ATOM     21  C   UNL     1      -3.392  10.999  17.746  0.00  0.00    +0.000 A 
ATOM     22  C   UNL     1      -2.840  11.784  18.762  0.00  0.00    +0.000 A 
ATOM     23  C   UNL     1      -1.504  11.615  19.132  0.00  0.00    +0.000 A 
ATOM     24  C   UNL     1      -0.698  10.659  18.497  0.00  0.00    +0.000 A 
ATOM     25  C   UNL     1      -1.252   9.883  17.472  0.00  0.00    +0.000 A 
ATOM     26  C   UNL     1      -2.589  10.052  17.101  0.00  0.00    +0.000 A 
ENDBRANCH  19  24
ENDBRANCH  17  19
ENDBRANCH   1  17
TORSDOF 3
ENDMDL
MODEL 7
REMARK VINA RESULT:      -7.7      5.601      7.323
REMARK  Name = 
REMARK  4 active torsions:
REMARK  status: ('A' for Active; 'I' for Inactive)
REMARK    1  A    between atoms: C_1  and  C_2
REMARK    2  A    between atoms: C_5  and  C_6
REMARK    3  A    between atoms: C_6  and  N_7
REMARK    4  A    between atoms: N_7  and  C_8
REMARK                            x       y       z     vdW  Elec       q    Type
REMARK                         _______ _______ _______ _____ _____    ______ ____
ROOT
ATOM      1  C   UNL     1       2.169   6.864  19.747  0.00  0.00    +0.000 A 
ATOM      2  C   UNL     1       2.729   6.814  18.471  0.00  0.00    +0.000 A 
ATOM      3  C   UNL     1       3.188   5.600  17.938  0.00  0.00    +0.000 A 
ATOM      4  C   UNL     1       3.127   4.416  18.659  0.00  0.00    +0.000 A 
ATOM      5  N   UNL     1       3.547   3.273  18.104  0.00  0.00    +0.000 NA
ATOM      6  C   UNL     1       3.460   2.164  18.840  0.00  0.00    +0.000 A 
ATOM      7  N   UNL     1       3.880   0.982  18.262  0.00  0.00    +0.000 N 
ATOM      8  N   UNL     1       3.037   2.105  20.100  0.00  0.00    +0.000 NA
ATOM      9  C   UNL     1       2.614   3.253  20.643  0.00  0.00    +0.000 A 
ATOM     10  N   UNL     1       2.180   3.161  21.974  0.00  0.00    +0.000 N 
ATOM     11  C   UNL     1       2.626   4.470  19.961  0.00  0.00    +0.000 A 
ATOM     12  C   UNL     1       2.172   5.696  20.502  0.00  0.00    +0.000 A 
ATOM     13  H   UNL     1       4.550   1.183  17.532  0.00  0.00    +0.000 HD
ATOM     14  H   UNL     1       4.159   0.334  18.983  0.00  0.00    +0.000 HD
ATOM     15  H   UNL     1       2.219   2.178  22.230  0.00  0.00    +0.000 HD
ATOM     16  H   UNL     1       1.244   3.536  22.083  0.00  0.00    +0.000 HD
ENDROOT
BRANCH   1  17
ATOM     17  N   UNL     1       1.704   8.095  20.225  0.00  0.00    +0.000 N 
ATOM     18  H   UNL     1       2.440   8.798  20.168  0.00  0.00    +0.000 HD
BRANCH  17  19
ATOM     19  C   UNL     1       1.071   8.112  21.542  0.00  0.00    +0.000 C 
BRANCH  19  24
ATOM     20  C   UNL     1      -2.210  12.890  22.111  0.00  0.00    +0.000 C 
ATOM     21  C   UNL     1      -1.375  11.653  21.967  0.00  0.00    +0.000 A 
ATOM     22  C   UNL     1      -1.089  10.850  23.075  0.00  0.00    +0.000 A 
ATOM     23  C   UNL     1      -0.312   9.700  22.928  0.00  0.00    +0.000 A 
ATOM     24  C   UNL     1       0.191   9.329  21.672  0.00  0.00    +0.000 A 
ATOM     25  C   UNL     1      -0.088  10.141  20.566  0.00  0.00    +0.000 A 
ATOM     26  C   UNL     1      -0.865  11.293  20.714  0.00  0.00    +0.000 A 
ENDBRANCH  19  24
ENDBRANCH  17  19
ENDBRANCH   1  17
TORSDOF 3
ENDMDL
MODEL 8
REMARK VINA RESULT:      -7.7      5.888      7.135
REMARK  Name = 
REMARK  4 active torsions:
REMARK  status: ('A' for Active; 'I' for Inactive)
REMARK    1  A    between atoms: C_1  and  C_2
REMARK    2  A    between atoms: C_5  and  C_6
REMARK    3  A    between atoms: C_6  and  N_7
REMARK    4  A    between atoms: N_7  and  C_8
REMARK                            x       y       z     vdW  Elec       q    Type
REMARK                         _______ _______ _______ _____ _____    ______ ____
ROOT
ATOM      1  C   UNL     1       2.150   8.645  18.182  0.00  0.00    +0.000 A 
ATOM      2  C   UNL     1       1.768   7.992  19.353  0.00  0.00    +0.000 A 
ATOM      3  C   UNL     1       2.399   6.804  19.749  0.00  0.00    +0.000 A 
ATOM      4  C   UNL     1       3.402   6.220  18.987  0.00  0.00    +0.000 A 
ATOM      5  N   UNL     1       4.000   5.102  19.414  0.00  0.00    +0.000 NA
ATOM      6  C   UNL     1       4.961   4.588  18.645  0.00  0.00    +0.000 A 
ATOM      7  N   UNL     1       5.589   3.442  19.092  0.00  0.00    +0.000 N 
ATOM      8  N   UNL     1       5.343   5.065  17.463  0.00  0.00    +0.000 NA
ATOM      9  C   UNL     1       4.741   6.187  17.049  0.00  0.00    +0.000 A 
ATOM     10  N   UNL     1       5.159   6.663  15.797  0.00  0.00    +0.000 N 
ATOM     11  C   UNL     1       3.745   6.834  17.781  0.00  0.00    +0.000 A 
ATOM     12  C   UNL     1       3.102   8.028  17.378  0.00  0.00    +0.000 A 
ATOM     13  H   UNL     1       4.973   2.943  19.721  0.00  0.00    +0.000 HD
ATOM     14  H   UNL     1       5.962   2.932  18.305  0.00  0.00    +0.000 HD
ATOM     15  H   UNL     1       5.917   6.058  15.489  0.00  0.00    +0.000 HD
ATOM     16  H   UNL     1       5.456   7.631  15.851  0.00  0.00    +0.000 HD
ENDROOT
BRANCH   1  17
ATOM     17  N   UNL     1       1.506   9.841  17.843  0.00  0.00    +0.000 N 
ATOM     18  H   UNL     1       2.153  10.471  17.371  0.00  0.00    +0.000 HD
BRANCH  17  19
ATOM     19  C   UNL     1       0.781  10.540  18.902  0.00  0.00    +0.000 C 
BRANCH  19  24
ATOM     20  C   UNL     1      -4.824  11.121  17.428  0.00  0.00    +0.000 C 
ATOM     21  C   UNL     1      -3.378  10.975  17.797  0.00  0.00    +0.000 A 
ATOM     22  C   UNL     1      -2.573  10.019  17.170  0.00  0.00    +0.000 A 
ATOM     23  C   UNL     1      -1.227   9.895  17.521  0.00  0.00    +0.000 A 
ATOM     24  C   UNL     1      -0.661  10.724  18.500  0.00  0.00    +0.000 A 
ATOM     25  C   UNL     1      -1.473  11.673  19.133  0.00  0.00    +0.000 A 
ATOM     26  C   UNL     1      -2.820  11.796  18.783  0.00  0.00    +0.000 A 
ENDBRANCH  19  24
ENDBRANCH  17  19
ENDBRANCH   1  17
TORSDOF 3
ENDMDL
MODEL 9
REMARK VINA RESULT:      -7.7      3.833      5.216
REMARK  Name = 
REMARK  4 active torsions:
REMARK  status: ('A' for Active; 'I' for Inactive)
REMARK    1  A    between atoms: C_1  and  C_2
REMARK    2  A    between atoms: C_5  and  C_6
REMARK    3  A    between atoms: C_6  and  N_7
REMARK    4  A    between atoms: N_7  and  C_8
REMARK                            x       y       z     vdW  Elec       q    Type
REMARK                         _______ _______ _______ _____ _____    ______ ____
ROOT
ATOM      1  C   UNL     1       4.128   5.335  18.766  0.00  0.00    +0.000 A 
ATOM      2  C   UNL     1       3.382   4.362  18.103  0.00  0.00    +0.000 A 
ATOM      3  C   UNL     1       3.805   3.854  16.866  0.00  0.00    +0.000 A 
ATOM      4  C   UNL     1       4.958   4.312  16.244  0.00  0.00    +0.000 A 
ATOM      5  N   UNL     1       5.344   3.781  15.078  0.00  0.00    +0.000 NA
ATOM      6  C   UNL     1       6.463   4.255  14.528  0.00  0.00    +0.000 A 
ATOM      7  N   UNL     1       6.870   3.697  13.331  0.00  0.00    +0.000 N 
ATOM      8  N   UNL     1       7.203   5.248  15.015  0.00  0.00    +0.000 NA
ATOM      9  C   UNL     1       6.810   5.767  16.184  0.00  0.00    +0.000 A 
ATOM     10  N   UNL     1       7.605   6.816  16.670  0.00  0.00    +0.000 N 
ATOM     11  C   UNL     1       5.676   5.332  16.870  0.00  0.00    +0.000 A 
ATOM     12  C   UNL     1       5.244   5.851  18.114  0.00  0.00    +0.000 A 
ATOM     13  H   UNL     1       6.071   3.303  12.854  0.00  0.00    +0.000 HD
ATOM     14  H   UNL     1       7.434   4.362  12.823  0.00  0.00    +0.000 HD
ATOM     15  H   UNL     1       8.388   6.915  16.029  0.00  0.00    +0.000 HD
ATOM     16  H   UNL     1       7.921   6.631  17.616  0.00  0.00    +0.000 HD
ENDROOT
BRANCH   1  17
ATOM     17  N   UNL     1       3.676   5.793  20.009  0.00  0.00    +0.000 N 
ATOM     18  H   UNL     1       4.058   5.218  20.759  0.00  0.00    +0.000 HD
BRANCH  17  19
ATOM     19  C   UNL     1       2.236   5.975  20.177  0.00  0.00    +0.000 C 
BRANCH  19  24
ATOM     20  C   UNL     1       0.873  11.467  18.797  0.00  0.00    +0.000 C 
ATOM     21  C   UNL     1       1.212  10.051  19.153  0.00  0.00    +0.000 A 
ATOM     22  C   UNL     1       0.967   9.559  20.438  0.00  0.00    +0.000 A 
ATOM     23  C   UNL     1       1.285   8.237  20.757  0.00  0.00    +0.000 A 
ATOM     24  C   UNL     1       1.850   7.383  19.798  0.00  0.00    +0.000 A 
ATOM     25  C   UNL     1       2.105   7.883  18.516  0.00  0.00    +0.000 A 
ATOM     26  C   UNL     1       1.787   9.206  18.197  0.00  0.00    +0.000 A 
ENDBRANCH  19  24
ENDBRANCH  17  19
ENDBRANCH   1  17
TORSDOF 3
ENDMDL
