MODEL 1
REMARK VINA RESULT:      -8.2      0.000      0.000
REMARK  Name = 
REMARK  7 active torsions:
REMARK  status: ('A' for Active; 'I' for Inactive)
REMARK    1  A    between atoms: C_1  and  C_2
REMARK    2  A    between atoms: C_5  and  N_6
REMARK    3  A    between atoms: C_7  and  S_8
REMARK    4  A    between atoms: S_8  and  C_9
REMARK    5  A    between atoms: C_9  and  C_10
REMARK    6  A    between atoms: C_15  and  C_16
REMARK    7  A    between atoms: C_23  and  C_24
REMARK                            x       y       z     vdW  Elec       q    Type
REMARK                         _______ _______ _______ _____ _____    ______ ____
ROOT
ATOM      1  N   UNL     1       3.427   5.007  18.357  0.00  0.00    +0.000 N 
ATOM      2  C   UNL     1       2.752   3.793  18.339  0.00  0.00    +0.000 A 
ATOM      3  N   UNL     1       3.554   2.828  17.951  0.00  0.00    +0.000 NA
ATOM      4  N   UNL     1       4.792   3.361  17.760  0.00  0.00    +0.000 NA
ATOM      5  C   UNL     1       4.754   4.650  18.066  0.00  0.00    +0.000 A 
ENDROOT
BRANCH   1  10
ATOM      6  C   UNL     1       1.033  10.164  19.176  0.00  0.00    +0.000 C 
ATOM      7  C   UNL     1       1.696   8.828  18.993  0.00  0.00    +0.000 A 
ATOM      8  C   UNL     1       2.201   8.475  17.731  0.00  0.00    +0.000 A 
ATOM      9  C   UNL     1       2.787   7.225  17.513  0.00  0.00    +0.000 A 
ATOM     10  C   UNL     1       2.902   6.315  18.565  0.00  0.00    +0.000 A 
ATOM     11  C   UNL     1       2.441   6.684  19.840  0.00  0.00    +0.000 A 
ATOM     12  C   UNL     1       1.802   7.915  20.056  0.00  0.00    +0.000 A 
ATOM     13  C   UNL     1       1.211   8.205  21.409  0.00  0.00    +0.000 C 
ENDBRANCH   1  10
BRANCH   5  14
ATOM     14  C   UNL     1       5.946   5.504  18.134  0.00  0.00    +0.000 A 
ATOM     15  C   UNL     1       6.154   6.529  17.218  0.00  0.00    +0.000 A 
ATOM     16  C   UNL     1       7.265   7.357  17.375  0.00  0.00    +0.000 A 
ATOM     17  C   UNL     1       8.134   7.138  18.437  0.00  0.00    +0.000 A 
ATOM     18  C   UNL     1       7.874   6.074  19.280  0.00  0.00    +0.000 A 
ATOM     19  N   UNL     1       6.819   5.245  19.135  0.00  0.00    +0.000 NA
ENDBRANCH   5  14
BRANCH   2  20
ATOM     20  S   UNL     1       1.075   3.470  18.635  0.00  0.00    +0.000 S 
BRANCH  20  21
ATOM     21  C   UNL     1       0.867   3.712  20.412  0.00  0.00    +0.000 C 
BRANCH  21  22
ATOM     22  C   UNL     1       1.696   2.850  21.347  0.00  0.00    +0.000 C 
ATOM     23  N   UNL     1       3.018   2.657  21.099  0.00  0.00    +0.000 N 
ATOM     24  O   UNL     1       1.195   2.342  22.348  0.00  0.00    +0.000 OA
ATOM     25  H   UNL     1       3.468   2.931  20.232  0.00  0.00    +0.000 HD
ATOM     26  H   UNL     1       3.522   2.028  21.709  0.00  0.00    +0.000 HD
ENDBRANCH  21  22
ENDBRANCH  20  21
ENDBRANCH   2  20
TORSDOF 5
ENDMDL
MODEL 2
REMARK VINA RESULT:      -8.2      1.568      1.813
REMARK  Name = 
REMARK  7 active torsions:
REMARK  status: ('A' for Active; 'I' for Inactive)
REMARK    1  A    between atoms: C_1  and  C_2
REMARK    2  A    between atoms: C_5  and  N_6
REMARK    3  A    between atoms: C_7  and  S_8
REMARK    4  A    between atoms: S_8  and  C_9
REMARK    5  A    between atoms: C_9  and  C_10
REMARK    6  A    between atoms: C_15  and  C_16
REMARK    7  A    between atoms: C_23  and  C_24
REMARK                            x       y       z     vdW  Elec       q    Type
REMARK                         _______ _______ _______ _____ _____    ______ ____
ROOT
ATOM      1  N   UNL     1       3.670   4.842  19.712  0.00  0.00    +0.000 N 
ATOM      2  C   UNL     1       3.137   3.698  20.290  0.00  0.00    +0.000 A 
ATOM      3  N   UNL     1       3.984   2.698  20.199  0.00  0.00    +0.000 NA
ATOM      4  N   UNL     1       5.122   3.164  19.615  0.00  0.00    +0.000 NA
ATOM      5  C   UNL     1       4.981   4.461  19.379  0.00  0.00    +0.000 A 
ENDROOT
BRANCH   1  10
ATOM      6  C   UNL     1       0.845   9.738  18.689  0.00  0.00    +0.000 C 
ATOM      7  C   UNL     1       1.617   8.482  18.986  0.00  0.00    +0.000 A 
ATOM      8  C   UNL     1       2.275   7.814  17.940  0.00  0.00    +0.000 A 
ATOM      9  C   UNL     1       2.968   6.622  18.170  0.00  0.00    +0.000 A 
ATOM     10  C   UNL     1       3.035   6.092  19.459  0.00  0.00    +0.000 A 
ATOM     11  C   UNL     1       2.418   6.783  20.515  0.00  0.00    +0.000 A 
ATOM     12  C   UNL     1       1.675   7.952  20.285  0.00  0.00    +0.000 A 
ATOM     13  C   UNL     1       0.926   8.579  21.430  0.00  0.00    +0.000 C 
ENDBRANCH   1  10
BRANCH   5  14
ATOM     14  C   UNL     1       6.071   5.324  18.907  0.00  0.00    +0.000 A 
ATOM     15  C   UNL     1       6.011   5.952  17.668  0.00  0.00    +0.000 A 
ATOM     16  C   UNL     1       7.040   6.819  17.304  0.00  0.00    +0.000 A 
ATOM     17  C   UNL     1       8.096   7.034  18.181  0.00  0.00    +0.000 A 
ATOM     18  C   UNL     1       8.097   6.341  19.377  0.00  0.00    +0.000 A 
ATOM     19  N   UNL     1       7.125   5.478  19.743  0.00  0.00    +0.000 NA
ENDBRANCH   5  14
BRANCH   2  20
ATOM     20  S   UNL     1       1.556   3.444  20.955  0.00  0.00    +0.000 S 
BRANCH  20  21
ATOM     21  C   UNL     1       0.540   2.949  19.549  0.00  0.00    +0.000 C 
BRANCH  21  22
ATOM     22  C   UNL     1       1.206   2.867  18.186  0.00  0.00    +0.000 C 
ATOM     23  N   UNL     1       1.965   1.788  17.866  0.00  0.00    +0.000 N 
ATOM     24  O   UNL     1       1.047   3.755  17.351  0.00  0.00    +0.000 OA
ATOM     25  H   UNL     1       2.249   1.085  18.541  0.00  0.00    +0.000 HD
ATOM     26  H   UNL     1       2.442   1.798  16.974  0.00  0.00    +0.000 HD
ENDBRANCH  21  22
ENDBRANCH  20  21
ENDBRANCH   2  20
TORSDOF 5
ENDMDL
MODEL 3
REMARK VINA RESULT:      -8.0      0.626      1.001
REMARK  Name = 
REMARK  7 active torsions:
REMARK  status: ('A' for Active; 'I' for Inactive)
REMARK    1  A    between atoms: C_1  and  C_2
REMARK    2  A    between atoms: C_5  and  N_6
REMARK    3  A    between atoms: C_7  and  S_8
REMARK    4  A    between atoms: S_8  and  C_9
REMARK    5  A    between atoms: C_9  and  C_10
REMARK    6  A    between atoms: C_15  and  C_16
REMARK    7  A    between atoms: C_23  and  C_24
REMARK                            x       y       z     vdW  Elec       q    Type
REMARK                         _______ _______ _______ _____ _____    ______ ____
ROOT
ATOM      1  N   UNL     1       3.406   5.192  18.341  0.00  0.00    +0.000 N 
ATOM      2  C   UNL     1       2.778   3.954  18.290  0.00  0.00    +0.000 A 
ATOM      3  N   UNL     1       3.615   3.030  17.876  0.00  0.00    +0.000 NA
ATOM      4  N   UNL     1       4.833   3.614  17.701  0.00  0.00    +0.000 NA
ATOM      5  C   UNL     1       4.746   4.892  18.041  0.00  0.00    +0.000 A 
ENDROOT
BRANCH   1  10
ATOM      6  C   UNL     1       0.823  10.229  19.317  0.00  0.00    +0.000 C 
ATOM      7  C   UNL     1       1.537   8.925  19.091  0.00  0.00    +0.000 A 
ATOM      8  C   UNL     1       1.989   8.601  17.802  0.00  0.00    +0.000 A 
ATOM      9  C   UNL     1       2.620   7.380  17.545  0.00  0.00    +0.000 A 
ATOM     10  C   UNL     1       2.833   6.473  18.585  0.00  0.00    +0.000 A 
ATOM     11  C   UNL     1       2.425   6.815  19.884  0.00  0.00    +0.000 A 
ATOM     12  C   UNL     1       1.742   8.015  20.142  0.00  0.00    +0.000 A 
ATOM     13  C   UNL     1       1.211   8.272  21.526  0.00  0.00    +0.000 C 
ENDBRANCH   1  10
BRANCH   5  14
ATOM     14  C   UNL     1       5.906   5.789  18.133  0.00  0.00    +0.000 A 
ATOM     15  C   UNL     1       6.905   5.583  19.076  0.00  0.00    +0.000 A 
ATOM     16  C   UNL     1       8.020   6.421  19.069  0.00  0.00    +0.000 A 
ATOM     17  C   UNL     1       8.104   7.436  18.124  0.00  0.00    +0.000 A 
ATOM     18  C   UNL     1       7.049   7.595  17.245  0.00  0.00    +0.000 A 
ATOM     19  N   UNL     1       5.949   6.812  17.248  0.00  0.00    +0.000 NA
ENDBRANCH   5  14
BRANCH   2  20
ATOM     20  S   UNL     1       1.114   3.561  18.576  0.00  0.00    +0.000 S 
BRANCH  20  21
ATOM     21  C   UNL     1       0.898   3.748  20.358  0.00  0.00    +0.000 C 
BRANCH  21  22
ATOM     22  C   UNL     1       1.745   2.879  21.272  0.00  0.00    +0.000 C 
ATOM     23  N   UNL     1       3.049   2.648  20.969  0.00  0.00    +0.000 N 
ATOM     24  O   UNL     1       1.276   2.400  22.302  0.00  0.00    +0.000 OA
ATOM     25  H   UNL     1       3.468   2.896  20.079  0.00  0.00    +0.000 HD
ATOM     26  H   UNL     1       3.564   2.015  21.567  0.00  0.00    +0.000 HD
ENDBRANCH  21  22
ENDBRANCH  20  21
ENDBRANCH   2  20
TORSDOF 5
ENDMDL
MODEL 4
REMARK VINA RESULT:      -7.8      0.966      1.772
REMARK  Name = 
REMARK  7 active torsions:
REMARK  status: ('A' for Active; 'I' for Inactive)
REMARK    1  A    between atoms: C_1  and  C_2
REMARK    2  A    between atoms: C_5  and  N_6
REMARK    3  A    between atoms: C_7  and  S_8
REMARK    4  A    between atoms: S_8  and  C_9
REMARK    5  A    between atoms: C_9  and  C_10
REMARK    6  A    between atoms: C_15  and  C_16
REMARK    7  A    between atoms: C_23  and  C_24
REMARK                            x       y       z     vdW  Elec       q    Type
REMARK                         _______ _______ _______ _____ _____    ______ ____
ROOT
ATOM      1  N   UNL     1       3.232   4.829  18.400  0.00  0.00    +0.000 N 
ATOM      2  C   UNL     1       2.659   3.578  18.216  0.00  0.00    +0.000 A 
ATOM      3  N   UNL     1       3.477   2.789  17.556  0.00  0.00    +0.000 NA
ATOM      4  N   UNL     1       4.635   3.472  17.340  0.00  0.00    +0.000 NA
ATOM      5  C   UNL     1       4.535   4.670  17.898  0.00  0.00    +0.000 A 
ENDROOT
BRANCH   1  10
ATOM      6  C   UNL     1       1.111   9.723  20.532  0.00  0.00    +0.000 C 
ATOM      7  C   UNL     1       1.626   8.439  19.943  0.00  0.00    +0.000 A 
ATOM      8  C   UNL     1       1.747   7.305  20.763  0.00  0.00    +0.000 A 
ATOM      9  C   UNL     1       2.261   6.105  20.262  0.00  0.00    +0.000 A 
ATOM     10  C   UNL     1       2.637   6.014  18.921  0.00  0.00    +0.000 A 
ATOM     11  C   UNL     1       2.472   7.132  18.088  0.00  0.00    +0.000 A 
ATOM     12  C   UNL     1       2.008   8.357  18.594  0.00  0.00    +0.000 A 
ATOM     13  C   UNL     1       1.974   9.557  17.687  0.00  0.00    +0.000 C 
ENDBRANCH   1  10
BRANCH   5  14
ATOM     14  C   UNL     1       5.656   5.613  18.003  0.00  0.00    +0.000 A 
ATOM     15  C   UNL     1       6.676   5.423  18.927  0.00  0.00    +0.000 A 
ATOM     16  C   UNL     1       7.753   6.309  18.931  0.00  0.00    +0.000 A 
ATOM     17  C   UNL     1       7.780   7.356  18.017  0.00  0.00    +0.000 A 
ATOM     18  C   UNL     1       6.706   7.495  17.157  0.00  0.00    +0.000 A 
ATOM     19  N   UNL     1       5.641   6.664  17.150  0.00  0.00    +0.000 NA
ENDBRANCH   5  14
BRANCH   2  20
ATOM     20  S   UNL     1       1.063   3.035  18.625  0.00  0.00    +0.000 S 
BRANCH  20  21
ATOM     21  C   UNL     1       1.262   2.170  20.196  0.00  0.00    +0.000 C 
BRANCH  21  22
ATOM     22  C   UNL     1       2.381   2.621  21.119  0.00  0.00    +0.000 C 
ATOM     23  N   UNL     1       3.672   2.336  20.808  0.00  0.00    +0.000 N 
ATOM     24  O   UNL     1       2.139   3.267  22.136  0.00  0.00    +0.000 OA
ATOM     25  H   UNL     1       3.939   1.701  20.064  0.00  0.00    +0.000 HD
ATOM     26  H   UNL     1       4.384   2.599  21.477  0.00  0.00    +0.000 HD
ENDBRANCH  21  22
ENDBRANCH  20  21
ENDBRANCH   2  20
TORSDOF 5
ENDMDL
MODEL 5
REMARK VINA RESULT:      -7.8      1.627      2.003
REMARK  Name = 
REMARK  7 active torsions:
REMARK  status: ('A' for Active; 'I' for Inactive)
REMARK    1  A    between atoms: C_1  and  C_2
REMARK    2  A    between atoms: C_5  and  N_6
REMARK    3  A    between atoms: C_7  and  S_8
REMARK    4  A    between atoms: S_8  and  C_9
REMARK    5  A    between atoms: C_9  and  C_10
REMARK    6  A    between atoms: C_15  and  C_16
REMARK    7  A    between atoms: C_23  and  C_24
REMARK                            x       y       z     vdW  Elec       q    Type
REMARK                         _______ _______ _______ _____ _____    ______ ____
ROOT
ATOM      1  N   UNL     1       3.618   4.998  19.689  0.00  0.00    +0.000 N 
ATOM      2  C   UNL     1       3.161   3.833  20.290  0.00  0.00    +0.000 A 
ATOM      3  N   UNL     1       4.030   2.860  20.127  0.00  0.00    +0.000 NA
ATOM      4  N   UNL     1       5.109   3.367  19.470  0.00  0.00    +0.000 NA
ATOM      5  C   UNL     1       4.913   4.661  19.261  0.00  0.00    +0.000 A 
ENDROOT
BRANCH   1  10
ATOM      6  C   UNL     1       0.582   9.815  18.933  0.00  0.00    +0.000 C 
ATOM      7  C   UNL     1       1.410   8.581  19.157  0.00  0.00    +0.000 A 
ATOM      8  C   UNL     1       1.989   7.931  18.055  0.00  0.00    +0.000 A 
ATOM      9  C   UNL     1       2.732   6.758  18.220  0.00  0.00    +0.000 A 
ATOM     10  C   UNL     1       2.929   6.230  19.496  0.00  0.00    +0.000 A 
ATOM     11  C   UNL     1       2.391   6.905  20.605  0.00  0.00    +0.000 A 
ATOM     12  C   UNL     1       1.599   8.054  20.445  0.00  0.00    +0.000 A 
ATOM     13  C   UNL     1       0.940   8.661  21.653  0.00  0.00    +0.000 C 
ENDBRANCH   1  10
BRANCH   5  14
ATOM     14  C   UNL     1       5.940   5.561  18.723  0.00  0.00    +0.000 A 
ATOM     15  C   UNL     1       7.141   5.769  19.392  0.00  0.00    +0.000 A 
ATOM     16  C   UNL     1       8.111   6.576  18.797  0.00  0.00    +0.000 A 
ATOM     17  C   UNL     1       7.855   7.151  17.558  0.00  0.00    +0.000 A 
ATOM     18  C   UNL     1       6.621   6.923  16.979  0.00  0.00    +0.000 A 
ATOM     19  N   UNL     1       5.657   6.166  17.545  0.00  0.00    +0.000 NA
ENDBRANCH   5  14
BRANCH   2  20
ATOM     20  S   UNL     1       1.640   3.524  21.062  0.00  0.00    +0.000 S 
BRANCH  20  21
ATOM     21  C   UNL     1       0.525   3.071  19.717  0.00  0.00    +0.000 C 
BRANCH  21  22
ATOM     22  C   UNL     1       1.127   2.856  18.339  0.00  0.00    +0.000 C 
ATOM     23  N   UNL     1       1.755   1.686  18.049  0.00  0.00    +0.000 N 
ATOM     24  O   UNL     1       1.033   3.716  17.466  0.00  0.00    +0.000 OA
ATOM     25  H   UNL     1       1.986   0.989  18.748  0.00  0.00    +0.000 HD
ATOM     26  H   UNL     1       2.197   1.604  17.142  0.00  0.00    +0.000 HD
ENDBRANCH  21  22
ENDBRANCH  20  21
ENDBRANCH   2  20
TORSDOF 5
ENDMDL
MODEL 6
REMARK VINA RESULT:      -7.8      1.318      2.064
REMARK  Name = 
REMARK  7 active torsions:
REMARK  status: ('A' for Active; 'I' for Inactive)
REMARK    1  A    between atoms: C_1  and  C_2
REMARK    2  A    between atoms: C_5  and  N_6
REMARK    3  A    between atoms: C_7  and  S_8
REMARK    4  A    between atoms: S_8  and  C_9
REMARK    5  A    between atoms: C_9  and  C_10
REMARK    6  A    between atoms: C_15  and  C_16
REMARK    7  A    between atoms: C_23  and  C_24
REMARK                            x       y       z     vdW  Elec       q    Type
REMARK                         _______ _______ _______ _____ _____    ______ ____
ROOT
ATOM      1  N   UNL     1       4.075   4.866  17.840  0.00  0.00    +0.000 N 
ATOM      2  C   UNL     1       3.705   3.603  17.400  0.00  0.00    +0.000 A 
ATOM      3  N   UNL     1       4.651   3.082  16.652  0.00  0.00    +0.000 NA
ATOM      4  N   UNL     1       5.696   3.954  16.626  0.00  0.00    +0.000 NA
ATOM      5  C   UNL     1       5.399   4.997  17.388  0.00  0.00    +0.000 A 
ENDROOT
BRANCH   1  10
ATOM      6  C   UNL     1       1.171   8.920  20.692  0.00  0.00    +0.000 C 
ATOM      7  C   UNL     1       1.891   7.853  19.916  0.00  0.00    +0.000 A 
ATOM      8  C   UNL     1       2.258   6.660  20.561  0.00  0.00    +0.000 A 
ATOM      9  C   UNL     1       2.964   5.662  19.883  0.00  0.00    +0.000 A 
ATOM     10  C   UNL     1       3.293   5.832  18.537  0.00  0.00    +0.000 A 
ATOM     11  C   UNL     1       2.885   7.003  17.877  0.00  0.00    +0.000 A 
ATOM     12  C   UNL     1       2.223   8.034  18.563  0.00  0.00    +0.000 A 
ATOM     13  C   UNL     1       1.927   9.320  17.841  0.00  0.00    +0.000 C 
ENDBRANCH   1  10
BRANCH   5  14
ATOM     14  C   UNL     1       6.359   6.057  17.723  0.00  0.00    +0.000 A 
ATOM     15  C   UNL     1       7.302   5.886  18.730  0.00  0.00    +0.000 A 
ATOM     16  C   UNL     1       8.236   6.897  18.954  0.00  0.00    +0.000 A 
ATOM     17  C   UNL     1       8.202   8.045  18.171  0.00  0.00    +0.000 A 
ATOM     18  C   UNL     1       7.207   8.151  17.217  0.00  0.00    +0.000 A 
ATOM     19  N   UNL     1       6.277   7.197  16.997  0.00  0.00    +0.000 NA
ENDBRANCH   5  14
BRANCH   2  20
ATOM     20  S   UNL     1       2.202   2.766  17.617  0.00  0.00    +0.000 S 
BRANCH  20  21
ATOM     21  C   UNL     1       2.356   1.956  19.222  0.00  0.00    +0.000 C 
BRANCH  21  22
ATOM     22  C   UNL     1       1.568   2.532  20.386  0.00  0.00    +0.000 C 
ATOM     23  N   UNL     1       0.392   3.172  20.158  0.00  0.00    +0.000 N 
ATOM     24  O   UNL     1       1.965   2.404  21.542  0.00  0.00    +0.000 OA
ATOM     25  H   UNL     1       0.068   3.431  19.232  0.00  0.00    +0.000 HD
ATOM     26  H   UNL     1      -0.072   3.596  20.951  0.00  0.00    +0.000 HD
ENDBRANCH  21  22
ENDBRANCH  20  21
ENDBRANCH   2  20
TORSDOF 5
ENDMDL
MODEL 7
REMARK VINA RESULT:      -7.6      2.566      5.581
REMARK  Name = 
REMARK  7 active torsions:
REMARK  status: ('A' for Active; 'I' for Inactive)
REMARK    1  A    between atoms: C_1  and  C_2
REMARK    2  A    between atoms: C_5  and  N_6
REMARK    3  A    between atoms: C_7  and  S_8
REMARK    4  A    between atoms: S_8  and  C_9
REMARK    5  A    between atoms: C_9  and  C_10
REMARK    6  A    between atoms: C_15  and  C_16
REMARK    7  A    between atoms: C_23  and  C_24
REMARK                            x       y       z     vdW  Elec       q    Type
REMARK                         _______ _______ _______ _____ _____    ______ ____
ROOT
ATOM      1  N   UNL     1       3.985   5.855  17.711  0.00  0.00    +0.000 N 
ATOM      2  C   UNL     1       5.053   5.619  16.856  0.00  0.00    +0.000 A 
ATOM      3  N   UNL     1       5.203   6.622  16.020  0.00  0.00    +0.000 NA
ATOM      4  N   UNL     1       4.282   7.574  16.336  0.00  0.00    +0.000 NA
ATOM      5  C   UNL     1       3.590   7.164  17.390  0.00  0.00    +0.000 A 
ENDROOT
BRANCH   1  10
ATOM      6  C   UNL     1       1.345   2.482  21.539  0.00  0.00    +0.000 C 
ATOM      7  C   UNL     1       2.053   3.323  20.513  0.00  0.00    +0.000 A 
ATOM      8  C   UNL     1       3.109   4.157  20.916  0.00  0.00    +0.000 A 
ATOM      9  C   UNL     1       3.764   4.984  19.999  0.00  0.00    +0.000 A 
ATOM     10  C   UNL     1       3.388   4.970  18.655  0.00  0.00    +0.000 A 
ATOM     11  C   UNL     1       2.364   4.102  18.241  0.00  0.00    +0.000 A 
ATOM     12  C   UNL     1       1.664   3.308  19.164  0.00  0.00    +0.000 A 
ATOM     13  C   UNL     1       0.491   2.495  18.687  0.00  0.00    +0.000 C 
ENDBRANCH   1  10
BRANCH   5  14
ATOM     14  C   UNL     1       2.623   8.008  18.105  0.00  0.00    +0.000 A 
ATOM     15  C   UNL     1       2.227   7.712  19.404  0.00  0.00    +0.000 A 
ATOM     16  C   UNL     1       1.365   8.589  20.060  0.00  0.00    +0.000 A 
ATOM     17  C   UNL     1       0.923   9.731  19.404  0.00  0.00    +0.000 A 
ATOM     18  C   UNL     1       1.335   9.931  18.100  0.00  0.00    +0.000 A 
ATOM     19  N   UNL     1       2.150   9.085  17.435  0.00  0.00    +0.000 NA
ENDBRANCH   5  14
BRANCH   2  20
ATOM     20  S   UNL     1       6.047   4.206  16.711  0.00  0.00    +0.000 S 
BRANCH  20  21
ATOM     21  C   UNL     1       7.557   4.611  17.613  0.00  0.00    +0.000 C 
BRANCH  21  22
ATOM     22  C   UNL     1       7.488   5.718  18.650  0.00  0.00    +0.000 C 
ATOM     23  N   UNL     1       7.743   7.003  18.290  0.00  0.00    +0.000 N 
ATOM     24  O   UNL     1       7.176   5.475  19.814  0.00  0.00    +0.000 OA
ATOM     25  H   UNL     1       8.132   7.262  17.389  0.00  0.00    +0.000 HD
ATOM     26  H   UNL     1       7.748   7.703  19.020  0.00  0.00    +0.000 HD
ENDBRANCH  21  22
ENDBRANCH  20  21
ENDBRANCH   2  20
TORSDOF 5
ENDMDL
MODEL 8
REMARK VINA RESULT:      -7.6      1.105      1.745
REMARK  Name = 
REMARK  7 active torsions:
REMARK  status: ('A' for Active; 'I' for Inactive)
REMARK    1  A    between atoms: C_1  and  C_2
REMARK    2  A    between atoms: C_5  and  N_6
REMARK    3  A    between atoms: C_7  and  S_8
REMARK    4  A    between atoms: S_8  and  C_9
REMARK    5  A    between atoms: C_9  and  C_10
REMARK    6  A    between atoms: C_15  and  C_16
REMARK    7  A    between atoms: C_23  and  C_24
REMARK                            x       y       z     vdW  Elec       q    Type
REMARK                         _______ _______ _______ _____ _____    ______ ____
ROOT
ATOM      1  N   UNL     1       3.962   4.705  17.929  0.00  0.00    +0.000 N 
ATOM      2  C   UNL     1       3.539   3.434  17.562  0.00  0.00    +0.000 A 
ATOM      3  N   UNL     1       4.449   2.843  16.821  0.00  0.00    +0.000 NA
ATOM      4  N   UNL     1       5.521   3.677  16.727  0.00  0.00    +0.000 NA
ATOM      5  C   UNL     1       5.278   4.767  17.442  0.00  0.00    +0.000 A 
ENDROOT
BRANCH   1  10
ATOM      6  C   UNL     1       1.263   8.996  20.632  0.00  0.00    +0.000 C 
ATOM      7  C   UNL     1       1.928   7.866  19.896  0.00  0.00    +0.000 A 
ATOM      8  C   UNL     1       2.275   6.698  20.594  0.00  0.00    +0.000 A 
ATOM      9  C   UNL     1       2.931   5.643  19.953  0.00  0.00    +0.000 A 
ATOM     10  C   UNL     1       3.229   5.731  18.593  0.00  0.00    +0.000 A 
ATOM     11  C   UNL     1       2.840   6.878  17.881  0.00  0.00    +0.000 A 
ATOM     12  C   UNL     1       2.229   7.965  18.527  0.00  0.00    +0.000 A 
ATOM     13  C   UNL     1       1.954   9.220  17.745  0.00  0.00    +0.000 C 
ENDBRANCH   1  10
BRANCH   5  14
ATOM     14  C   UNL     1       6.280   5.809  17.701  0.00  0.00    +0.000 A 
ATOM     15  C   UNL     1       6.266   7.013  17.007  0.00  0.00    +0.000 A 
ATOM     16  C   UNL     1       7.196   7.995  17.347  0.00  0.00    +0.000 A 
ATOM     17  C   UNL     1       8.109   7.748  18.365  0.00  0.00    +0.000 A 
ATOM     18  C   UNL     1       8.078   6.510  18.978  0.00  0.00    +0.000 A 
ATOM     19  N   UNL     1       7.204   5.535  18.651  0.00  0.00    +0.000 NA
ENDBRANCH   5  14
BRANCH   2  20
ATOM     20  S   UNL     1       2.015   2.662  17.855  0.00  0.00    +0.000 S 
BRANCH  20  21
ATOM     21  C   UNL     1       2.200   1.879  19.470  0.00  0.00    +0.000 C 
BRANCH  21  22
ATOM     22  C   UNL     1       1.556   2.559  20.666  0.00  0.00    +0.000 C 
ATOM     23  N   UNL     1       0.420   3.286  20.503  0.00  0.00    +0.000 N 
ATOM     24  O   UNL     1       2.034   2.441  21.793  0.00  0.00    +0.000 OA
ATOM     25  H   UNL     1       0.044   3.537  19.594  0.00  0.00    +0.000 HD
ATOM     26  H   UNL     1       0.056   3.775  21.311  0.00  0.00    +0.000 HD
ENDBRANCH  21  22
ENDBRANCH  20  21
ENDBRANCH   2  20
TORSDOF 5
ENDMDL
MODEL 9
REMARK VINA RESULT:      -7.6      1.613      2.270
REMARK  Name = 
REMARK  7 active torsions:
REMARK  status: ('A' for Active; 'I' for Inactive)
REMARK    1  A    between atoms: C_1  and  C_2
REMARK    2  A    between atoms: C_5  and  N_6
REMARK    3  A    between atoms: C_7  and  S_8
REMARK    4  A    between atoms: S_8  and  C_9
REMARK    5  A    between atoms: C_9  and  C_10
REMARK    6  A    between atoms: C_15  and  C_16
REMARK    7  A    between atoms: C_23  and  C_24
REMARK                            x       y       z     vdW  Elec       q    Type
REMARK                         _______ _______ _______ _____ _____    ______ ____
ROOT
ATOM      1  N   UNL     1       3.711   4.523  19.872  0.00  0.00    +0.000 N 
ATOM      2  C   UNL     1       3.328   3.292  20.389  0.00  0.00    +0.000 A 
ATOM      3  N   UNL     1       4.223   2.374  20.103  0.00  0.00    +0.000 NA
ATOM      4  N   UNL     1       5.250   2.979  19.444  0.00  0.00    +0.000 NA
ATOM      5  C   UNL     1       4.995   4.277  19.358  0.00  0.00    +0.000 A 
ENDROOT
BRANCH   1  10
ATOM      6  C   UNL     1       0.972   9.570  19.718  0.00  0.00    +0.000 C 
ATOM      7  C   UNL     1       1.659   8.232  19.721  0.00  0.00    +0.000 A 
ATOM      8  C   UNL     1       1.575   7.418  20.862  0.00  0.00    +0.000 A 
ATOM      9  C   UNL     1       2.234   6.186  20.918  0.00  0.00    +0.000 A 
ATOM     10  C   UNL     1       2.968   5.737  19.819  0.00  0.00    +0.000 A 
ATOM     11  C   UNL     1       3.014   6.529  18.659  0.00  0.00    +0.000 A 
ATOM     12  C   UNL     1       2.400   7.791  18.613  0.00  0.00    +0.000 A 
ATOM     13  C   UNL     1       2.590   8.652  17.394  0.00  0.00    +0.000 C 
ENDBRANCH   1  10
BRANCH   5  14
ATOM     14  C   UNL     1       5.962   5.262  18.855  0.00  0.00    +0.000 A 
ATOM     15  C   UNL     1       5.715   5.990  17.697  0.00  0.00    +0.000 A 
ATOM     16  C   UNL     1       6.632   6.965  17.308  0.00  0.00    +0.000 A 
ATOM     17  C   UNL     1       7.765   7.185  18.082  0.00  0.00    +0.000 A 
ATOM     18  C   UNL     1       7.953   6.391  19.198  0.00  0.00    +0.000 A 
ATOM     19  N   UNL     1       7.092   5.425  19.582  0.00  0.00    +0.000 NA
ENDBRANCH   5  14
BRANCH   2  20
ATOM     20  S   UNL     1       1.858   2.857  21.198  0.00  0.00    +0.000 S 
BRANCH  20  21
ATOM     21  C   UNL     1       0.634   2.707  19.880  0.00  0.00    +0.000 C 
BRANCH  21  22
ATOM     22  C   UNL     1       1.129   2.746  18.445  0.00  0.00    +0.000 C 
ATOM     23  N   UNL     1       1.864   1.716  17.953  0.00  0.00    +0.000 N 
ATOM     24  O   UNL     1       0.852   3.689  17.706  0.00  0.00    +0.000 OA
ATOM     25  H   UNL     1       2.242   0.973  18.532  0.00  0.00    +0.000 HD
ATOM     26  H   UNL     1       2.228   1.806  17.013  0.00  0.00    +0.000 HD
ENDBRANCH  21  22
ENDBRANCH  20  21
ENDBRANCH   2  20
TORSDOF 5
ENDMDL
