MODEL 1
REMARK VINA RESULT:      -8.1      0.000      0.000
REMARK  Name = 
REMARK  9 active torsions:
REMARK  status: ('A' for Active; 'I' for Inactive)
REMARK    1  A    between atoms: C_1  and  C_2
REMARK    2  A    between atoms: C_2  and  C_3
REMARK    3  A    between atoms: C_3  and  C_4
REMARK    4  A    between atoms: C_4  and  N_5
REMARK    5  A    between atoms: C_9  and  C_10
REMARK    6  A    between atoms: C_10  and  C_12
REMARK    7  A    between atoms: C_14  and  O_15
REMARK    8  A    between atoms: O_15  and  C_16
REMARK    9  A    between atoms: C_19  and  O_20
REMARK                            x       y       z     vdW  Elec       q    Type
REMARK                         _______ _______ _______ _____ _____    ______ ____
ROOT
ATOM      1  N   UNL     1       6.214   3.917  13.330  0.00  0.00    +0.000 N 
ATOM      2  C   UNL     1       5.574   3.386  14.523  0.00  0.00    +0.000 C 
ATOM      3  C   UNL     1       5.468   4.419  15.588  0.00  0.00    +0.000 A 
ATOM      4  C   UNL     1       4.536   4.342  16.623  0.00  0.00    +0.000 A 
ATOM      5  C   UNL     1       4.520   5.342  17.592  0.00  0.00    +0.000 A 
ATOM      6  C   UNL     1       5.477   6.348  17.512  0.00  0.00    +0.000 A 
ATOM      7  N   UNL     1       6.415   6.427  16.535  0.00  0.00    +0.000 NA
ATOM      8  C   UNL     1       6.379   5.464  15.594  0.00  0.00    +0.000 A 
ATOM      9  N   UNL     1       7.325   5.531  14.583  0.00  0.00    +0.000 N 
ATOM     10  C   UNL     1       7.269   4.800  13.435  0.00  0.00    +0.000 C 
ATOM     11  O   UNL     1       8.072   5.020  12.527  0.00  0.00    +0.000 OA
ATOM     12  H   UNL     1       7.991   6.282  14.621  0.00  0.00    +0.000 HD
ENDROOT
BRANCH   5  13
ATOM     13  C   UNL     1       3.525   5.273  18.680  0.00  0.00    +0.000 C 
ATOM     14  O   UNL     1       3.341   4.189  19.229  0.00  0.00    +0.000 OA
BRANCH  13  15
ATOM     15  C   UNL     1       2.740   6.456  19.128  0.00  0.00    +0.000 A 
ATOM     16  C   UNL     1       2.618   7.523  18.222  0.00  0.00    +0.000 A 
ATOM     17  C   UNL     1       1.927   8.680  18.590  0.00  0.00    +0.000 A 
ATOM     18  C   UNL     1       1.349   8.755  19.858  0.00  0.00    +0.000 A 
ATOM     19  C   UNL     1       1.463   7.701  20.768  0.00  0.00    +0.000 A 
ATOM     20  C   UNL     1       2.173   6.559  20.403  0.00  0.00    +0.000 A 
BRANCH  17  21
ATOM     21  O   UNL     1       1.749   9.793  17.817  0.00  0.00    +0.000 OA
ATOM     22  C   UNL     1       1.535  11.024  18.499  0.00  0.00    +0.000 C 
ENDBRANCH  17  21
BRANCH  20  23
ATOM     23  O   UNL     1       2.333   5.566  21.324  0.00  0.00    +0.000 OA
ATOM     24  H   UNL     1       1.626   5.620  21.995  0.00  0.00    +0.000 HD
ENDBRANCH  20  23
ENDBRANCH  13  15
ENDBRANCH   5  13
BRANCH   1  25
ATOM     25  C   UNL     1       5.802   3.423  12.021  0.00  0.00    +0.000 C 
BRANCH  25  26
ATOM     26  C   UNL     1       4.275   3.465  11.851  0.00  0.00    +0.000 C 
BRANCH  26  28
ATOM     27  C   UNL     1       3.009   4.175   9.790  0.00  0.00    +0.000 C 
ATOM     28  C   UNL     1       3.830   3.068  10.439  0.00  0.00    +0.000 C 
ENDBRANCH  26  28
ENDBRANCH  25  26
ENDBRANCH   1  25
TORSDOF 7
ENDMDL
MODEL 2
REMARK VINA RESULT:      -8.0      3.269      7.844
REMARK  Name = 
REMARK  9 active torsions:
REMARK  status: ('A' for Active; 'I' for Inactive)
REMARK    1  A    between atoms: C_1  and  C_2
REMARK    2  A    between atoms: C_2  and  C_3
REMARK    3  A    between atoms: C_3  and  C_4
REMARK    4  A    between atoms: C_4  and  N_5
REMARK    5  A    between atoms: C_9  and  C_10
REMARK    6  A    between atoms: C_10  and  C_12
REMARK    7  A    between atoms: C_14  and  O_15
REMARK    8  A    between atoms: O_15  and  C_16
REMARK    9  A    between atoms: C_19  and  O_20
REMARK                            x       y       z     vdW  Elec       q    Type
REMARK                         _______ _______ _______ _____ _____    ______ ____
ROOT
ATOM      1  N   UNL     1       1.081   9.476  19.408  0.00  0.00    +0.000 N 
ATOM      2  C   UNL     1       2.146   8.860  18.633  0.00  0.00    +0.000 C 
ATOM      3  C   UNL     1       2.295   7.418  18.967  0.00  0.00    +0.000 A 
ATOM      4  C   UNL     1       2.893   6.503  18.100  0.00  0.00    +0.000 A 
ATOM      5  C   UNL     1       3.013   5.175  18.501  0.00  0.00    +0.000 A 
ATOM      6  C   UNL     1       2.577   4.833  19.776  0.00  0.00    +0.000 A 
ATOM      7  N   UNL     1       2.023   5.710  20.650  0.00  0.00    +0.000 NA
ATOM      8  C   UNL     1       1.889   6.980  20.217  0.00  0.00    +0.000 A 
ATOM      9  N   UNL     1       1.319   7.890  21.092  0.00  0.00    +0.000 N 
ATOM     10  C   UNL     1       0.884   9.129  20.728  0.00  0.00    +0.000 C 
ATOM     11  O   UNL     1       0.263   9.822  21.535  0.00  0.00    +0.000 OA
ATOM     12  H   UNL     1       1.055   7.556  22.001  0.00  0.00    +0.000 HD
ENDROOT
BRANCH   5  13
ATOM     13  C   UNL     1       3.629   4.199  17.581  0.00  0.00    +0.000 C 
ATOM     14  O   UNL     1       2.977   3.203  17.272  0.00  0.00    +0.000 OA
BRANCH  13  15
ATOM     15  C   UNL     1       4.998   4.372  17.023  0.00  0.00    +0.000 A 
ATOM     16  C   UNL     1       5.112   4.457  15.625  0.00  0.00    +0.000 A 
ATOM     17  C   UNL     1       6.370   4.582  15.029  0.00  0.00    +0.000 A 
ATOM     18  C   UNL     1       7.505   4.638  15.839  0.00  0.00    +0.000 A 
ATOM     19  C   UNL     1       7.406   4.555  17.230  0.00  0.00    +0.000 A 
ATOM     20  C   UNL     1       6.150   4.407  17.816  0.00  0.00    +0.000 A 
BRANCH  17  21
ATOM     21  O   UNL     1       6.623   4.656  13.689  0.00  0.00    +0.000 OA
ATOM     22  C   UNL     1       6.197   3.557  12.890  0.00  0.00    +0.000 C 
ENDBRANCH  17  21
BRANCH  20  23
ATOM     23  O   UNL     1       6.073   4.260  19.170  0.00  0.00    +0.000 OA
ATOM     24  H   UNL     1       5.486   4.945  19.544  0.00  0.00    +0.000 HD
ENDBRANCH  20  23
ENDBRANCH  13  15
ENDBRANCH   5  13
BRANCH   1  25
ATOM     25  C   UNL     1       0.292  10.547  18.808  0.00  0.00    +0.000 C 
BRANCH  25  26
ATOM     26  C   UNL     1      -0.705  10.008  17.771  0.00  0.00    +0.000 C 
BRANCH  26  28
ATOM     27  C   UNL     1      -3.141   9.942  17.129  0.00  0.00    +0.000 C 
ATOM     28  C   UNL     1      -2.150  10.019  18.282  0.00  0.00    +0.000 C 
ENDBRANCH  26  28
ENDBRANCH  25  26
ENDBRANCH   1  25
TORSDOF 7
ENDMDL
MODEL 3
REMARK VINA RESULT:      -8.0      1.368      1.691
REMARK  Name = 
REMARK  9 active torsions:
REMARK  status: ('A' for Active; 'I' for Inactive)
REMARK    1  A    between atoms: C_1  and  C_2
REMARK    2  A    between atoms: C_2  and  C_3
REMARK    3  A    between atoms: C_3  and  C_4
REMARK    4  A    between atoms: C_4  and  N_5
REMARK    5  A    between atoms: C_9  and  C_10
REMARK    6  A    between atoms: C_10  and  C_12
REMARK    7  A    between atoms: C_14  and  O_15
REMARK    8  A    between atoms: O_15  and  C_16
REMARK    9  A    between atoms: C_19  and  O_20
REMARK                            x       y       z     vdW  Elec       q    Type
REMARK                         _______ _______ _______ _____ _____    ______ ____
ROOT
ATOM      1  N   UNL     1       6.490   4.355  13.220  0.00  0.00    +0.000 N 
ATOM      2  C   UNL     1       6.040   3.465  14.277  0.00  0.00    +0.000 C 
ATOM      3  C   UNL     1       6.145   4.113  15.613  0.00  0.00    +0.000 A 
ATOM      4  C   UNL     1       5.395   3.696  16.713  0.00  0.00    +0.000 A 
ATOM      5  C   UNL     1       5.572   4.343  17.933  0.00  0.00    +0.000 A 
ATOM      6  C   UNL     1       6.534   5.344  18.011  0.00  0.00    +0.000 A 
ATOM      7  N   UNL     1       7.299   5.745  16.965  0.00  0.00    +0.000 NA
ATOM      8  C   UNL     1       7.077   5.122  15.790  0.00  0.00    +0.000 A 
ATOM      9  N   UNL     1       7.844   5.522  14.707  0.00  0.00    +0.000 N 
ATOM     10  C   UNL     1       7.575   5.184  13.415  0.00  0.00    +0.000 C 
ATOM     11  O   UNL     1       8.223   5.694  12.500  0.00  0.00    +0.000 OA
ATOM     12  H   UNL     1       8.531   6.238  14.865  0.00  0.00    +0.000 HD
ENDROOT
BRANCH   5  13
ATOM     13  C   UNL     1       4.769   3.917  19.096  0.00  0.00    +0.000 C 
ATOM     14  O   UNL     1       5.092   2.882  19.675  0.00  0.00    +0.000 OA
BRANCH  13  15
ATOM     15  C   UNL     1       3.593   4.686  19.587  0.00  0.00    +0.000 A 
ATOM     16  C   UNL     1       3.438   5.996  19.102  0.00  0.00    +0.000 A 
ATOM     17  C   UNL     1       2.377   6.788  19.549  0.00  0.00    +0.000 A 
ATOM     18  C   UNL     1       1.469   6.258  20.466  0.00  0.00    +0.000 A 
ATOM     19  C   UNL     1       1.611   4.957  20.955  0.00  0.00    +0.000 A 
ATOM     20  C   UNL     1       2.684   4.180  20.523  0.00  0.00    +0.000 A 
BRANCH  17  21
ATOM     21  O   UNL     1       2.121   8.077  19.175  0.00  0.00    +0.000 OA
ATOM     22  C   UNL     1       2.316   8.401  17.802  0.00  0.00    +0.000 C 
ENDBRANCH  17  21
BRANCH  20  23
ATOM     23  O   UNL     1       2.849   2.937  21.058  0.00  0.00    +0.000 OA
ATOM     24  H   UNL     1       2.743   2.260  20.363  0.00  0.00    +0.000 HD
ENDBRANCH  20  23
ENDBRANCH  13  15
ENDBRANCH   5  13
BRANCH   1  25
ATOM     25  C   UNL     1       5.851   4.286  11.910  0.00  0.00    +0.000 C 
BRANCH  25  26
ATOM     26  C   UNL     1       5.096   2.961  11.714  0.00  0.00    +0.000 C 
BRANCH  26  28
ATOM     27  C   UNL     1       3.450   3.814  10.006  0.00  0.00    +0.000 C 
ATOM     28  C   UNL     1       3.616   3.172  11.377  0.00  0.00    +0.000 C 
ENDBRANCH  26  28
ENDBRANCH  25  26
ENDBRANCH   1  25
TORSDOF 7
ENDMDL
MODEL 4
REMARK VINA RESULT:      -7.9      3.786      6.060
REMARK  Name = 
REMARK  9 active torsions:
REMARK  status: ('A' for Active; 'I' for Inactive)
REMARK    1  A    between atoms: C_1  and  C_2
REMARK    2  A    between atoms: C_2  and  C_3
REMARK    3  A    between atoms: C_3  and  C_4
REMARK    4  A    between atoms: C_4  and  N_5
REMARK    5  A    between atoms: C_9  and  C_10
REMARK    6  A    between atoms: C_10  and  C_12
REMARK    7  A    between atoms: C_14  and  O_15
REMARK    8  A    between atoms: O_15  and  C_16
REMARK    9  A    between atoms: C_19  and  O_20
REMARK                            x       y       z     vdW  Elec       q    Type
REMARK                         _______ _______ _______ _____ _____    ______ ____
ROOT
ATOM      1  N   UNL     1       5.654   5.884  17.760  0.00  0.00    +0.000 N 
ATOM      2  C   UNL     1       4.644   6.674  17.077  0.00  0.00    +0.000 C 
ATOM      3  C   UNL     1       3.580   7.123  18.015  0.00  0.00    +0.000 A 
ATOM      4  C   UNL     1       2.764   8.225  17.756  0.00  0.00    +0.000 A 
ATOM      5  C   UNL     1       1.776   8.563  18.678  0.00  0.00    +0.000 A 
ATOM      6  C   UNL     1       1.613   7.749  19.793  0.00  0.00    +0.000 A 
ATOM      7  N   UNL     1       2.371   6.653  20.049  0.00  0.00    +0.000 NA
ATOM      8  C   UNL     1       3.341   6.375  19.156  0.00  0.00    +0.000 A 
ATOM      9  N   UNL     1       4.130   5.264  19.404  0.00  0.00    +0.000 N 
ATOM     10  C   UNL     1       5.296   4.994  18.752  0.00  0.00    +0.000 C 
ATOM     11  O   UNL     1       6.008   4.062  19.128  0.00  0.00    +0.000 OA
ATOM     12  H   UNL     1       3.923   4.722  20.224  0.00  0.00    +0.000 HD
ENDROOT
BRANCH   5  13
ATOM     13  C   UNL     1       0.922   9.738  18.418  0.00  0.00    +0.000 C 
ATOM     14  O   UNL     1       0.044   9.638  17.562  0.00  0.00    +0.000 OA
BRANCH  13  15
ATOM     15  C   UNL     1       1.084  11.028  19.142  0.00  0.00    +0.000 A 
ATOM     16  C   UNL     1       0.396  11.168  20.359  0.00  0.00    +0.000 A 
ATOM     17  C   UNL     1       0.472  12.366  21.075  0.00  0.00    +0.000 A 
ATOM     18  C   UNL     1       1.251  13.410  20.575  0.00  0.00    +0.000 A 
ATOM     19  C   UNL     1       1.940  13.284  19.366  0.00  0.00    +0.000 A 
ATOM     20  C   UNL     1       1.841  12.095  18.646  0.00  0.00    +0.000 A 
BRANCH  17  21
ATOM     21  O   UNL     1      -0.158  12.640  22.256  0.00  0.00    +0.000 OA
ATOM     22  C   UNL     1      -0.911  11.586  22.846  0.00  0.00    +0.000 C 
ENDBRANCH  17  21
BRANCH  20  23
ATOM     23  O   UNL     1       2.465  12.009  17.437  0.00  0.00    +0.000 OA
ATOM     24  H   UNL     1       3.193  12.657  17.393  0.00  0.00    +0.000 HD
ENDBRANCH  20  23
ENDBRANCH  13  15
ENDBRANCH   5  13
BRANCH   1  25
ATOM     25  C   UNL     1       7.041   5.959  17.313  0.00  0.00    +0.000 C 
BRANCH  25  26
ATOM     26  C   UNL     1       7.854   6.965  18.143  0.00  0.00    +0.000 C 
BRANCH  26  28
ATOM     27  C   UNL     1       8.581   9.360  18.435  0.00  0.00    +0.000 C 
ATOM     28  C   UNL     1       7.787   8.387  17.574  0.00  0.00    +0.000 C 
ENDBRANCH  26  28
ENDBRANCH  25  26
ENDBRANCH   1  25
TORSDOF 7
ENDMDL
MODEL 5
REMARK VINA RESULT:      -7.9      3.923      6.596
REMARK  Name = 
REMARK  9 active torsions:
REMARK  status: ('A' for Active; 'I' for Inactive)
REMARK    1  A    between atoms: C_1  and  C_2
REMARK    2  A    between atoms: C_2  and  C_3
REMARK    3  A    between atoms: C_3  and  C_4
REMARK    4  A    between atoms: C_4  and  N_5
REMARK    5  A    between atoms: C_9  and  C_10
REMARK    6  A    between atoms: C_10  and  C_12
REMARK    7  A    between atoms: C_14  and  O_15
REMARK    8  A    between atoms: O_15  and  C_16
REMARK    9  A    between atoms: C_19  and  O_20
REMARK                            x       y       z     vdW  Elec       q    Type
REMARK                         _______ _______ _______ _____ _____    ______ ____
ROOT
ATOM      1  N   UNL     1       4.123   5.829  18.243  0.00  0.00    +0.000 N 
ATOM      2  C   UNL     1       3.155   6.699  17.596  0.00  0.00    +0.000 C 
ATOM      3  C   UNL     1       2.415   7.522  18.590  0.00  0.00    +0.000 A 
ATOM      4  C   UNL     1       1.782   8.719  18.255  0.00  0.00    +0.000 A 
ATOM      5  C   UNL     1       1.091   9.415  19.243  0.00  0.00    +0.000 A 
ATOM      6  C   UNL     1       1.019   8.853  20.513  0.00  0.00    +0.000 A 
ATOM      7  N   UNL     1       1.598   7.675  20.855  0.00  0.00    +0.000 NA
ATOM      8  C   UNL     1       2.288   7.045  19.885  0.00  0.00    +0.000 A 
ATOM      9  N   UNL     1       2.893   5.843  20.216  0.00  0.00    +0.000 N 
ATOM     10  C   UNL     1       3.824   5.218  19.443  0.00  0.00    +0.000 C 
ATOM     11  O   UNL     1       4.415   4.226  19.874  0.00  0.00    +0.000 OA
ATOM     12  H   UNL     1       2.767   5.504  21.153  0.00  0.00    +0.000 HD
ENDROOT
BRANCH   5  13
ATOM     13  C   UNL     1       0.433  10.691  18.898  0.00  0.00    +0.000 C 
ATOM     14  O   UNL     1       1.094  11.724  18.982  0.00  0.00    +0.000 OA
BRANCH  13  15
ATOM     15  C   UNL     1      -0.988  10.772  18.460  0.00  0.00    +0.000 A 
ATOM     16  C   UNL     1      -1.348  10.034  17.321  0.00  0.00    +0.000 A 
ATOM     17  C   UNL     1      -2.655  10.092  16.831  0.00  0.00    +0.000 A 
ATOM     18  C   UNL     1      -3.597  10.878  17.496  0.00  0.00    +0.000 A 
ATOM     19  C   UNL     1      -3.252  11.616  18.631  0.00  0.00    +0.000 A 
ATOM     20  C   UNL     1      -1.941  11.571  19.100  0.00  0.00    +0.000 A 
BRANCH  17  21
ATOM     21  O   UNL     1      -3.133   9.443  15.728  0.00  0.00    +0.000 OA
ATOM     22  C   UNL     1      -3.041  10.130  14.484  0.00  0.00    +0.000 C 
ENDBRANCH  17  21
BRANCH  20  23
ATOM     23  O   UNL     1      -1.602  12.348  20.168  0.00  0.00    +0.000 OA
ATOM     24  H   UNL     1      -1.164  13.164  19.859  0.00  0.00    +0.000 HD
ENDBRANCH  20  23
ENDBRANCH  13  15
ENDBRANCH   5  13
BRANCH   1  25
ATOM     25  C   UNL     1       5.373   5.520  17.558  0.00  0.00    +0.000 C 
BRANCH  25  26
ATOM     26  C   UNL     1       6.125   6.794  17.142  0.00  0.00    +0.000 C 
BRANCH  26  28
ATOM     27  C   UNL     1       7.764   5.774  18.763  0.00  0.00    +0.000 C 
ATOM     28  C   UNL     1       7.403   7.016  17.959  0.00  0.00    +0.000 C 
ENDBRANCH  26  28
ENDBRANCH  25  26
ENDBRANCH   1  25
TORSDOF 7
ENDMDL
MODEL 6
REMARK VINA RESULT:      -7.9      4.571      7.882
REMARK  Name = 
REMARK  9 active torsions:
REMARK  status: ('A' for Active; 'I' for Inactive)
REMARK    1  A    between atoms: C_1  and  C_2
REMARK    2  A    between atoms: C_2  and  C_3
REMARK    3  A    between atoms: C_3  and  C_4
REMARK    4  A    between atoms: C_4  and  N_5
REMARK    5  A    between atoms: C_9  and  C_10
REMARK    6  A    between atoms: C_10  and  C_12
REMARK    7  A    between atoms: C_14  and  O_15
REMARK    8  A    between atoms: O_15  and  C_16
REMARK    9  A    between atoms: C_19  and  O_20
REMARK                            x       y       z     vdW  Elec       q    Type
REMARK                         _______ _______ _______ _____ _____    ______ ____
ROOT
ATOM      1  N   UNL     1       0.081  10.673  19.202  0.00  0.00    +0.000 N 
ATOM      2  C   UNL     1       1.211  10.114  18.479  0.00  0.00    +0.000 C 
ATOM      3  C   UNL     1       1.573   8.767  18.995  0.00  0.00    +0.000 A 
ATOM      4  C   UNL     1       2.284   7.836  18.237  0.00  0.00    +0.000 A 
ATOM      5  C   UNL     1       2.602   6.605  18.807  0.00  0.00    +0.000 A 
ATOM      6  C   UNL     1       2.240   6.382  20.131  0.00  0.00    +0.000 A 
ATOM      7  N   UNL     1       1.578   7.283  20.899  0.00  0.00    +0.000 NA
ATOM      8  C   UNL     1       1.255   8.450  20.306  0.00  0.00    +0.000 A 
ATOM      9  N   UNL     1       0.573   9.381  21.072  0.00  0.00    +0.000 N 
ATOM     10  C   UNL     1      -0.044  10.484  20.563  0.00  0.00    +0.000 C 
ATOM     11  O   UNL     1      -0.746  11.186  21.292  0.00  0.00    +0.000 OA
ATOM     12  H   UNL     1       0.374   9.140  22.027  0.00  0.00    +0.000 HD
ENDROOT
BRANCH   5  13
ATOM     13  C   UNL     1       3.339   5.610  18.004  0.00  0.00    +0.000 C 
ATOM     14  O   UNL     1       2.689   4.768  17.387  0.00  0.00    +0.000 OA
BRANCH  13  15
ATOM     15  C   UNL     1       4.825   5.587  17.916  0.00  0.00    +0.000 A 
ATOM     16  C   UNL     1       5.456   6.758  17.466  0.00  0.00    +0.000 A 
ATOM     17  C   UNL     1       6.846   6.796  17.323  0.00  0.00    +0.000 A 
ATOM     18  C   UNL     1       7.595   5.664  17.647  0.00  0.00    +0.000 A 
ATOM     19  C   UNL     1       6.979   4.493  18.096  0.00  0.00    +0.000 A 
ATOM     20  C   UNL     1       5.591   4.455  18.214  0.00  0.00    +0.000 A 
BRANCH  17  21
ATOM     21  O   UNL     1       7.582   7.858  16.881  0.00  0.00    +0.000 OA
ATOM     22  C   UNL     1       8.017   8.794  17.862  0.00  0.00    +0.000 C 
ENDBRANCH  17  21
BRANCH  20  23
ATOM     23  O   UNL     1       4.998   3.286  18.589  0.00  0.00    +0.000 OA
ATOM     24  H   UNL     1       4.227   3.107  18.018  0.00  0.00    +0.000 HD
ENDBRANCH  20  23
ENDBRANCH  13  15
ENDBRANCH   5  13
BRANCH   1  25
ATOM     25  C   UNL     1      -0.865  11.529  18.494  0.00  0.00    +0.000 C 
BRANCH  25  26
ATOM     26  C   UNL     1      -2.153  10.775  18.129  0.00  0.00    +0.000 C 
BRANCH  26  28
ATOM     27  C   UNL     1      -3.030  10.219  15.832  0.00  0.00    +0.000 C 
ATOM     28  C   UNL     1      -1.985   9.889  16.889  0.00  0.00    +0.000 C 
ENDBRANCH  26  28
ENDBRANCH  25  26
ENDBRANCH   1  25
TORSDOF 7
ENDMDL
MODEL 7
REMARK VINA RESULT:      -7.8      3.698      5.958
REMARK  Name = 
REMARK  9 active torsions:
REMARK  status: ('A' for Active; 'I' for Inactive)
REMARK    1  A    between atoms: C_1  and  C_2
REMARK    2  A    between atoms: C_2  and  C_3
REMARK    3  A    between atoms: C_3  and  C_4
REMARK    4  A    between atoms: C_4  and  N_5
REMARK    5  A    between atoms: C_9  and  C_10
REMARK    6  A    between atoms: C_10  and  C_12
REMARK    7  A    between atoms: C_14  and  O_15
REMARK    8  A    between atoms: O_15  and  C_16
REMARK    9  A    between atoms: C_19  and  O_20
REMARK                            x       y       z     vdW  Elec       q    Type
REMARK                         _______ _______ _______ _____ _____    ______ ____
ROOT
ATOM      1  N   UNL     1       5.034   5.249  17.867  0.00  0.00    +0.000 N 
ATOM      2  C   UNL     1       4.216   6.226  17.169  0.00  0.00    +0.000 C 
ATOM      3  C   UNL     1       3.318   6.952  18.107  0.00  0.00    +0.000 A 
ATOM      4  C   UNL     1       2.776   8.204  17.813  0.00  0.00    +0.000 A 
ATOM      5  C   UNL     1       1.925   8.803  18.739  0.00  0.00    +0.000 A 
ATOM      6  C   UNL     1       1.611   8.096  19.895  0.00  0.00    +0.000 A 
ATOM      7  N   UNL     1       2.098   6.864  20.187  0.00  0.00    +0.000 NA
ATOM      8  C   UNL     1       2.946   6.329  19.287  0.00  0.00    +0.000 A 
ATOM      9  N   UNL     1       3.460   5.074  19.571  0.00  0.00    +0.000 N 
ATOM     10  C   UNL     1       4.508   4.510  18.907  0.00  0.00    +0.000 C 
ATOM     11  O   UNL     1       4.993   3.452  19.311  0.00  0.00    +0.000 OA
ATOM     12  H   UNL     1       3.158   4.630  20.420  0.00  0.00    +0.000 HD
ENDROOT
BRANCH   5  13
ATOM     13  C   UNL     1       1.363  10.135  18.442  0.00  0.00    +0.000 C 
ATOM     14  O   UNL     1       2.145  11.058  18.224  0.00  0.00    +0.000 OA
BRANCH  13  15
ATOM     15  C   UNL     1      -0.102  10.400  18.401  0.00  0.00    +0.000 A 
ATOM     16  C   UNL     1      -0.830   9.797  17.362  0.00  0.00    +0.000 A 
ATOM     17  C   UNL     1      -2.203  10.032  17.239  0.00  0.00    +0.000 A 
ATOM     18  C   UNL     1      -2.838  10.856  18.168  0.00  0.00    +0.000 A 
ATOM     19  C   UNL     1      -2.126  11.461  19.206  0.00  0.00    +0.000 A 
ATOM     20  C   UNL     1      -0.753  11.241  19.309  0.00  0.00    +0.000 A 
BRANCH  17  21
ATOM     21  O   UNL     1      -3.023   9.527  16.271  0.00  0.00    +0.000 OA
ATOM     22  C   UNL     1      -3.224  10.330  15.112  0.00  0.00    +0.000 C 
ENDBRANCH  17  21
BRANCH  20  23
ATOM     23  O   UNL     1      -0.058  11.889  20.286  0.00  0.00    +0.000 OA
ATOM     24  H   UNL     1       0.107  12.813  20.018  0.00  0.00    +0.000 HD
ENDBRANCH  20  23
ENDBRANCH  13  15
ENDBRANCH   5  13
BRANCH   1  25
ATOM     25  C   UNL     1       6.384   4.976  17.387  0.00  0.00    +0.000 C 
BRANCH  25  26
ATOM     26  C   UNL     1       7.430   5.152  18.498  0.00  0.00    +0.000 C 
BRANCH  26  28
ATOM     27  C   UNL     1       7.626   7.410  17.395  0.00  0.00    +0.000 C 
ATOM     28  C   UNL     1       7.866   6.612  18.669  0.00  0.00    +0.000 C 
ENDBRANCH  26  28
ENDBRANCH  25  26
ENDBRANCH   1  25
TORSDOF 7
ENDMDL
MODEL 8
REMARK VINA RESULT:      -7.7      2.335      3.957
REMARK  Name = 
REMARK  9 active torsions:
REMARK  status: ('A' for Active; 'I' for Inactive)
REMARK    1  A    between atoms: C_1  and  C_2
REMARK    2  A    between atoms: C_2  and  C_3
REMARK    3  A    between atoms: C_3  and  C_4
REMARK    4  A    between atoms: C_4  and  N_5
REMARK    5  A    between atoms: C_9  and  C_10
REMARK    6  A    between atoms: C_10  and  C_12
REMARK    7  A    between atoms: C_14  and  O_15
REMARK    8  A    between atoms: O_15  and  C_16
REMARK    9  A    between atoms: C_19  and  O_20
REMARK                            x       y       z     vdW  Elec       q    Type
REMARK                         _______ _______ _______ _____ _____    ______ ____
ROOT
ATOM      1  N   UNL     1       6.765   4.431  13.377  0.00  0.00    +0.000 N 
ATOM      2  C   UNL     1       5.857   3.885  14.372  0.00  0.00    +0.000 C 
ATOM      3  C   UNL     1       5.564   4.878  15.441  0.00  0.00    +0.000 A 
ATOM      4  C   UNL     1       4.425   4.806  16.243  0.00  0.00    +0.000 A 
ATOM      5  C   UNL     1       4.239   5.764  17.237  0.00  0.00    +0.000 A 
ATOM      6  C   UNL     1       5.232   6.721  17.419  0.00  0.00    +0.000 A 
ATOM      7  N   UNL     1       6.364   6.792  16.675  0.00  0.00    +0.000 NA
ATOM      8  C   UNL     1       6.495   5.871  15.699  0.00  0.00    +0.000 A 
ATOM      9  N   UNL     1       7.641   5.931  14.923  0.00  0.00    +0.000 N 
ATOM     10  C   UNL     1       7.808   5.252  13.754  0.00  0.00    +0.000 C 
ATOM     11  O   UNL     1       8.799   5.467  13.055  0.00  0.00    +0.000 OA
ATOM     12  H   UNL     1       8.314   6.643  15.144  0.00  0.00    +0.000 HD
ENDROOT
BRANCH   5  13
ATOM     13  C   UNL     1       3.027   5.704  18.077  0.00  0.00    +0.000 C 
ATOM     14  O   UNL     1       2.393   6.742  18.254  0.00  0.00    +0.000 OA
BRANCH  13  15
ATOM     15  C   UNL     1       2.551   4.446  18.714  0.00  0.00    +0.000 A 
ATOM     16  C   UNL     1       3.320   3.936  19.774  0.00  0.00    +0.000 A 
ATOM     17  C   UNL     1       2.953   2.738  20.394  0.00  0.00    +0.000 A 
ATOM     18  C   UNL     1       1.809   2.068  19.960  0.00  0.00    +0.000 A 
ATOM     19  C   UNL     1       1.035   2.565  18.908  0.00  0.00    +0.000 A 
ATOM     20  C   UNL     1       1.420   3.747  18.279  0.00  0.00    +0.000 A 
BRANCH  17  21
ATOM     21  O   UNL     1       3.619   2.124  21.418  0.00  0.00    +0.000 OA
ATOM     22  C   UNL     1       4.886   1.553  21.112  0.00  0.00    +0.000 C 
ENDBRANCH  17  21
BRANCH  20  23
ATOM     23  O   UNL     1       0.694   4.186  17.211  0.00  0.00    +0.000 OA
ATOM     24  H   UNL     1      -0.032   4.762  17.518  0.00  0.00    +0.000 HD
ENDBRANCH  20  23
ENDBRANCH  13  15
ENDBRANCH   5  13
BRANCH   1  25
ATOM     25  C   UNL     1       6.630   4.014  11.985  0.00  0.00    +0.000 C 
BRANCH  25  26
ATOM     26  C   UNL     1       5.900   2.668  11.862  0.00  0.00    +0.000 C 
BRANCH  26  28
ATOM     27  C   UNL     1       5.998   0.279  11.063  0.00  0.00    +0.000 C 
ATOM     28  C   UNL     1       6.761   1.590  11.193  0.00  0.00    +0.000 C 
ENDBRANCH  26  28
ENDBRANCH  25  26
ENDBRANCH   1  25
TORSDOF 7
ENDMDL
MODEL 9
REMARK VINA RESULT:      -7.7      1.509      2.045
REMARK  Name = 
REMARK  9 active torsions:
REMARK  status: ('A' for Active; 'I' for Inactive)
REMARK    1  A    between atoms: C_1  and  C_2
REMARK    2  A    between atoms: C_2  and  C_3
REMARK    3  A    between atoms: C_3  and  C_4
REMARK    4  A    between atoms: C_4  and  N_5
REMARK    5  A    between atoms: C_9  and  C_10
REMARK    6  A    between atoms: C_10  and  C_12
REMARK    7  A    between atoms: C_14  and  O_15
REMARK    8  A    between atoms: O_15  and  C_16
REMARK    9  A    between atoms: C_19  and  O_20
REMARK                            x       y       z     vdW  Elec       q    Type
REMARK                         _______ _______ _______ _____ _____    ______ ____
ROOT
ATOM      1  N   UNL     1       6.152   4.024  13.215  0.00  0.00    +0.000 N 
ATOM      2  C   UNL     1       5.764   3.229  14.368  0.00  0.00    +0.000 C 
ATOM      3  C   UNL     1       5.982   3.973  15.638  0.00  0.00    +0.000 A 
ATOM      4  C   UNL     1       5.307   3.661  16.819  0.00  0.00    +0.000 A 
ATOM      5  C   UNL     1       5.588   4.394  17.969  0.00  0.00    +0.000 A 
ATOM      6  C   UNL     1       6.574   5.372  17.899  0.00  0.00    +0.000 A 
ATOM      7  N   UNL     1       7.267   5.672  16.772  0.00  0.00    +0.000 NA
ATOM      8  C   UNL     1       6.945   4.968  15.668  0.00  0.00    +0.000 A 
ATOM      9  N   UNL     1       7.637   5.264  14.505  0.00  0.00    +0.000 N 
ATOM     10  C   UNL     1       7.266   4.836  13.266  0.00  0.00    +0.000 C 
ATOM     11  O   UNL     1       7.854   5.257  12.269  0.00  0.00    +0.000 OA
ATOM     12  H   UNL     1       8.349   5.971  14.556  0.00  0.00    +0.000 HD
ENDROOT
BRANCH   5  13
ATOM     13  C   UNL     1       4.865   4.079  19.217  0.00  0.00    +0.000 C 
ATOM     14  O   UNL     1       5.313   3.189  19.937  0.00  0.00    +0.000 OA
BRANCH  13  15
ATOM     15  C   UNL     1       3.625   4.791  19.630  0.00  0.00    +0.000 A 
ATOM     16  C   UNL     1       3.488   6.127  19.220  0.00  0.00    +0.000 A 
ATOM     17  C   UNL     1       2.367   6.868  19.603  0.00  0.00    +0.000 A 
ATOM     18  C   UNL     1       1.382   6.260  20.381  0.00  0.00    +0.000 A 
ATOM     19  C   UNL     1       1.505   4.931  20.795  0.00  0.00    +0.000 A 
ATOM     20  C   UNL     1       2.637   4.206  20.429  0.00  0.00    +0.000 A 
BRANCH  17  21
ATOM     21  O   UNL     1       2.119   8.175  19.290  0.00  0.00    +0.000 OA
ATOM     22  C   UNL     1       2.047   8.505  17.907  0.00  0.00    +0.000 C 
ENDBRANCH  17  21
BRANCH  20  23
ATOM     23  O   UNL     1       2.776   2.931  20.895  0.00  0.00    +0.000 OA
ATOM     24  H   UNL     1       3.460   2.906  21.591  0.00  0.00    +0.000 HD
ENDBRANCH  20  23
ENDBRANCH  13  15
ENDBRANCH   5  13
BRANCH   1  25
ATOM     25  C   UNL     1       5.416   3.872  11.965  0.00  0.00    +0.000 C 
BRANCH  25  26
ATOM     26  C   UNL     1       5.166   2.394  11.626  0.00  0.00    +0.000 C 
BRANCH  26  28
ATOM     27  C   UNL     1       6.249   0.159  11.194  0.00  0.00    +0.000 C 
ATOM     28  C   UNL     1       6.441   1.670  11.177  0.00  0.00    +0.000 C 
ENDBRANCH  26  28
ENDBRANCH  25  26
ENDBRANCH   1  25
TORSDOF 7
ENDMDL
