MODEL 1
REMARK VINA RESULT:      -8.0      0.000      0.000
REMARK  Name = 
REMARK  16 active torsions:
REMARK  status: ('A' for Active; 'I' for Inactive)
REMARK    1  A    between atoms: C_1  and  N_2
REMARK    2  A    between atoms: N_2  and  C_3
REMARK    3  A    between atoms: N_2  and  S_32
REMARK    4  A    between atoms: C_5  and  C_6
REMARK    5  A    between atoms: C_6  and  C_7
REMARK    6  A    between atoms: C_7  and  C_8
REMARK    7  A    between atoms: C_12  and  C_13
REMARK    8  A    between atoms: N_15  and  C_16
REMARK    9  A    between atoms: C_16  and  C_17
REMARK   10  A    between atoms: C_16  and  C_24
REMARK   11  A    between atoms: C_17  and  C_18
REMARK   12  A    between atoms: C_24  and  O_25
REMARK   13  A    between atoms: C_24  and  C_26
REMARK   14  A    between atoms: C_26  and  N_27
REMARK   15  A    between atoms: N_27  and  C_28
REMARK   16  A    between atoms: S_32  and  C_33
REMARK                            x       y       z     vdW  Elec       q    Type
REMARK                         _______ _______ _______ _____ _____    ______ ____
ROOT
ATOM      1  C   UNL     1       2.133   8.114  19.041  0.00  0.00    +0.000 C 
ATOM      2  O   UNL     1       1.833   8.116  20.228  0.00  0.00    +0.000 OA
ATOM      3  N   UNL     1       1.960   9.216  18.227  0.00  0.00    +0.000 N 
ATOM      4  H   UNL     1       1.993   9.087  17.223  0.00  0.00    +0.000 HD
ENDROOT
BRANCH   1   9
ATOM      5  C   UNL     1       4.305   5.542  17.268  0.00  0.00    +0.000 A 
ATOM      6  C   UNL     1       3.493   4.410  17.389  0.00  0.00    +0.000 A 
ATOM      7  C   UNL     1       2.249   4.502  18.020  0.00  0.00    +0.000 A 
ATOM      8  C   UNL     1       1.856   5.731  18.557  0.00  0.00    +0.000 A 
ATOM      9  C   UNL     1       2.668   6.869  18.444  0.00  0.00    +0.000 A 
ATOM     10  C   UNL     1       3.902   6.773  17.796  0.00  0.00    +0.000 A 
BRANCH   5  12
ATOM     11  C   UNL     1       5.604   5.458  15.131  0.00  0.00    +0.000 C 
ATOM     12  N   UNL     1       5.555   5.435  16.592  0.00  0.00    +0.000 N 
BRANCH  12  13
ATOM     13  S   UNL     1       6.952   5.119  17.477  0.00  0.00    +0.000 S 
ATOM     14  C   UNL     1       7.548   6.767  17.790  0.00  0.00    +0.000 C 
ATOM     15  O   UNL     1       6.601   4.525  18.749  0.00  0.00    +0.000 OA
ATOM     16  O   UNL     1       7.904   4.478  16.590  0.00  0.00    +0.000 OA
ENDBRANCH  12  13
ENDBRANCH   5  12
BRANCH   7  17
ATOM     17  C   UNL     1       1.294   3.336  18.062  0.00  0.00    +0.000 C 
BRANCH  17  18
ATOM     18  C   UNL     1       0.759   3.067  19.475  0.00  0.00    +0.000 C 
BRANCH  18  19
ATOM     19  C   UNL     1       1.842   2.736  20.465  0.00  0.00    +0.000 C 
ATOM     20  C   UNL     1       2.211   3.702  21.563  0.00  0.00    +0.000 C 
ATOM     21  C   UNL     1       1.491   2.428  21.899  0.00  0.00    +0.000 C 
ENDBRANCH  18  19
ENDBRANCH  17  18
ENDBRANCH   7  17
ENDBRANCH   1   9
BRANCH   3  22
ATOM     22  C   UNL     1       1.197  10.371  18.743  0.00  0.00    +0.000 C 
BRANCH  22  23
ATOM     23  C   UNL     1      -0.329  10.119  18.630  0.00  0.00    +0.000 C 
BRANCH  23  24
ATOM     24  C   UNL     1      -1.117  11.067  19.517  0.00  0.00    +0.000 A 
ATOM     25  C   UNL     1      -0.778  11.218  20.871  0.00  0.00    +0.000 A 
ATOM     26  C   UNL     1      -1.593  11.953  21.732  0.00  0.00    +0.000 A 
ATOM     27  C   UNL     1      -2.740  12.572  21.244  0.00  0.00    +0.000 A 
ATOM     28  C   UNL     1      -3.047  12.493  19.887  0.00  0.00    +0.000 A 
ATOM     29  C   UNL     1      -2.237  11.749  19.024  0.00  0.00    +0.000 A 
ENDBRANCH  23  24
ENDBRANCH  22  23
BRANCH  22  30
ATOM     30  C   UNL     1       1.620  11.702  18.061  0.00  0.00    +0.000 C 
BRANCH  30  31
ATOM     31  O   UNL     1       2.733  11.476  17.183  0.00  0.00    +0.000 OA
ATOM     32  H   UNL     1       3.147  10.649  17.489  0.00  0.00    +0.000 HD
ENDBRANCH  30  31
BRANCH  30  33
ATOM     33  C   UNL     1       1.969  12.808  19.090  0.00  0.00    +0.000 C 
BRANCH  33  34
ATOM     34  N   UNL     1       1.591  14.173  18.696  0.00  0.00    +0.000 NA
ATOM     35  H   UNL     1       1.835  14.304  17.714  0.00  0.00    +0.000 HD
BRANCH  34  36
ATOM     36  C   UNL     1       0.180  14.500  18.906  0.00  0.00    +0.000 C 
ATOM     37  C   UNL     1      -0.315  15.189  20.145  0.00  0.00    +0.000 C 
ATOM     38  C   UNL     1      -0.201  15.955  18.862  0.00  0.00    +0.000 C 
ENDBRANCH  34  36
ENDBRANCH  33  34
ENDBRANCH  30  33
ENDBRANCH  22  30
ENDBRANCH   3  22
TORSDOF 14
ENDMDL
MODEL 2
REMARK VINA RESULT:      -7.7      1.182      1.659
REMARK  Name = 
REMARK  16 active torsions:
REMARK  status: ('A' for Active; 'I' for Inactive)
REMARK    1  A    between atoms: C_1  and  N_2
REMARK    2  A    between atoms: N_2  and  C_3
REMARK    3  A    between atoms: N_2  and  S_32
REMARK    4  A    between atoms: C_5  and  C_6
REMARK    5  A    between atoms: C_6  and  C_7
REMARK    6  A    between atoms: C_7  and  C_8
REMARK    7  A    between atoms: C_12  and  C_13
REMARK    8  A    between atoms: N_15  and  C_16
REMARK    9  A    between atoms: C_16  and  C_17
REMARK   10  A    between atoms: C_16  and  C_24
REMARK   11  A    between atoms: C_17  and  C_18
REMARK   12  A    between atoms: C_24  and  O_25
REMARK   13  A    between atoms: C_24  and  C_26
REMARK   14  A    between atoms: C_26  and  N_27
REMARK   15  A    between atoms: N_27  and  C_28
REMARK   16  A    between atoms: S_32  and  C_33
REMARK                            x       y       z     vdW  Elec       q    Type
REMARK                         _______ _______ _______ _____ _____    ______ ____
ROOT
ATOM      1  C   UNL     1       2.267   8.088  19.143  0.00  0.00    +0.000 C 
ATOM      2  O   UNL     1       2.068   8.075  20.351  0.00  0.00    +0.000 OA
ATOM      3  N   UNL     1       2.032   9.202  18.362  0.00  0.00    +0.000 N 
ATOM      4  H   UNL     1       1.980   9.087  17.357  0.00  0.00    +0.000 HD
ENDROOT
BRANCH   1   9
ATOM      5  C   UNL     1       4.307   5.512  17.225  0.00  0.00    +0.000 A 
ATOM      6  C   UNL     1       3.456   4.407  17.318  0.00  0.00    +0.000 A 
ATOM      7  C   UNL     1       2.228   4.518  17.978  0.00  0.00    +0.000 A 
ATOM      8  C   UNL     1       1.893   5.739  18.572  0.00  0.00    +0.000 A 
ATOM      9  C   UNL     1       2.744   6.850  18.487  0.00  0.00    +0.000 A 
ATOM     10  C   UNL     1       3.961   6.735  17.809  0.00  0.00    +0.000 A 
BRANCH   5  12
ATOM     11  C   UNL     1       5.549   5.376  15.057  0.00  0.00    +0.000 C 
ATOM     12  N   UNL     1       5.538   5.388  16.519  0.00  0.00    +0.000 N 
BRANCH  12  13
ATOM     13  S   UNL     1       6.958   5.089  17.374  0.00  0.00    +0.000 S 
ATOM     14  C   UNL     1       7.531   6.745  17.689  0.00  0.00    +0.000 C 
ATOM     15  O   UNL     1       6.642   4.478  18.647  0.00  0.00    +0.000 OA
ATOM     16  O   UNL     1       7.903   4.473  16.463  0.00  0.00    +0.000 OA
ENDBRANCH  12  13
ENDBRANCH   5  12
BRANCH   7  17
ATOM     17  C   UNL     1       1.232   3.387  17.994  0.00  0.00    +0.000 C 
BRANCH  17  18
ATOM     18  C   UNL     1       1.415   2.462  19.204  0.00  0.00    +0.000 C 
BRANCH  18  19
ATOM     19  C   UNL     1       1.138   3.141  20.517  0.00  0.00    +0.000 C 
ATOM     20  C   UNL     1       1.422   2.446  21.825  0.00  0.00    +0.000 C 
ATOM     21  C   UNL     1       2.278   3.600  21.390  0.00  0.00    +0.000 C 
ENDBRANCH  18  19
ENDBRANCH  17  18
ENDBRANCH   7  17
ENDBRANCH   1   9
BRANCH   3  22
ATOM     22  C   UNL     1       1.321  10.353  18.956  0.00  0.00    +0.000 C 
BRANCH  22  23
ATOM     23  C   UNL     1      -0.190  10.041  19.123  0.00  0.00    +0.000 C 
BRANCH  23  24
ATOM     24  C   UNL     1      -0.719  10.553  20.452  0.00  0.00    +0.000 A 
ATOM     25  C   UNL     1      -1.449  11.751  20.511  0.00  0.00    +0.000 A 
ATOM     26  C   UNL     1      -1.793  12.315  21.739  0.00  0.00    +0.000 A 
ATOM     27  C   UNL     1      -1.439  11.674  22.923  0.00  0.00    +0.000 A 
ATOM     28  C   UNL     1      -0.779  10.447  22.876  0.00  0.00    +0.000 A 
ATOM     29  C   UNL     1      -0.425   9.884  21.647  0.00  0.00    +0.000 A 
ENDBRANCH  23  24
ENDBRANCH  22  23
BRANCH  22  30
ATOM     30  C   UNL     1       1.561  11.663  18.156  0.00  0.00    +0.000 C 
BRANCH  30  31
ATOM     31  O   UNL     1       2.602  11.469  17.188  0.00  0.00    +0.000 OA
ATOM     32  H   UNL     1       3.263  10.900  17.621  0.00  0.00    +0.000 HD
ENDBRANCH  30  31
BRANCH  30  33
ATOM     33  C   UNL     1       1.908  12.862  19.077  0.00  0.00    +0.000 C 
BRANCH  33  34
ATOM     34  N   UNL     1       3.095  13.634  18.679  0.00  0.00    +0.000 NA
ATOM     35  H   UNL     1       3.045  13.806  17.675  0.00  0.00    +0.000 HD
BRANCH  34  36
ATOM     36  C   UNL     1       3.267  14.900  19.394  0.00  0.00    +0.000 C 
ATOM     37  C   UNL     1       4.560  15.663  19.386  0.00  0.00    +0.000 C 
ATOM     38  C   UNL     1       3.405  16.145  18.560  0.00  0.00    +0.000 C 
ENDBRANCH  34  36
ENDBRANCH  33  34
ENDBRANCH  30  33
ENDBRANCH  22  30
ENDBRANCH   3  22
TORSDOF 14
ENDMDL
MODEL 3
REMARK VINA RESULT:      -7.6      0.654      1.127
REMARK  Name = 
REMARK  16 active torsions:
REMARK  status: ('A' for Active; 'I' for Inactive)
REMARK    1  A    between atoms: C_1  and  N_2
REMARK    2  A    between atoms: N_2  and  C_3
REMARK    3  A    between atoms: N_2  and  S_32
REMARK    4  A    between atoms: C_5  and  C_6
REMARK    5  A    between atoms: C_6  and  C_7
REMARK    6  A    between atoms: C_7  and  C_8
REMARK    7  A    between atoms: C_12  and  C_13
REMARK    8  A    between atoms: N_15  and  C_16
REMARK    9  A    between atoms: C_16  and  C_17
REMARK   10  A    between atoms: C_16  and  C_24
REMARK   11  A    between atoms: C_17  and  C_18
REMARK   12  A    between atoms: C_24  and  O_25
REMARK   13  A    between atoms: C_24  and  C_26
REMARK   14  A    between atoms: C_26  and  N_27
REMARK   15  A    between atoms: N_27  and  C_28
REMARK   16  A    between atoms: S_32  and  C_33
REMARK                            x       y       z     vdW  Elec       q    Type
REMARK                         _______ _______ _______ _____ _____    ______ ____
ROOT
ATOM      1  C   UNL     1       2.144   8.158  18.993  0.00  0.00    +0.000 C 
ATOM      2  O   UNL     1       1.838   8.157  20.178  0.00  0.00    +0.000 OA
ATOM      3  N   UNL     1       1.983   9.266  18.184  0.00  0.00    +0.000 N 
ATOM      4  H   UNL     1       2.019   9.142  17.179  0.00  0.00    +0.000 HD
ENDROOT
BRANCH   1   9
ATOM      5  C   UNL     1       4.315   5.574  17.237  0.00  0.00    +0.000 A 
ATOM      6  C   UNL     1       3.482   4.455  17.324  0.00  0.00    +0.000 A 
ATOM      7  C   UNL     1       2.225   4.558  17.927  0.00  0.00    +0.000 A 
ATOM      8  C   UNL     1       1.840   5.787  18.471  0.00  0.00    +0.000 A 
ATOM      9  C   UNL     1       2.673   6.913  18.392  0.00  0.00    +0.000 A 
ATOM     10  C   UNL     1       3.920   6.805  17.771  0.00  0.00    +0.000 A 
BRANCH   5  12
ATOM     11  C   UNL     1       5.658   5.460  15.129  0.00  0.00    +0.000 C 
ATOM     12  N   UNL     1       5.578   5.456  16.588  0.00  0.00    +0.000 N 
BRANCH  12  13
ATOM     13  S   UNL     1       6.956   5.148  17.507  0.00  0.00    +0.000 S 
ATOM     14  C   UNL     1       7.568   6.796  17.783  0.00  0.00    +0.000 C 
ATOM     15  O   UNL     1       6.575   4.594  18.788  0.00  0.00    +0.000 OA
ATOM     16  O   UNL     1       7.915   4.471  16.655  0.00  0.00    +0.000 OA
ENDBRANCH  12  13
ENDBRANCH   5  12
BRANCH   7  17
ATOM     17  C   UNL     1       1.251   3.408  17.932  0.00  0.00    +0.000 C 
BRANCH  17  18
ATOM     18  C   UNL     1       1.468   2.461  19.120  0.00  0.00    +0.000 C 
BRANCH  18  19
ATOM     19  C   UNL     1       1.717   3.183  20.415  0.00  0.00    +0.000 C 
ATOM     20  C   UNL     1       1.343   2.559  21.736  0.00  0.00    +0.000 C 
ATOM     21  C   UNL     1       2.789   2.701  21.359  0.00  0.00    +0.000 C 
ENDBRANCH  18  19
ENDBRANCH  17  18
ENDBRANCH   7  17
ENDBRANCH   1   9
BRANCH   3  22
ATOM     22  C   UNL     1       1.225  10.423  18.702  0.00  0.00    +0.000 C 
BRANCH  22  23
ATOM     23  C   UNL     1      -0.299  10.226  18.489  0.00  0.00    +0.000 C 
BRANCH  23  24
ATOM     24  C   UNL     1      -1.107  10.970  19.538  0.00  0.00    +0.000 A 
ATOM     25  C   UNL     1      -2.199  11.766  19.159  0.00  0.00    +0.000 A 
ATOM     26  C   UNL     1      -2.842  12.583  20.090  0.00  0.00    +0.000 A 
ATOM     27  C   UNL     1      -2.420  12.591  21.417  0.00  0.00    +0.000 A 
ATOM     28  C   UNL     1      -1.386  11.749  21.821  0.00  0.00    +0.000 A 
ATOM     29  C   UNL     1      -0.734  10.937  20.888  0.00  0.00    +0.000 A 
ENDBRANCH  23  24
ENDBRANCH  22  23
BRANCH  22  30
ATOM     30  C   UNL     1       1.728  11.766  18.102  0.00  0.00    +0.000 C 
BRANCH  30  31
ATOM     31  O   UNL     1       2.775  11.522  17.150  0.00  0.00    +0.000 OA
ATOM     32  H   UNL     1       2.330  11.417  16.290  0.00  0.00    +0.000 HD
ENDBRANCH  30  31
BRANCH  30  33
ATOM     33  C   UNL     1       2.221  12.752  19.193  0.00  0.00    +0.000 C 
BRANCH  33  34
ATOM     34  N   UNL     1       1.236  13.757  19.620  0.00  0.00    +0.000 NA
ATOM     35  H   UNL     1       0.874  13.484  20.534  0.00  0.00    +0.000 HD
BRANCH  34  36
ATOM     36  C   UNL     1       1.747  15.127  19.676  0.00  0.00    +0.000 C 
ATOM     37  C   UNL     1       2.164  15.885  18.448  0.00  0.00    +0.000 C 
ATOM     38  C   UNL     1       0.864  16.212  19.120  0.00  0.00    +0.000 C 
ENDBRANCH  34  36
ENDBRANCH  33  34
ENDBRANCH  30  33
ENDBRANCH  22  30
ENDBRANCH   3  22
TORSDOF 14
ENDMDL
MODEL 4
REMARK VINA RESULT:      -7.6      1.791      3.511
REMARK  Name = 
REMARK  16 active torsions:
REMARK  status: ('A' for Active; 'I' for Inactive)
REMARK    1  A    between atoms: C_1  and  N_2
REMARK    2  A    between atoms: N_2  and  C_3
REMARK    3  A    between atoms: N_2  and  S_32
REMARK    4  A    between atoms: C_5  and  C_6
REMARK    5  A    between atoms: C_6  and  C_7
REMARK    6  A    between atoms: C_7  and  C_8
REMARK    7  A    between atoms: C_12  and  C_13
REMARK    8  A    between atoms: N_15  and  C_16
REMARK    9  A    between atoms: C_16  and  C_17
REMARK   10  A    between atoms: C_16  and  C_24
REMARK   11  A    between atoms: C_17  and  C_18
REMARK   12  A    between atoms: C_24  and  O_25
REMARK   13  A    between atoms: C_24  and  C_26
REMARK   14  A    between atoms: C_26  and  N_27
REMARK   15  A    between atoms: N_27  and  C_28
REMARK   16  A    between atoms: S_32  and  C_33
REMARK                            x       y       z     vdW  Elec       q    Type
REMARK                         _______ _______ _______ _____ _____    ______ ____
ROOT
ATOM      1  C   UNL     1       2.182   8.877  18.044  0.00  0.00    +0.000 C 
ATOM      2  O   UNL     1       2.549   9.530  17.075  0.00  0.00    +0.000 OA
ATOM      3  N   UNL     1       1.188   9.309  18.899  0.00  0.00    +0.000 N 
ATOM      4  H   UNL     1       1.095   8.859  19.802  0.00  0.00    +0.000 HD
ENDROOT
BRANCH   1   9
ATOM      5  C   UNL     1       4.491   5.854  17.964  0.00  0.00    +0.000 A 
ATOM      6  C   UNL     1       3.990   5.135  19.054  0.00  0.00    +0.000 A 
ATOM      7  C   UNL     1       2.903   5.627  19.781  0.00  0.00    +0.000 A 
ATOM      8  C   UNL     1       2.357   6.862  19.421  0.00  0.00    +0.000 A 
ATOM      9  C   UNL     1       2.857   7.591  18.333  0.00  0.00    +0.000 A 
ATOM     10  C   UNL     1       3.932   7.084  17.599  0.00  0.00    +0.000 A 
BRANCH   5  12
ATOM     11  C   UNL     1       5.330   4.633  15.947  0.00  0.00    +0.000 C 
ATOM     12  N   UNL     1       5.578   5.319  17.214  0.00  0.00    +0.000 N 
BRANCH  12  13
ATOM     13  S   UNL     1       7.128   5.337  17.874  0.00  0.00    +0.000 S 
ATOM     14  C   UNL     1       7.602   7.032  17.606  0.00  0.00    +0.000 C 
ATOM     15  O   UNL     1       7.053   5.116  19.302  0.00  0.00    +0.000 OA
ATOM     16  O   UNL     1       7.977   4.516  17.033  0.00  0.00    +0.000 OA
ENDBRANCH  12  13
ENDBRANCH   5  12
BRANCH   7  17
ATOM     17  C   UNL     1       2.259   4.825  20.883  0.00  0.00    +0.000 C 
BRANCH  17  18
ATOM     18  C   UNL     1       0.862   4.319  20.501  0.00  0.00    +0.000 C 
BRANCH  18  19
ATOM     19  C   UNL     1       0.832   2.852  20.172  0.00  0.00    +0.000 C 
ATOM     20  C   UNL     1       0.810   2.378  18.740  0.00  0.00    +0.000 C 
ATOM     21  C   UNL     1       2.043   2.184  19.572  0.00  0.00    +0.000 C 
ENDBRANCH  18  19
ENDBRANCH  17  18
ENDBRANCH   7  17
ENDBRANCH   1   9
BRANCH   3  22
ATOM     22  C   UNL     1       0.689  10.694  18.771  0.00  0.00    +0.000 C 
BRANCH  22  23
ATOM     23  C   UNL     1       1.324  11.611  19.849  0.00  0.00    +0.000 C 
BRANCH  23  24
ATOM     24  C   UNL     1       1.596  13.002  19.305  0.00  0.00    +0.000 A 
ATOM     25  C   UNL     1       2.661  13.221  18.416  0.00  0.00    +0.000 A 
ATOM     26  C   UNL     1       3.023  14.515  18.044  0.00  0.00    +0.000 A 
ATOM     27  C   UNL     1       2.307  15.605  18.530  0.00  0.00    +0.000 A 
ATOM     28  C   UNL     1       1.202  15.398  19.353  0.00  0.00    +0.000 A 
ATOM     29  C   UNL     1       0.843  14.102  19.736  0.00  0.00    +0.000 A 
ENDBRANCH  23  24
ENDBRANCH  22  23
BRANCH  22  30
ATOM     30  C   UNL     1      -0.863  10.759  18.791  0.00  0.00    +0.000 C 
BRANCH  30  31
ATOM     31  O   UNL     1      -1.358  10.388  20.087  0.00  0.00    +0.000 OA
ATOM     32  H   UNL     1      -1.971   9.647  19.934  0.00  0.00    +0.000 HD
ENDBRANCH  30  31
BRANCH  30  33
ATOM     33  C   UNL     1      -1.506   9.864  17.701  0.00  0.00    +0.000 C 
BRANCH  33  34
ATOM     34  N   UNL     1      -2.971   9.956  17.597  0.00  0.00    +0.000 NA
ATOM     35  H   UNL     1      -3.380   9.511  18.419  0.00  0.00    +0.000 HD
BRANCH  34  36
ATOM     36  C   UNL     1      -3.488  11.318  17.458  0.00  0.00    +0.000 C 
ATOM     37  C   UNL     1      -4.860  11.610  16.920  0.00  0.00    +0.000 C 
ATOM     38  C   UNL     1      -4.595  11.730  18.391  0.00  0.00    +0.000 C 
ENDBRANCH  34  36
ENDBRANCH  33  34
ENDBRANCH  30  33
ENDBRANCH  22  30
ENDBRANCH   3  22
TORSDOF 14
ENDMDL
MODEL 5
REMARK VINA RESULT:      -7.6      2.033      3.242
REMARK  Name = 
REMARK  16 active torsions:
REMARK  status: ('A' for Active; 'I' for Inactive)
REMARK    1  A    between atoms: C_1  and  N_2
REMARK    2  A    between atoms: N_2  and  C_3
REMARK    3  A    between atoms: N_2  and  S_32
REMARK    4  A    between atoms: C_5  and  C_6
REMARK    5  A    between atoms: C_6  and  C_7
REMARK    6  A    between atoms: C_7  and  C_8
REMARK    7  A    between atoms: C_12  and  C_13
REMARK    8  A    between atoms: N_15  and  C_16
REMARK    9  A    between atoms: C_16  and  C_17
REMARK   10  A    between atoms: C_16  and  C_24
REMARK   11  A    between atoms: C_17  and  C_18
REMARK   12  A    between atoms: C_24  and  O_25
REMARK   13  A    between atoms: C_24  and  C_26
REMARK   14  A    between atoms: C_26  and  N_27
REMARK   15  A    between atoms: N_27  and  C_28
REMARK   16  A    between atoms: S_32  and  C_33
REMARK                            x       y       z     vdW  Elec       q    Type
REMARK                         _______ _______ _______ _____ _____    ______ ____
ROOT
ATOM      1  C   UNL     1       2.120   9.264  18.104  0.00  0.00    +0.000 C 
ATOM      2  O   UNL     1       2.610   9.875  17.163  0.00  0.00    +0.000 OA
ATOM      3  N   UNL     1       1.124   9.794  18.899  0.00  0.00    +0.000 N 
ATOM      4  H   UNL     1       0.931   9.357  19.792  0.00  0.00    +0.000 HD
ENDROOT
BRANCH   1   9
ATOM      5  C   UNL     1       4.145   6.043  18.183  0.00  0.00    +0.000 A 
ATOM      6  C   UNL     1       3.471   5.355  19.196  0.00  0.00    +0.000 A 
ATOM      7  C   UNL     1       2.362   5.933  19.821  0.00  0.00    +0.000 A 
ATOM      8  C   UNL     1       1.969   7.219  19.440  0.00  0.00    +0.000 A 
ATOM      9  C   UNL     1       2.643   7.917  18.427  0.00  0.00    +0.000 A 
ATOM     10  C   UNL     1       3.740   7.325  17.795  0.00  0.00    +0.000 A 
BRANCH   5  12
ATOM     11  C   UNL     1       5.058   4.698  16.281  0.00  0.00    +0.000 C 
ATOM     12  N   UNL     1       5.252   5.424  17.535  0.00  0.00    +0.000 N 
BRANCH  12  13
ATOM     13  S   UNL     1       6.751   5.392  18.303  0.00  0.00    +0.000 S 
ATOM     14  C   UNL     1       7.451   6.939  17.768  0.00  0.00    +0.000 C 
ATOM     15  O   UNL     1       6.566   5.461  19.737  0.00  0.00    +0.000 OA
ATOM     16  O   UNL     1       7.536   4.333  17.700  0.00  0.00    +0.000 OA
ENDBRANCH  12  13
ENDBRANCH   5  12
BRANCH   7  17
ATOM     17  C   UNL     1       1.538   5.175  20.831  0.00  0.00    +0.000 C 
BRANCH  17  18
ATOM     18  C   UNL     1       2.152   3.815  21.186  0.00  0.00    +0.000 C 
BRANCH  18  19
ATOM     19  C   UNL     1       1.391   2.652  20.611  0.00  0.00    +0.000 C 
ATOM     20  C   UNL     1       0.635   2.786  19.313  0.00  0.00    +0.000 C 
ATOM     21  C   UNL     1       1.887   1.961  19.366  0.00  0.00    +0.000 C 
ENDBRANCH  18  19
ENDBRANCH  17  18
ENDBRANCH   7  17
ENDBRANCH   1   9
BRANCH   3  22
ATOM     22  C   UNL     1       0.776  11.222  18.748  0.00  0.00    +0.000 C 
BRANCH  22  23
ATOM     23  C   UNL     1       1.021  11.993  20.072  0.00  0.00    +0.000 C 
BRANCH  23  24
ATOM     24  C   UNL     1       0.537  11.200  21.274  0.00  0.00    +0.000 A 
ATOM     25  C   UNL     1       1.168   9.998  21.632  0.00  0.00    +0.000 A 
ATOM     26  C   UNL     1       0.630   9.180  22.625  0.00  0.00    +0.000 A 
ATOM     27  C   UNL     1      -0.528   9.567  23.294  0.00  0.00    +0.000 A 
ATOM     28  C   UNL     1      -1.122  10.793  22.999  0.00  0.00    +0.000 A 
ATOM     29  C   UNL     1      -0.590  11.610  21.998  0.00  0.00    +0.000 A 
ENDBRANCH  23  24
ENDBRANCH  22  23
BRANCH  22  30
ATOM     30  C   UNL     1      -0.673  11.417  18.220  0.00  0.00    +0.000 C 
BRANCH  30  31
ATOM     31  O   UNL     1      -1.249  12.606  18.781  0.00  0.00    +0.000 OA
ATOM     32  H   UNL     1      -0.741  12.789  19.591  0.00  0.00    +0.000 HD
ENDBRANCH  30  31
BRANCH  30  33
ATOM     33  C   UNL     1      -1.580  10.195  18.520  0.00  0.00    +0.000 C 
BRANCH  33  34
ATOM     34  N   UNL     1      -2.349   9.689  17.373  0.00  0.00    +0.000 NA
ATOM     35  H   UNL     1      -3.258   9.371  17.711  0.00  0.00    +0.000 HD
BRANCH  34  36
ATOM     36  C   UNL     1      -2.530  10.652  16.286  0.00  0.00    +0.000 C 
ATOM     37  C   UNL     1      -3.058  10.258  14.937  0.00  0.00    +0.000 C 
ATOM     38  C   UNL     1      -3.944  10.992  15.899  0.00  0.00    +0.000 C 
ENDBRANCH  34  36
ENDBRANCH  33  34
ENDBRANCH  30  33
ENDBRANCH  22  30
ENDBRANCH   3  22
TORSDOF 14
ENDMDL
MODEL 6
REMARK VINA RESULT:      -7.5      1.617      2.313
REMARK  Name = 
REMARK  16 active torsions:
REMARK  status: ('A' for Active; 'I' for Inactive)
REMARK    1  A    between atoms: C_1  and  N_2
REMARK    2  A    between atoms: N_2  and  C_3
REMARK    3  A    between atoms: N_2  and  S_32
REMARK    4  A    between atoms: C_5  and  C_6
REMARK    5  A    between atoms: C_6  and  C_7
REMARK    6  A    between atoms: C_7  and  C_8
REMARK    7  A    between atoms: C_12  and  C_13
REMARK    8  A    between atoms: N_15  and  C_16
REMARK    9  A    between atoms: C_16  and  C_17
REMARK   10  A    between atoms: C_16  and  C_24
REMARK   11  A    between atoms: C_17  and  C_18
REMARK   12  A    between atoms: C_24  and  O_25
REMARK   13  A    between atoms: C_24  and  C_26
REMARK   14  A    between atoms: C_26  and  N_27
REMARK   15  A    between atoms: N_27  and  C_28
REMARK   16  A    between atoms: S_32  and  C_33
REMARK                            x       y       z     vdW  Elec       q    Type
REMARK                         _______ _______ _______ _____ _____    ______ ____
ROOT
ATOM      1  C   UNL     1       1.843   8.907  18.415  0.00  0.00    +0.000 C 
ATOM      2  O   UNL     1       1.968   9.565  17.390  0.00  0.00    +0.000 OA
ATOM      3  N   UNL     1       1.021   9.295  19.453  0.00  0.00    +0.000 N 
ATOM      4  H   UNL     1       1.139   8.853  20.357  0.00  0.00    +0.000 HD
ENDROOT
BRANCH   1   9
ATOM      5  C   UNL     1       4.386   6.110  17.978  0.00  0.00    +0.000 A 
ATOM      6  C   UNL     1       3.999   5.263  19.020  0.00  0.00    +0.000 A 
ATOM      7  C   UNL     1       2.911   5.596  19.831  0.00  0.00    +0.000 A 
ATOM      8  C   UNL     1       2.248   6.806  19.602  0.00  0.00    +0.000 A 
ATOM      9  C   UNL     1       2.634   7.664  18.563  0.00  0.00    +0.000 A 
ATOM     10  C   UNL     1       3.712   7.314  17.745  0.00  0.00    +0.000 A 
BRANCH   5  12
ATOM     11  C   UNL     1       5.238   5.351  15.751  0.00  0.00    +0.000 C 
ATOM     12  N   UNL     1       5.477   5.736  17.141  0.00  0.00    +0.000 N 
BRANCH  12  13
ATOM     13  S   UNL     1       7.017   5.581  17.806  0.00  0.00    +0.000 S 
ATOM     14  C   UNL     1       7.638   7.241  17.639  0.00  0.00    +0.000 C 
ATOM     15  O   UNL     1       6.911   5.286  19.218  0.00  0.00    +0.000 OA
ATOM     16  O   UNL     1       7.799   4.739  16.922  0.00  0.00    +0.000 OA
ENDBRANCH  12  13
ENDBRANCH   5  12
BRANCH   7  17
ATOM     17  C   UNL     1       2.388   4.652  20.883  0.00  0.00    +0.000 C 
BRANCH  17  18
ATOM     18  C   UNL     1       0.999   4.100  20.538  0.00  0.00    +0.000 C 
BRANCH  18  19
ATOM     19  C   UNL     1       1.021   2.654  20.129  0.00  0.00    +0.000 C 
ATOM     20  C   UNL     1       0.717   2.244  18.710  0.00  0.00    +0.000 C 
ATOM     21  C   UNL     1       2.118   2.134  19.235  0.00  0.00    +0.000 C 
ENDBRANCH  18  19
ENDBRANCH  17  18
ENDBRANCH   7  17
ENDBRANCH   1   9
BRANCH   3  22
ATOM     22  C   UNL     1       0.429  10.648  19.427  0.00  0.00    +0.000 C 
BRANCH  22  23
ATOM     23  C   UNL     1      -0.492  10.824  18.191  0.00  0.00    +0.000 C 
BRANCH  23  24
ATOM     24  C   UNL     1      -1.906  11.200  18.600  0.00  0.00    +0.000 A 
ATOM     25  C   UNL     1      -3.003  10.761  17.843  0.00  0.00    +0.000 A 
ATOM     26  C   UNL     1      -4.288  11.237  18.110  0.00  0.00    +0.000 A 
ATOM     27  C   UNL     1      -4.495  12.131  19.156  0.00  0.00    +0.000 A 
ATOM     28  C   UNL     1      -3.425  12.516  19.962  0.00  0.00    +0.000 A 
ATOM     29  C   UNL     1      -2.136  12.049  19.691  0.00  0.00    +0.000 A 
ENDBRANCH  23  24
ENDBRANCH  22  23
BRANCH  22  30
ATOM     30  C   UNL     1       1.511  11.760  19.510  0.00  0.00    +0.000 C 
BRANCH  30  31
ATOM     31  O   UNL     1       1.523  12.343  20.822  0.00  0.00    +0.000 OA
ATOM     32  H   UNL     1       0.590  12.398  21.094  0.00  0.00    +0.000 HD
ENDBRANCH  30  31
BRANCH  30  33
ATOM     33  C   UNL     1       1.308  12.863  18.439  0.00  0.00    +0.000 C 
BRANCH  33  34
ATOM     34  N   UNL     1       2.521  13.259  17.709  0.00  0.00    +0.000 NA
ATOM     35  H   UNL     1       2.258  13.491  16.750  0.00  0.00    +0.000 HD
BRANCH  34  36
ATOM     36  C   UNL     1       3.258  14.373  18.307  0.00  0.00    +0.000 C 
ATOM     37  C   UNL     1       4.673  14.703  17.928  0.00  0.00    +0.000 C 
ATOM     38  C   UNL     1       3.549  15.557  17.424  0.00  0.00    +0.000 C 
ENDBRANCH  34  36
ENDBRANCH  33  34
ENDBRANCH  30  33
ENDBRANCH  22  30
ENDBRANCH   3  22
TORSDOF 14
ENDMDL
MODEL 7
REMARK VINA RESULT:      -7.5      2.135      3.278
REMARK  Name = 
REMARK  16 active torsions:
REMARK  status: ('A' for Active; 'I' for Inactive)
REMARK    1  A    between atoms: C_1  and  N_2
REMARK    2  A    between atoms: N_2  and  C_3
REMARK    3  A    between atoms: N_2  and  S_32
REMARK    4  A    between atoms: C_5  and  C_6
REMARK    5  A    between atoms: C_6  and  C_7
REMARK    6  A    between atoms: C_7  and  C_8
REMARK    7  A    between atoms: C_12  and  C_13
REMARK    8  A    between atoms: N_15  and  C_16
REMARK    9  A    between atoms: C_16  and  C_17
REMARK   10  A    between atoms: C_16  and  C_24
REMARK   11  A    between atoms: C_17  and  C_18
REMARK   12  A    between atoms: C_24  and  O_25
REMARK   13  A    between atoms: C_24  and  C_26
REMARK   14  A    between atoms: C_26  and  N_27
REMARK   15  A    between atoms: N_27  and  C_28
REMARK   16  A    between atoms: S_32  and  C_33
REMARK                            x       y       z     vdW  Elec       q    Type
REMARK                         _______ _______ _______ _____ _____    ______ ____
ROOT
ATOM      1  C   UNL     1       1.930   8.861  18.094  0.00  0.00    +0.000 C 
ATOM      2  O   UNL     1       2.106   9.335  16.979  0.00  0.00    +0.000 OA
ATOM      3  N   UNL     1       1.066   9.421  19.013  0.00  0.00    +0.000 N 
ATOM      4  H   UNL     1       1.141   9.140  19.984  0.00  0.00    +0.000 HD
ENDROOT
BRANCH   1   9
ATOM      5  C   UNL     1       4.523   6.084  18.314  0.00  0.00    +0.000 A 
ATOM      6  C   UNL     1       4.014   5.359  19.396  0.00  0.00    +0.000 A 
ATOM      7  C   UNL     1       2.831   5.766  20.021  0.00  0.00    +0.000 A 
ATOM      8  C   UNL     1       2.196   6.926  19.568  0.00  0.00    +0.000 A 
ATOM      9  C   UNL     1       2.704   7.661  18.487  0.00  0.00    +0.000 A 
ATOM     10  C   UNL     1       3.876   7.238  17.856  0.00  0.00    +0.000 A 
BRANCH   5  12
ATOM     11  C   UNL     1       7.009   5.802  18.321  0.00  0.00    +0.000 C 
ATOM     12  N   UNL     1       5.711   5.635  17.669  0.00  0.00    +0.000 N 
BRANCH  12  13
ATOM     13  S   UNL     1       5.630   5.063  16.087  0.00  0.00    +0.000 S 
ATOM     14  C   UNL     1       7.224   4.292  15.912  0.00  0.00    +0.000 C 
ATOM     15  O   UNL     1       4.623   4.028  15.993  0.00  0.00    +0.000 OA
ATOM     16  O   UNL     1       5.607   6.210  15.201  0.00  0.00    +0.000 OA
ENDBRANCH  12  13
ENDBRANCH   5  12
BRANCH   7  17
ATOM     17  C   UNL     1       2.187   4.944  21.108  0.00  0.00    +0.000 C 
BRANCH  17  18
ATOM     18  C   UNL     1       1.853   3.519  20.646  0.00  0.00    +0.000 C 
BRANCH  18  19
ATOM     19  C   UNL     1       1.106   3.479  19.342  0.00  0.00    +0.000 C 
ATOM     20  C   UNL     1       1.737   2.896  18.103  0.00  0.00    +0.000 C 
ATOM     21  C   UNL     1       0.619   2.165  18.787  0.00  0.00    +0.000 C 
ENDBRANCH  18  19
ENDBRANCH  17  18
ENDBRANCH   7  17
ENDBRANCH   1   9
BRANCH   3  22
ATOM     22  C   UNL     1       0.487  10.751  18.730  0.00  0.00    +0.000 C 
BRANCH  22  23
ATOM     23  C   UNL     1       0.706  11.714  19.926  0.00  0.00    +0.000 C 
BRANCH  23  24
ATOM     24  C   UNL     1       0.341  11.054  21.244  0.00  0.00    +0.000 A 
ATOM     25  C   UNL     1       1.084   9.962  21.720  0.00  0.00    +0.000 A 
ATOM     26  C   UNL     1       0.658   9.244  22.839  0.00  0.00    +0.000 A 
ATOM     27  C   UNL     1      -0.498   9.628  23.513  0.00  0.00    +0.000 A 
ATOM     28  C   UNL     1      -1.203  10.756  23.095  0.00  0.00    +0.000 A 
ATOM     29  C   UNL     1      -0.783  11.470  21.969  0.00  0.00    +0.000 A 
ENDBRANCH  23  24
ENDBRANCH  22  23
BRANCH  22  30
ATOM     30  C   UNL     1      -1.009  10.661  18.320  0.00  0.00    +0.000 C 
BRANCH  30  31
ATOM     31  O   UNL     1      -1.150   9.869  17.131  0.00  0.00    +0.000 OA
ATOM     32  H   UNL     1      -0.293   9.424  17.007  0.00  0.00    +0.000 HD
ENDBRANCH  30  31
BRANCH  30  33
ATOM     33  C   UNL     1      -1.648  12.057  18.108  0.00  0.00    +0.000 C 
BRANCH  33  34
ATOM     34  N   UNL     1      -2.984  12.232  18.699  0.00  0.00    +0.000 NA
ATOM     35  H   UNL     1      -3.279  13.197  18.548  0.00  0.00    +0.000 HD
BRANCH  34  36
ATOM     36  C   UNL     1      -4.002  11.313  18.189  0.00  0.00    +0.000 C 
ATOM     37  C   UNL     1      -5.458  11.674  18.125  0.00  0.00    +0.000 C 
ATOM     38  C   UNL     1      -4.639  11.659  16.870  0.00  0.00    +0.000 C 
ENDBRANCH  34  36
ENDBRANCH  33  34
ENDBRANCH  30  33
ENDBRANCH  22  30
ENDBRANCH   3  22
TORSDOF 14
ENDMDL
MODEL 8
REMARK VINA RESULT:      -7.5      1.494      2.337
REMARK  Name = 
REMARK  16 active torsions:
REMARK  status: ('A' for Active; 'I' for Inactive)
REMARK    1  A    between atoms: C_1  and  N_2
REMARK    2  A    between atoms: N_2  and  C_3
REMARK    3  A    between atoms: N_2  and  S_32
REMARK    4  A    between atoms: C_5  and  C_6
REMARK    5  A    between atoms: C_6  and  C_7
REMARK    6  A    between atoms: C_7  and  C_8
REMARK    7  A    between atoms: C_12  and  C_13
REMARK    8  A    between atoms: N_15  and  C_16
REMARK    9  A    between atoms: C_16  and  C_17
REMARK   10  A    between atoms: C_16  and  C_24
REMARK   11  A    between atoms: C_17  and  C_18
REMARK   12  A    between atoms: C_24  and  O_25
REMARK   13  A    between atoms: C_24  and  C_26
REMARK   14  A    between atoms: C_26  and  N_27
REMARK   15  A    between atoms: N_27  and  C_28
REMARK   16  A    between atoms: S_32  and  C_33
REMARK                            x       y       z     vdW  Elec       q    Type
REMARK                         _______ _______ _______ _____ _____    ______ ____
ROOT
ATOM      1  C   UNL     1       1.866   8.263  19.659  0.00  0.00    +0.000 C 
ATOM      2  O   UNL     1       1.688   8.128  20.863  0.00  0.00    +0.000 OA
ATOM      3  N   UNL     1       1.478   9.395  18.971  0.00  0.00    +0.000 N 
ATOM      4  H   UNL     1       1.427   9.354  17.960  0.00  0.00    +0.000 HD
ENDROOT
BRANCH   1   9
ATOM      5  C   UNL     1       4.148   6.155  17.462  0.00  0.00    +0.000 A 
ATOM      6  C   UNL     1       3.503   4.918  17.555  0.00  0.00    +0.000 A 
ATOM      7  C   UNL     1       2.331   4.791  18.306  0.00  0.00    +0.000 A 
ATOM      8  C   UNL     1       1.845   5.910  18.988  0.00  0.00    +0.000 A 
ATOM      9  C   UNL     1       2.489   7.152  18.904  0.00  0.00    +0.000 A 
ATOM     10  C   UNL     1       3.650   7.276  18.135  0.00  0.00    +0.000 A 
BRANCH   5  12
ATOM     11  C   UNL     1       5.214   6.422  15.213  0.00  0.00    +0.000 C 
ATOM     12  N   UNL     1       5.323   6.273  16.664  0.00  0.00    +0.000 N 
BRANCH  12  13
ATOM     13  S   UNL     1       6.834   6.073  17.379  0.00  0.00    +0.000 S 
ATOM     14  C   UNL     1       7.331   4.499  16.712  0.00  0.00    +0.000 C 
ATOM     15  O   UNL     1       7.748   7.077  16.878  0.00  0.00    +0.000 OA
ATOM     16  O   UNL     1       6.631   5.892  18.803  0.00  0.00    +0.000 OA
ENDBRANCH  12  13
ENDBRANCH   5  12
BRANCH   7  17
ATOM     17  C   UNL     1       1.542   3.507  18.331  0.00  0.00    +0.000 C 
BRANCH  17  18
ATOM     18  C   UNL     1       0.718   3.349  19.615  0.00  0.00    +0.000 C 
BRANCH  18  19
ATOM     19  C   UNL     1       1.534   3.518  20.867  0.00  0.00    +0.000 C 
ATOM     20  C   UNL     1       1.535   2.461  21.942  0.00  0.00    +0.000 C 
ATOM     21  C   UNL     1       2.758   2.667  21.096  0.00  0.00    +0.000 C 
ENDBRANCH  18  19
ENDBRANCH  17  18
ENDBRANCH   7  17
ENDBRANCH   1   9
BRANCH   3  22
ATOM     22  C   UNL     1       0.633  10.393  19.659  0.00  0.00    +0.000 C 
BRANCH  22  23
ATOM     23  C   UNL     1      -0.840   9.913  19.729  0.00  0.00    +0.000 C 
BRANCH  23  24
ATOM     24  C   UNL     1      -1.627  10.355  18.507  0.00  0.00    +0.000 A 
ATOM     25  C   UNL     1      -2.593  11.368  18.613  0.00  0.00    +0.000 A 
ATOM     26  C   UNL     1      -3.436  11.663  17.541  0.00  0.00    +0.000 A 
ATOM     27  C   UNL     1      -3.303  10.972  16.341  0.00  0.00    +0.000 A 
ATOM     28  C   UNL     1      -2.298  10.016  16.199  0.00  0.00    +0.000 A 
ATOM     29  C   UNL     1      -1.459   9.712  17.274  0.00  0.00    +0.000 A 
ENDBRANCH  23  24
ENDBRANCH  22  23
BRANCH  22  30
ATOM     30  C   UNL     1       0.757  11.803  19.018  0.00  0.00    +0.000 C 
BRANCH  30  31
ATOM     31  O   UNL     1       1.669  11.766  17.910  0.00  0.00    +0.000 OA
ATOM     32  H   UNL     1       1.137  11.975  17.122  0.00  0.00    +0.000 HD
ENDBRANCH  30  31
BRANCH  30  33
ATOM     33  C   UNL     1       1.206  12.879  20.040  0.00  0.00    +0.000 C 
BRANCH  33  34
ATOM     34  N   UNL     1       0.967  12.541  21.452  0.00  0.00    +0.000 NA
ATOM     35  H   UNL     1       1.808  12.766  21.983  0.00  0.00    +0.000 HD
BRANCH  34  36
ATOM     36  C   UNL     1      -0.194  13.203  22.050  0.00  0.00    +0.000 C 
ATOM     37  C   UNL     1      -1.576  13.089  21.473  0.00  0.00    +0.000 C 
ATOM     38  C   UNL     1      -1.220  12.322  22.711  0.00  0.00    +0.000 C 
ENDBRANCH  34  36
ENDBRANCH  33  34
ENDBRANCH  30  33
ENDBRANCH  22  30
ENDBRANCH   3  22
TORSDOF 14
ENDMDL
MODEL 9
REMARK VINA RESULT:      -7.5      2.160      3.332
REMARK  Name = 
REMARK  16 active torsions:
REMARK  status: ('A' for Active; 'I' for Inactive)
REMARK    1  A    between atoms: C_1  and  N_2
REMARK    2  A    between atoms: N_2  and  C_3
REMARK    3  A    between atoms: N_2  and  S_32
REMARK    4  A    between atoms: C_5  and  C_6
REMARK    5  A    between atoms: C_6  and  C_7
REMARK    6  A    between atoms: C_7  and  C_8
REMARK    7  A    between atoms: C_12  and  C_13
REMARK    8  A    between atoms: N_15  and  C_16
REMARK    9  A    between atoms: C_16  and  C_17
REMARK   10  A    between atoms: C_16  and  C_24
REMARK   11  A    between atoms: C_17  and  C_18
REMARK   12  A    between atoms: C_24  and  O_25
REMARK   13  A    between atoms: C_24  and  C_26
REMARK   14  A    between atoms: C_26  and  N_27
REMARK   15  A    between atoms: N_27  and  C_28
REMARK   16  A    between atoms: S_32  and  C_33
REMARK                            x       y       z     vdW  Elec       q    Type
REMARK                         _______ _______ _______ _____ _____    ______ ____
ROOT
ATOM      1  C   UNL     1       1.795   9.108  17.974  0.00  0.00    +0.000 C 
ATOM      2  O   UNL     1       2.387  10.140  17.684  0.00  0.00    +0.000 OA
ATOM      3  N   UNL     1       0.428   9.062  18.162  0.00  0.00    +0.000 N 
ATOM      4  H   UNL     1       0.030   8.256  18.630  0.00  0.00    +0.000 HD
ENDROOT
BRANCH   1   9
ATOM      5  C   UNL     1       4.276   6.249  17.595  0.00  0.00    +0.000 A 
ATOM      6  C   UNL     1       3.943   5.486  18.718  0.00  0.00    +0.000 A 
ATOM      7  C   UNL     1       2.909   5.895  19.566  0.00  0.00    +0.000 A 
ATOM      8  C   UNL     1       2.247   7.094  19.288  0.00  0.00    +0.000 A 
ATOM      9  C   UNL     1       2.579   7.868  18.166  0.00  0.00    +0.000 A 
ATOM     10  C   UNL     1       3.602   7.442  17.314  0.00  0.00    +0.000 A 
BRANCH   5  12
ATOM     11  C   UNL     1       5.048   4.726  15.767  0.00  0.00    +0.000 C 
ATOM     12  N   UNL     1       5.310   5.797  16.726  0.00  0.00    +0.000 N 
BRANCH  12  13
ATOM     13  S   UNL     1       6.875   6.389  16.921  0.00  0.00    +0.000 S 
ATOM     14  C   UNL     1       7.400   5.515  18.380  0.00  0.00    +0.000 C 
ATOM     15  O   UNL     1       7.703   5.952  15.818  0.00  0.00    +0.000 OA
ATOM     16  O   UNL     1       6.778   7.792  17.273  0.00  0.00    +0.000 OA
ENDBRANCH  12  13
ENDBRANCH   5  12
BRANCH   7  17
ATOM     17  C   UNL     1       2.440   5.039  20.715  0.00  0.00    +0.000 C 
BRANCH  17  18
ATOM     18  C   UNL     1       1.048   4.443  20.472  0.00  0.00    +0.000 C 
BRANCH  18  19
ATOM     19  C   UNL     1       1.070   2.955  20.253  0.00  0.00    +0.000 C 
ATOM     20  C   UNL     1       0.803   2.367  18.890  0.00  0.00    +0.000 C 
ATOM     21  C   UNL     1       2.188   2.320  19.466  0.00  0.00    +0.000 C 
ENDBRANCH  18  19
ENDBRANCH  17  18
ENDBRANCH   7  17
ENDBRANCH   1   9
BRANCH   3  22
ATOM     22  C   UNL     1      -0.327  10.331  18.225  0.00  0.00    +0.000 C 
BRANCH  22  23
ATOM     23  C   UNL     1      -0.799  10.622  19.673  0.00  0.00    +0.000 C 
BRANCH  23  24
ATOM     24  C   UNL     1      -0.478  12.048  20.086  0.00  0.00    +0.000 A 
ATOM     25  C   UNL     1       0.784  12.368  20.609  0.00  0.00    +0.000 A 
ATOM     26  C   UNL     1       1.033  13.632  21.147  0.00  0.00    +0.000 A 
ATOM     27  C   UNL     1       0.033  14.600  21.139  0.00  0.00    +0.000 A 
ATOM     28  C   UNL     1      -1.201  14.318  20.555  0.00  0.00    +0.000 A 
ATOM     29  C   UNL     1      -1.455  13.050  20.025  0.00  0.00    +0.000 A 
ENDBRANCH  23  24
ENDBRANCH  22  23
BRANCH  22  30
ATOM     30  C   UNL     1      -1.505  10.359  17.211  0.00  0.00    +0.000 C 
BRANCH  30  31
ATOM     31  O   UNL     1      -1.670  11.683  16.681  0.00  0.00    +0.000 OA
ATOM     32  H   UNL     1      -0.987  12.227  17.113  0.00  0.00    +0.000 HD
ENDBRANCH  30  31
BRANCH  30  33
ATOM     33  C   UNL     1      -2.835   9.868  17.839  0.00  0.00    +0.000 C 
BRANCH  33  34
ATOM     34  N   UNL     1      -4.055  10.448  17.257  0.00  0.00    +0.000 NA
ATOM     35  H   UNL     1      -4.635   9.688  16.902  0.00  0.00    +0.000 HD
BRANCH  34  36
ATOM     36  C   UNL     1      -4.832  11.282  18.175  0.00  0.00    +0.000 C 
ATOM     37  C   UNL     1      -5.832  12.295  17.696  0.00  0.00    +0.000 C 
ATOM     38  C   UNL     1      -6.306  10.998  18.278  0.00  0.00    +0.000 C 
ENDBRANCH  34  36
ENDBRANCH  33  34
ENDBRANCH  30  33
ENDBRANCH  22  30
ENDBRANCH   3  22
TORSDOF 14
ENDMDL
