MODEL 1
REMARK VINA RESULT:      -8.9      0.000      0.000
REMARK  Name = 
REMARK  3 active torsions:
REMARK  status: ('A' for Active; 'I' for Inactive)
REMARK    1  A    between atoms: C_7  and  C_8
REMARK    2  A    between atoms: C_11  and  N_12
REMARK    3  A    between atoms: N_12  and  C_13
REMARK                            x       y       z     vdW  Elec       q    Type
REMARK                         _______ _______ _______ _____ _____    ______ ____
ROOT
ATOM      1  C   UNL     1       1.710   7.602  19.946  0.00  0.00    +0.000 A 
ATOM      2  C   UNL     1       1.892   6.332  20.530  0.00  0.00    +0.000 A 
ATOM      3  C   UNL     1       2.615   5.274  19.884  0.00  0.00    +0.000 A 
ATOM      4  C   UNL     1       3.170   5.444  18.617  0.00  0.00    +0.000 A 
ATOM      5  C   UNL     1       2.956   6.711  18.024  0.00  0.00    +0.000 A 
ATOM      6  C   UNL     1       2.242   7.758  18.663  0.00  0.00    +0.000 A 
ENDROOT
BRANCH   1  13
ATOM      7  F   UNL     1      -2.151  12.315  23.961  0.00  0.00    +0.000 F 
ATOM      8  C   UNL     1      -1.341  11.832  23.009  0.00  0.00    +0.000 A 
ATOM      9  C   UNL     1      -0.866  12.702  22.036  0.00  0.00    +0.000 A 
ATOM     10  C   UNL     1      -0.012  12.236  21.023  0.00  0.00    +0.000 A 
ATOM     11  C   UNL     1       0.311  10.861  21.038  0.00  0.00    +0.000 A 
ATOM     12  N   UNL     1       1.087  10.069  20.207  0.00  0.00    +0.000 N 
ATOM     13  C   UNL     1       1.060   8.763  20.641  0.00  0.00    +0.000 A 
ATOM     14  N   UNL     1       0.310   8.703  21.751  0.00  0.00    +0.000 NA
ATOM     15  C   UNL     1      -0.159   9.986  21.997  0.00  0.00    +0.000 A 
ATOM     16  C   UNL     1      -0.999  10.475  23.015  0.00  0.00    +0.000 A 
ATOM     17  H   UNL     1       1.597  10.405  19.407  0.00  0.00    +0.000 HD
ENDBRANCH   1  13
BRANCH   4  18
ATOM     18  N   UNL     1       4.227   4.651  18.033  0.00  0.00    +0.000 N 
ATOM     19  H   UNL     1       3.986   4.866  17.049  0.00  0.00    +0.000 HD
BRANCH  18  20
ATOM     20  C   UNL     1       5.759   4.660  17.915  0.00  0.00    +0.000 A 
ATOM     21  C   UNL     1       6.066   4.149  16.651  0.00  0.00    +0.000 A 
ATOM     22  C   UNL     1       5.888   5.077  15.643  0.00  0.00    +0.000 A 
ATOM     23  N   UNL     1       5.787   6.409  15.911  0.00  0.00    +0.000 NA
ATOM     24  C   UNL     1       6.279   6.793  17.107  0.00  0.00    +0.000 A 
ATOM     25  C   UNL     1       6.880   8.033  17.239  0.00  0.00    +0.000 A 
ATOM     26  C   UNL     1       7.969   8.185  18.096  0.00  0.00    +0.000 A 
ATOM     27 CL   UNL     1       8.815   9.681  18.142  0.00  0.00    +0.000 Cl
ATOM     28  C   UNL     1       8.445   7.099  18.821  0.00  0.00    +0.000 A 
ATOM     29  C   UNL     1       7.685   5.926  18.845  0.00  0.00    +0.000 A 
ATOM     30  C   UNL     1       6.480   5.836  18.094  0.00  0.00    +0.000 A 
ENDBRANCH  18  20
ENDBRANCH   4  18
TORSDOF 3
ENDMDL
MODEL 2
REMARK VINA RESULT:      -8.8      0.540      1.219
REMARK  Name = 
REMARK  3 active torsions:
REMARK  status: ('A' for Active; 'I' for Inactive)
REMARK    1  A    between atoms: C_7  and  C_8
REMARK    2  A    between atoms: C_11  and  N_12
REMARK    3  A    between atoms: N_12  and  C_13
REMARK                            x       y       z     vdW  Elec       q    Type
REMARK                         _______ _______ _______ _____ _____    ______ ____
ROOT
ATOM      1  C   UNL     1       1.746   7.583  19.809  0.00  0.00    +0.000 A 
ATOM      2  C   UNL     1       1.950   6.332  20.425  0.00  0.00    +0.000 A 
ATOM      3  C   UNL     1       2.731   5.287  19.828  0.00  0.00    +0.000 A 
ATOM      4  C   UNL     1       3.326   5.452  18.578  0.00  0.00    +0.000 A 
ATOM      5  C   UNL     1       3.092   6.700  17.953  0.00  0.00    +0.000 A 
ATOM      6  C   UNL     1       2.318   7.733  18.543  0.00  0.00    +0.000 A 
ENDROOT
BRANCH   1  13
ATOM      7  F   UNL     1      -0.939  13.929  22.211  0.00  0.00    +0.000 F 
ATOM      8  C   UNL     1      -0.683  12.616  22.124  0.00  0.00    +0.000 A 
ATOM      9  C   UNL     1      -1.163  11.777  23.121  0.00  0.00    +0.000 A 
ATOM     10  C   UNL     1      -0.919  10.395  23.064  0.00  0.00    +0.000 A 
ATOM     11  C   UNL     1      -0.156   9.922  21.973  0.00  0.00    +0.000 A 
ATOM     12  N   UNL     1       0.285   8.659  21.612  0.00  0.00    +0.000 N 
ATOM     13  C   UNL     1       1.030   8.734  20.457  0.00  0.00    +0.000 A 
ATOM     14  N   UNL     1       1.051  10.010  20.049  0.00  0.00    +0.000 NA
ATOM     15  C   UNL     1       0.330  10.747  20.979  0.00  0.00    +0.000 A 
ATOM     16  C   UNL     1       0.060  12.128  21.043  0.00  0.00    +0.000 A 
ATOM     17  H   UNL     1       0.084   7.814  22.120  0.00  0.00    +0.000 HD
ENDBRANCH   1  13
BRANCH   4  18
ATOM     18  N   UNL     1       4.431   4.686  18.049  0.00  0.00    +0.000 N 
ATOM     19  H   UNL     1       4.234   4.894  17.054  0.00  0.00    +0.000 HD
BRANCH  18  20
ATOM     20  C   UNL     1       5.966   4.732  18.008  0.00  0.00    +0.000 A 
ATOM     21  C   UNL     1       6.351   4.174  16.786  0.00  0.00    +0.000 A 
ATOM     22  C   UNL     1       6.201   5.051  15.729  0.00  0.00    +0.000 A 
ATOM     23  N   UNL     1       6.051   6.390  15.930  0.00  0.00    +0.000 NA
ATOM     24  C   UNL     1       6.472   6.841  17.130  0.00  0.00    +0.000 A 
ATOM     25  C   UNL     1       7.032   8.102  17.234  0.00  0.00    +0.000 A 
ATOM     26  C   UNL     1       8.071   8.323  18.137  0.00  0.00    +0.000 A 
ATOM     27 CL   UNL     1       8.875   9.843  18.156  0.00  0.00    +0.000 Cl
ATOM     28  C   UNL     1       8.537   7.284  18.934  0.00  0.00    +0.000 A 
ATOM     29  C   UNL     1       7.808   6.093  18.975  0.00  0.00    +0.000 A 
ATOM     30  C   UNL     1       6.646   5.936  18.169  0.00  0.00    +0.000 A 
ENDBRANCH  18  20
ENDBRANCH   4  18
TORSDOF 3
ENDMDL
MODEL 3
REMARK VINA RESULT:      -8.5      3.147      4.597
REMARK  Name = 
REMARK  3 active torsions:
REMARK  status: ('A' for Active; 'I' for Inactive)
REMARK    1  A    between atoms: C_7  and  C_8
REMARK    2  A    between atoms: C_11  and  N_12
REMARK    3  A    between atoms: N_12  and  C_13
REMARK                            x       y       z     vdW  Elec       q    Type
REMARK                         _______ _______ _______ _____ _____    ______ ____
ROOT
ATOM      1  C   UNL     1       0.761   9.797  19.772  0.00  0.00    +0.000 A 
ATOM      2  C   UNL     1       1.176   9.982  18.437  0.00  0.00    +0.000 A 
ATOM      3  C   UNL     1       2.043   9.064  17.756  0.00  0.00    +0.000 A 
ATOM      4  C   UNL     1       2.543   7.931  18.394  0.00  0.00    +0.000 A 
ATOM      5  C   UNL     1       2.147   7.768  19.743  0.00  0.00    +0.000 A 
ATOM      6  C   UNL     1       1.290   8.675  20.417  0.00  0.00    +0.000 A 
ENDROOT
BRANCH   1  13
ATOM      7  F   UNL     1      -3.905  13.236  24.203  0.00  0.00    +0.000 F 
ATOM      8  C   UNL     1      -3.248  12.877  23.092  0.00  0.00    +0.000 A 
ATOM      9  C   UNL     1      -3.641  13.429  21.879  0.00  0.00    +0.000 A 
ATOM     10  C   UNL     1      -2.976  13.081  20.692  0.00  0.00    +0.000 A 
ATOM     11  C   UNL     1      -1.925  12.143  20.796  0.00  0.00    +0.000 A 
ATOM     12  N   UNL     1      -1.084  11.566  19.858  0.00  0.00    +0.000 N 
ATOM     13  C   UNL     1      -0.233  10.675  20.474  0.00  0.00    +0.000 A 
ATOM     14  N   UNL     1      -0.487  10.690  21.790  0.00  0.00    +0.000 NA
ATOM     15  C   UNL     1      -1.529  11.584  21.995  0.00  0.00    +0.000 A 
ATOM     16  C   UNL     1      -2.196  11.958  23.177  0.00  0.00    +0.000 A 
ATOM     17  H   UNL     1      -1.093  11.775  18.874  0.00  0.00    +0.000 HD
ENDBRANCH   1  13
BRANCH   4  18
ATOM     18  N   UNL     1       3.071   6.749  17.750  0.00  0.00    +0.000 N 
ATOM     19  H   UNL     1       3.940   6.706  18.311  0.00  0.00    +0.000 HD
BRANCH  18  20
ATOM     20  C   UNL     1       2.770   5.246  17.651  0.00  0.00    +0.000 A 
ATOM     21  C   UNL     1       3.959   4.625  17.261  0.00  0.00    +0.000 A 
ATOM     22  C   UNL     1       4.850   4.475  18.306  0.00  0.00    +0.000 A 
ATOM     23  N   UNL     1       4.451   4.585  19.604  0.00  0.00    +0.000 NA
ATOM     24  C   UNL     1       3.128   4.426  19.813  0.00  0.00    +0.000 A 
ATOM     25  C   UNL     1       2.681   3.829  20.979  0.00  0.00    +0.000 A 
ATOM     26  C   UNL     1       1.550   3.014  20.949  0.00  0.00    +0.000 A 
ATOM     27 CL   UNL     1       1.088   2.146  22.359  0.00  0.00    +0.000 Cl
ATOM     28  C   UNL     1       0.870   2.807  19.754  0.00  0.00    +0.000 A 
ATOM     29  C   UNL     1       1.202   3.597  18.650  0.00  0.00    +0.000 A 
ATOM     30  C   UNL     1       2.254   4.550  18.740  0.00  0.00    +0.000 A 
ENDBRANCH  18  20
ENDBRANCH   4  18
TORSDOF 3
ENDMDL
MODEL 4
REMARK VINA RESULT:      -8.5      5.506      7.747
REMARK  Name = 
REMARK  3 active torsions:
REMARK  status: ('A' for Active; 'I' for Inactive)
REMARK    1  A    between atoms: C_7  and  C_8
REMARK    2  A    between atoms: C_11  and  N_12
REMARK    3  A    between atoms: N_12  and  C_13
REMARK                            x       y       z     vdW  Elec       q    Type
REMARK                         _______ _______ _______ _____ _____    ______ ____
ROOT
ATOM      1  C   UNL     1       6.323   6.282  18.083  0.00  0.00    +0.000 A 
ATOM      2  C   UNL     1       7.520   6.295  18.828  0.00  0.00    +0.000 A 
ATOM      3  C   UNL     1       8.449   7.388  18.792  0.00  0.00    +0.000 A 
ATOM      4  C   UNL     1       8.220   8.506  17.993  0.00  0.00    +0.000 A 
ATOM      5  C   UNL     1       7.033   8.473  17.224  0.00  0.00    +0.000 A 
ATOM      6  C   UNL     1       6.114   7.392  17.259  0.00  0.00    +0.000 A 
ENDROOT
BRANCH   1  13
ATOM      7  F   UNL     1       0.386   2.053  18.408  0.00  0.00    +0.000 F 
ATOM      8  C   UNL     1       1.662   2.451  18.506  0.00  0.00    +0.000 A 
ATOM      9  C   UNL     1       2.590   1.580  19.065  0.00  0.00    +0.000 A 
ATOM     10  C   UNL     1       3.937   1.958  19.182  0.00  0.00    +0.000 A 
ATOM     11  C   UNL     1       4.283   3.252  18.731  0.00  0.00    +0.000 A 
ATOM     12  N   UNL     1       5.479   3.951  18.709  0.00  0.00    +0.000 N 
ATOM     13  C   UNL     1       5.279   5.208  18.186  0.00  0.00    +0.000 A 
ATOM     14  N   UNL     1       3.989   5.322  17.841  0.00  0.00    +0.000 NA
ATOM     15  C   UNL     1       3.369   4.127  18.178  0.00  0.00    +0.000 A 
ATOM     16  C   UNL     1       2.026   3.724  18.052  0.00  0.00    +0.000 A 
ATOM     17  H   UNL     1       6.362   3.587  19.026  0.00  0.00    +0.000 HD
ENDBRANCH   1  13
BRANCH   4  18
ATOM     18  N   UNL     1       8.826   9.809  18.150  0.00  0.00    +0.000 N 
ATOM     19  H   UNL     1       7.947  10.304  18.383  0.00  0.00    +0.000 HD
BRANCH  18  20
ATOM     20  C   UNL     1       9.778  10.541  19.108  0.00  0.00    +0.000 A 
ATOM     21  C   UNL     1      10.868  10.964  18.343  0.00  0.00    +0.000 A 
ATOM     22  C   UNL     1      10.592  12.095  17.601  0.00  0.00    +0.000 A 
ATOM     23  N   UNL     1       9.519  12.886  17.881  0.00  0.00    +0.000 NA
ATOM     24  C   UNL     1       9.017  12.753  19.126  0.00  0.00    +0.000 A 
ATOM     25  C   UNL     1       8.481  13.852  19.774  0.00  0.00    +0.000 A 
ATOM     26  C   UNL     1       8.638  13.986  21.153  0.00  0.00    +0.000 A 
ATOM     27 CL   UNL     1       8.115  15.424  21.935  0.00  0.00    +0.000 Cl
ATOM     28  C   UNL     1       9.324  13.015  21.874  0.00  0.00    +0.000 A 
ATOM     29  C   UNL     1       9.650  11.814  21.239  0.00  0.00    +0.000 A 
ATOM     30  C   UNL     1       9.335  11.621  19.865  0.00  0.00    +0.000 A 
ENDBRANCH  18  20
ENDBRANCH   4  18
TORSDOF 3
ENDMDL
MODEL 5
REMARK VINA RESULT:      -8.4      5.006      7.624
REMARK  Name = 
REMARK  3 active torsions:
REMARK  status: ('A' for Active; 'I' for Inactive)
REMARK    1  A    between atoms: C_7  and  C_8
REMARK    2  A    between atoms: C_11  and  N_12
REMARK    3  A    between atoms: N_12  and  C_13
REMARK                            x       y       z     vdW  Elec       q    Type
REMARK                         _______ _______ _______ _____ _____    ______ ____
ROOT
ATOM      1  C   UNL     1       7.764   7.319  17.817  0.00  0.00    +0.000 A 
ATOM      2  C   UNL     1       7.219   7.021  16.551  0.00  0.00    +0.000 A 
ATOM      3  C   UNL     1       6.623   5.754  16.238  0.00  0.00    +0.000 A 
ATOM      4  C   UNL     1       6.566   4.728  17.179  0.00  0.00    +0.000 A 
ATOM      5  C   UNL     1       7.143   5.023  18.437  0.00  0.00    +0.000 A 
ATOM      6  C   UNL     1       7.733   6.276  18.747  0.00  0.00    +0.000 A 
ENDROOT
BRANCH   1  13
ATOM      7  F   UNL     1      10.163  14.181  18.450  0.00  0.00    +0.000 F 
ATOM      8  C   UNL     1       9.903  12.900  18.746  0.00  0.00    +0.000 A 
ATOM      9  C   UNL     1      10.398  12.377  19.934  0.00  0.00    +0.000 A 
ATOM     10  C   UNL     1      10.145  11.041  20.282  0.00  0.00    +0.000 A 
ATOM     11  C   UNL     1       9.396  10.269  19.365  0.00  0.00    +0.000 A 
ATOM     12  N   UNL     1       8.984   8.947  19.368  0.00  0.00    +0.000 N 
ATOM     13  C   UNL     1       8.291   8.668  18.210  0.00  0.00    +0.000 A 
ATOM     14  N   UNL     1       8.221   9.790  17.480  0.00  0.00    +0.000 NA
ATOM     15  C   UNL     1       8.903  10.776  18.179  0.00  0.00    +0.000 A 
ATOM     16  C   UNL     1       9.152  12.124  17.856  0.00  0.00    +0.000 A 
ATOM     17  H   UNL     1       9.162   8.291  20.110  0.00  0.00    +0.000 HD
ENDBRANCH   1  13
BRANCH   4  18
ATOM     18  N   UNL     1       5.674   3.591  17.152  0.00  0.00    +0.000 N 
ATOM     19  H   UNL     1       6.073   3.127  17.987  0.00  0.00    +0.000 HD
BRANCH  18  20
ATOM     20  C   UNL     1       4.189   3.271  17.383  0.00  0.00    +0.000 A 
ATOM     21  C   UNL     1       4.138   1.995  17.949  0.00  0.00    +0.000 A 
ATOM     22  C   UNL     1       4.446   1.996  19.296  0.00  0.00    +0.000 A 
ATOM     23  N   UNL     1       4.430   3.143  20.029  0.00  0.00    +0.000 NA
ATOM     24  C   UNL     1       3.713   4.155  19.496  0.00  0.00    +0.000 A 
ATOM     25  C   UNL     1       3.037   5.032  20.325  0.00  0.00    +0.000 A 
ATOM     26  C   UNL     1       1.806   5.552  19.925  0.00  0.00    +0.000 A 
ATOM     27 CL   UNL     1       0.891   6.513  21.018  0.00  0.00    +0.000 Cl
ATOM     28  C   UNL     1       1.265   5.196  18.695  0.00  0.00    +0.000 A 
ATOM     29  C   UNL     1       2.067   4.499  17.787  0.00  0.00    +0.000 A 
ATOM     30  C   UNL     1       3.389   4.116  18.145  0.00  0.00    +0.000 A 
ENDBRANCH  18  20
ENDBRANCH   4  18
TORSDOF 3
ENDMDL
MODEL 6
REMARK VINA RESULT:      -8.4      2.942      3.764
REMARK  Name = 
REMARK  3 active torsions:
REMARK  status: ('A' for Active; 'I' for Inactive)
REMARK    1  A    between atoms: C_7  and  C_8
REMARK    2  A    between atoms: C_11  and  N_12
REMARK    3  A    between atoms: N_12  and  C_13
REMARK                            x       y       z     vdW  Elec       q    Type
REMARK                         _______ _______ _______ _____ _____    ______ ____
ROOT
ATOM      1  C   UNL     1       1.601   8.879  19.243  0.00  0.00    +0.000 A 
ATOM      2  C   UNL     1       1.328   8.157  20.423  0.00  0.00    +0.000 A 
ATOM      3  C   UNL     1       1.674   6.774  20.589  0.00  0.00    +0.000 A 
ATOM      4  C   UNL     1       2.294   6.056  19.569  0.00  0.00    +0.000 A 
ATOM      5  C   UNL     1       2.537   6.778  18.376  0.00  0.00    +0.000 A 
ATOM      6  C   UNL     1       2.195   8.145  18.212  0.00  0.00    +0.000 A 
ENDROOT
BRANCH   1  13
ATOM      7  F   UNL     1       1.699  16.097  18.180  0.00  0.00    +0.000 F 
ATOM      8  C   UNL     1       1.277  14.878  18.542  0.00  0.00    +0.000 A 
ATOM      9  C   UNL     1       0.065  14.765  19.211  0.00  0.00    +0.000 A 
ATOM     10  C   UNL     1      -0.415  13.505  19.604  0.00  0.00    +0.000 A 
ATOM     11  C   UNL     1       0.397  12.388  19.306  0.00  0.00    +0.000 A 
ATOM     12  N   UNL     1       0.256  11.032  19.554  0.00  0.00    +0.000 N 
ATOM     13  C   UNL     1       1.355  10.351  19.080  0.00  0.00    +0.000 A 
ATOM     14  N   UNL     1       2.183  11.233  18.505  0.00  0.00    +0.000 NA
ATOM     15  C   UNL     1       1.605  12.488  18.646  0.00  0.00    +0.000 A 
ATOM     16  C   UNL     1       2.061  13.758  18.243  0.00  0.00    +0.000 A 
ATOM     17  H   UNL     1      -0.536  10.610  20.009  0.00  0.00    +0.000 HD
ENDBRANCH   1  13
BRANCH   4  18
ATOM     18  N   UNL     1       3.042   4.829  19.719  0.00  0.00    +0.000 N 
ATOM     19  H   UNL     1       2.534   4.306  18.985  0.00  0.00    +0.000 HD
BRANCH  18  20
ATOM     20  C   UNL     1       4.459   4.291  19.464  0.00  0.00    +0.000 A 
ATOM     21  C   UNL     1       4.402   2.908  19.657  0.00  0.00    +0.000 A 
ATOM     22  C   UNL     1       3.851   2.241  18.580  0.00  0.00    +0.000 A 
ATOM     23  N   UNL     1       3.733   2.835  17.359  0.00  0.00    +0.000 NA
ATOM     24  C   UNL     1       4.537   3.900  17.159  0.00  0.00    +0.000 A 
ATOM     25  C   UNL     1       5.050   4.148  15.897  0.00  0.00    +0.000 A 
ATOM     26  C   UNL     1       6.334   4.675  15.765  0.00  0.00    +0.000 A 
ATOM     27 CL   UNL     1       7.033   4.835  14.203  0.00  0.00    +0.000 Cl
ATOM     28  C   UNL     1       7.093   4.957  16.895  0.00  0.00    +0.000 A 
ATOM     29  C   UNL     1       6.472   4.915  18.147  0.00  0.00    +0.000 A 
ATOM     30  C   UNL     1       5.105   4.534  18.256  0.00  0.00    +0.000 A 
ENDBRANCH  18  20
ENDBRANCH   4  18
TORSDOF 3
ENDMDL
MODEL 7
REMARK VINA RESULT:      -8.3      4.924     10.667
REMARK  Name = 
REMARK  3 active torsions:
REMARK  status: ('A' for Active; 'I' for Inactive)
REMARK    1  A    between atoms: C_7  and  C_8
REMARK    2  A    between atoms: C_11  and  N_12
REMARK    3  A    between atoms: N_12  and  C_13
REMARK                            x       y       z     vdW  Elec       q    Type
REMARK                         _______ _______ _______ _____ _____    ______ ____
ROOT
ATOM      1  C   UNL     1       1.387   8.488  20.506  0.00  0.00    +0.000 A 
ATOM      2  C   UNL     1       1.048   8.576  21.872  0.00  0.00    +0.000 A 
ATOM      3  C   UNL     1       0.228   9.625  22.405  0.00  0.00    +0.000 A 
ATOM      4  C   UNL     1      -0.272  10.639  21.590  0.00  0.00    +0.000 A 
ATOM      5  C   UNL     1       0.098  10.561  20.226  0.00  0.00    +0.000 A 
ATOM      6  C   UNL     1       0.910   9.523  19.698  0.00  0.00    +0.000 A 
ENDROOT
BRANCH   1  13
ATOM      7  F   UNL     1       4.890   3.566  16.414  0.00  0.00    +0.000 F 
ATOM      8  C   UNL     1       4.281   4.134  17.463  0.00  0.00    +0.000 A 
ATOM      9  C   UNL     1       4.080   3.373  18.608  0.00  0.00    +0.000 A 
ATOM     10  C   UNL     1       3.449   3.933  19.730  0.00  0.00    +0.000 A 
ATOM     11  C   UNL     1       3.021   5.275  19.624  0.00  0.00    +0.000 A 
ATOM     12  N   UNL     1       2.363   6.123  20.500  0.00  0.00    +0.000 N 
ATOM     13  C   UNL     1       2.147   7.343  19.899  0.00  0.00    +0.000 A 
ATOM     14  N   UNL     1       2.679   7.309  18.670  0.00  0.00    +0.000 NA
ATOM     15  C   UNL     1       3.212   6.040  18.491  0.00  0.00    +0.000 A 
ATOM     16  C   UNL     1       3.862   5.467  17.381  0.00  0.00    +0.000 A 
ATOM     17  H   UNL     1       2.090   5.881  21.438  0.00  0.00    +0.000 HD
ENDBRANCH   1  13
BRANCH   4  18
ATOM     18  N   UNL     1      -1.397  11.497  21.884  0.00  0.00    +0.000 N 
ATOM     19  H   UNL     1      -2.115  10.756  21.808  0.00  0.00    +0.000 HD
BRANCH  18  20
ATOM     20  C   UNL     1      -1.982  12.283  23.067  0.00  0.00    +0.000 A 
ATOM     21  C   UNL     1      -1.444  13.571  22.997  0.00  0.00    +0.000 A 
ATOM     22  C   UNL     1      -2.063  14.357  22.045  0.00  0.00    +0.000 A 
ATOM     23  N   UNL     1      -3.275  14.020  21.522  0.00  0.00    +0.000 NA
ATOM     24  C   UNL     1      -3.998  13.153  22.261  0.00  0.00    +0.000 A 
ATOM     25  C   UNL     1      -5.379  13.253  22.285  0.00  0.00    +0.000 A 
ATOM     26  C   UNL     1      -6.072  12.965  23.461  0.00  0.00    +0.000 A 
ATOM     27 CL   UNL     1      -7.766  13.241  23.540  0.00  0.00    +0.000 Cl
ATOM     28  C   UNL     1      -5.380  12.571  24.600  0.00  0.00    +0.000 A 
ATOM     29  C   UNL     1      -4.023  12.257  24.485  0.00  0.00    +0.000 A 
ATOM     30  C   UNL     1      -3.358  12.397  23.235  0.00  0.00    +0.000 A 
ENDBRANCH  18  20
ENDBRANCH   4  18
TORSDOF 3
ENDMDL
MODEL 8
REMARK VINA RESULT:      -8.3      3.181      4.663
REMARK  Name = 
REMARK  3 active torsions:
REMARK  status: ('A' for Active; 'I' for Inactive)
REMARK    1  A    between atoms: C_7  and  C_8
REMARK    2  A    between atoms: C_11  and  N_12
REMARK    3  A    between atoms: N_12  and  C_13
REMARK                            x       y       z     vdW  Elec       q    Type
REMARK                         _______ _______ _______ _____ _____    ______ ____
ROOT
ATOM      1  C   UNL     1       0.863   9.648  19.621  0.00  0.00    +0.000 A 
ATOM      2  C   UNL     1       1.303   9.830  18.294  0.00  0.00    +0.000 A 
ATOM      3  C   UNL     1       2.175   8.906  17.628  0.00  0.00    +0.000 A 
ATOM      4  C   UNL     1       2.654   7.768  18.274  0.00  0.00    +0.000 A 
ATOM      5  C   UNL     1       2.233   7.608  19.616  0.00  0.00    +0.000 A 
ATOM      6  C   UNL     1       1.371   8.522  20.275  0.00  0.00    +0.000 A 
ENDROOT
BRANCH   1  13
ATOM      7  F   UNL     1      -4.076  14.566  21.780  0.00  0.00    +0.000 F 
ATOM      8  C   UNL     1      -3.149  13.599  21.829  0.00  0.00    +0.000 A 
ATOM      9  C   UNL     1      -2.707  13.163  23.071  0.00  0.00    +0.000 A 
ATOM     10  C   UNL     1      -1.741  12.150  23.165  0.00  0.00    +0.000 A 
ATOM     11  C   UNL     1      -1.238  11.627  21.953  0.00  0.00    +0.000 A 
ATOM     12  N   UNL     1      -0.288  10.659  21.669  0.00  0.00    +0.000 N 
ATOM     13  C   UNL     1      -0.137  10.534  20.306  0.00  0.00    +0.000 A 
ATOM     14  N   UNL     1      -0.991  11.375  19.708  0.00  0.00    +0.000 NA
ATOM     15  C   UNL     1      -1.666  12.055  20.712  0.00  0.00    +0.000 A 
ATOM     16  C   UNL     1      -2.650  13.060  20.638  0.00  0.00    +0.000 A 
ATOM     17  H   UNL     1       0.212  10.125  22.360  0.00  0.00    +0.000 HD
ENDBRANCH   1  13
BRANCH   4  18
ATOM     18  N   UNL     1       3.184   6.583  17.640  0.00  0.00    +0.000 N 
ATOM     19  H   UNL     1       4.084   6.586  18.151  0.00  0.00    +0.000 HD
BRANCH  18  20
ATOM     20  C   UNL     1       2.928   5.069  17.605  0.00  0.00    +0.000 A 
ATOM     21  C   UNL     1       4.155   4.462  17.324  0.00  0.00    +0.000 A 
ATOM     22  C   UNL     1       4.982   4.394  18.429  0.00  0.00    +0.000 A 
ATOM     23  N   UNL     1       4.498   4.562  19.691  0.00  0.00    +0.000 NA
ATOM     24  C   UNL     1       3.169   4.376  19.826  0.00  0.00    +0.000 A 
ATOM     25  C   UNL     1       2.664   3.830  20.994  0.00  0.00    +0.000 A 
ATOM     26  C   UNL     1       1.559   2.982  20.939  0.00  0.00    +0.000 A 
ATOM     27 CL   UNL     1       1.030   2.178  22.363  0.00  0.00    +0.000 Cl
ATOM     28  C   UNL     1       0.961   2.693  19.718  0.00  0.00    +0.000 A 
ATOM     29  C   UNL     1       1.342   3.432  18.594  0.00  0.00    +0.000 A 
ATOM     30  C   UNL     1       2.362   4.418  18.696  0.00  0.00    +0.000 A 
ENDBRANCH  18  20
ENDBRANCH   4  18
TORSDOF 3
ENDMDL
MODEL 9
REMARK VINA RESULT:      -8.3      6.139      9.813
REMARK  Name = 
REMARK  3 active torsions:
REMARK  status: ('A' for Active; 'I' for Inactive)
REMARK    1  A    between atoms: C_7  and  C_8
REMARK    2  A    between atoms: C_11  and  N_12
REMARK    3  A    between atoms: N_12  and  C_13
REMARK                            x       y       z     vdW  Elec       q    Type
REMARK                         _______ _______ _______ _____ _____    ______ ____
ROOT
ATOM      1  C   UNL     1       9.015  10.056  18.796  0.00  0.00    +0.000 A 
ATOM      2  C   UNL     1       9.323  10.372  20.135  0.00  0.00    +0.000 A 
ATOM      3  C   UNL     1       9.832  11.652  20.536  0.00  0.00    +0.000 A 
ATOM      4  C   UNL     1      10.067  12.662  19.604  0.00  0.00    +0.000 A 
ATOM      5  C   UNL     1       9.785  12.327  18.259  0.00  0.00    +0.000 A 
ATOM      6  C   UNL     1       9.282  11.060  17.862  0.00  0.00    +0.000 A 
ENDROOT
BRANCH   1  13
ATOM      7  F   UNL     1       5.050   4.581  16.047  0.00  0.00    +0.000 F 
ATOM      8  C   UNL     1       5.942   5.245  16.795  0.00  0.00    +0.000 A 
ATOM      9  C   UNL     1       6.626   4.553  17.787  0.00  0.00    +0.000 A 
ATOM     10  C   UNL     1       7.571   5.211  18.589  0.00  0.00    +0.000 A 
ATOM     11  C   UNL     1       7.766   6.590  18.352  0.00  0.00    +0.000 A 
ATOM     12  N   UNL     1       8.580   7.540  18.948  0.00  0.00    +0.000 N 
ATOM     13  C   UNL     1       8.376   8.768  18.361  0.00  0.00    +0.000 A 
ATOM     14  N   UNL     1       7.474   8.623  17.380  0.00  0.00    +0.000 NA
ATOM     15  C   UNL     1       7.089   7.290  17.373  0.00  0.00    +0.000 A 
ATOM     16  C   UNL     1       6.158   6.608  16.566  0.00  0.00    +0.000 A 
ATOM     17  H   UNL     1       9.227   7.354  19.696  0.00  0.00    +0.000 HD
ENDBRANCH   1  13
BRANCH   4  18
ATOM     18  N   UNL     1      10.184  14.075  19.885  0.00  0.00    +0.000 N 
ATOM     19  H   UNL     1      10.530  14.338  18.946  0.00  0.00    +0.000 HD
BRANCH  18  20
ATOM     20  C   UNL     1       9.278  15.285  20.160  0.00  0.00    +0.000 A 
ATOM     21  C   UNL     1       9.884  16.385  19.549  0.00  0.00    +0.000 A 
ATOM     22  C   UNL     1       9.678  16.419  18.183  0.00  0.00    +0.000 A 
ATOM     23  N   UNL     1       8.700  15.676  17.593  0.00  0.00    +0.000 NA
ATOM     24  C   UNL     1       7.716  15.263  18.418  0.00  0.00    +0.000 A 
ATOM     25  C   UNL     1       6.420  15.155  17.945  0.00  0.00    +0.000 A 
ATOM     26  C   UNL     1       5.350  15.461  18.786  0.00  0.00    +0.000 A 
ATOM     27 CL   UNL     1       3.750  15.483  18.157  0.00  0.00    +0.000 Cl
ATOM     28  C   UNL     1       5.584  15.863  20.096  0.00  0.00    +0.000 A 
ATOM     29  C   UNL     1       6.877  15.741  20.613  0.00  0.00    +0.000 A 
ATOM     30  C   UNL     1       7.937  15.268  19.790  0.00  0.00    +0.000 A 
ENDBRANCH  18  20
ENDBRANCH   4  18
TORSDOF 3
ENDMDL
