MODEL 1
REMARK VINA RESULT:      -7.6      0.000      0.000
REMARK  Name = 
REMARK  5 active torsions:
REMARK  status: ('A' for Active; 'I' for Inactive)
REMARK    1  A    between atoms: C_1  and  C_2
REMARK    2  A    between atoms: C_5  and  S_6
REMARK    3  A    between atoms: S_6  and  C_7
REMARK    4  A    between atoms: N_9  and  C_10
REMARK    5  A    between atoms: C_13  and  C_15
REMARK                            x       y       z     vdW  Elec       q    Type
REMARK                         _______ _______ _______ _____ _____    ______ ____
ROOT
ATOM      1  C   UNL     1       2.017   7.787  19.489  0.00  0.00    +0.000 C 
ATOM      2  O   UNL     1       1.765   7.170  20.515  0.00  0.00    +0.000 OA
ATOM      3  N   UNL     1       1.423   8.970  19.143  0.00  0.00    +0.000 N 
ATOM      4  C   UNL     1       0.688   9.754  20.013  0.00  0.00    +0.000 C 
ATOM      5  O   UNL     1       0.309   9.378  21.116  0.00  0.00    +0.000 OA
ATOM      6  H   UNL     1       1.656   9.278  18.214  0.00  0.00    +0.000 HD
ENDROOT
BRANCH   4   7
ATOM      7  C   UNL     1       0.275  11.109  19.545  0.00  0.00    +0.000 A 
ATOM      8  C   UNL     1       0.957  12.244  20.001  0.00  0.00    +0.000 A 
ATOM      9  F   UNL     1       1.924  12.135  20.925  0.00  0.00    +0.000 F 
ATOM     10  C   UNL     1       0.664  13.521  19.521  0.00  0.00    +0.000 A 
ATOM     11  C   UNL     1      -0.312  13.690  18.545  0.00  0.00    +0.000 A 
ATOM     12  C   UNL     1      -1.015  12.579  18.085  0.00  0.00    +0.000 A 
ATOM     13  C   UNL     1      -0.741  11.298  18.592  0.00  0.00    +0.000 A 
ATOM     14 CL   UNL     1      -1.788  10.038  18.033  0.00  0.00    +0.000 Cl
ENDBRANCH   4   7
BRANCH   1  18
ATOM     15  S   UNL     1       3.278   5.775  18.633  0.00  0.00    +0.000 S 
ATOM     16  C   UNL     1       1.858   4.745  18.309  0.00  0.00    +0.000 C 
ATOM     17  O   UNL     1       3.942   5.223  19.805  0.00  0.00    +0.000 OA
ATOM     18  N   UNL     1       2.857   7.260  18.499  0.00  0.00    +0.000 NA
BRANCH  15  23
ATOM     19  C   UNL     1       6.813   4.427  13.848  0.00  0.00    +0.000 C 
ATOM     20  C   UNL     1       5.939   4.767  15.022  0.00  0.00    +0.000 A 
ATOM     21  C   UNL     1       5.591   6.097  15.300  0.00  0.00    +0.000 A 
ATOM     22  C   UNL     1       4.797   6.411  16.408  0.00  0.00    +0.000 A 
ATOM     23  C   UNL     1       4.346   5.389  17.245  0.00  0.00    +0.000 A 
ATOM     24  C   UNL     1       4.673   4.057  16.970  0.00  0.00    +0.000 A 
ATOM     25  C   UNL     1       5.469   3.751  15.863  0.00  0.00    +0.000 A 
ENDBRANCH  15  23
ENDBRANCH   1  18
TORSDOF 3
ENDMDL
MODEL 2
REMARK VINA RESULT:      -7.6      3.398      8.431
REMARK  Name = 
REMARK  5 active torsions:
REMARK  status: ('A' for Active; 'I' for Inactive)
REMARK    1  A    between atoms: C_1  and  C_2
REMARK    2  A    between atoms: C_5  and  S_6
REMARK    3  A    between atoms: S_6  and  C_7
REMARK    4  A    between atoms: N_9  and  C_10
REMARK    5  A    between atoms: C_13  and  C_15
REMARK                            x       y       z     vdW  Elec       q    Type
REMARK                         _______ _______ _______ _____ _____    ______ ____
ROOT
ATOM      1  C   UNL     1       2.218   8.213  17.834  0.00  0.00    +0.000 C 
ATOM      2  O   UNL     1       3.264   8.848  17.806  0.00  0.00    +0.000 OA
ATOM      3  N   UNL     1       2.154   6.848  17.896  0.00  0.00    +0.000 N 
ATOM      4  C   UNL     1       3.225   6.033  18.213  0.00  0.00    +0.000 C 
ATOM      5  O   UNL     1       4.386   6.421  18.261  0.00  0.00    +0.000 OA
ATOM      6  H   UNL     1       1.221   6.486  17.789  0.00  0.00    +0.000 HD
ENDROOT
BRANCH   4   7
ATOM      7  C   UNL     1       2.951   4.584  18.437  0.00  0.00    +0.000 A 
ATOM      8  C   UNL     1       3.396   3.636  17.507  0.00  0.00    +0.000 A 
ATOM      9  F   UNL     1       3.992   4.023  16.369  0.00  0.00    +0.000 F 
ATOM     10  C   UNL     1       3.242   2.265  17.721  0.00  0.00    +0.000 A 
ATOM     11  C   UNL     1       2.653   1.808  18.895  0.00  0.00    +0.000 A 
ATOM     12  C   UNL     1       2.189   2.730  19.830  0.00  0.00    +0.000 A 
ATOM     13  C   UNL     1       2.316   4.110  19.598  0.00  0.00    +0.000 A 
ATOM     14 CL   UNL     1       1.568   5.133  20.777  0.00  0.00    +0.000 Cl
ENDBRANCH   4   7
BRANCH   1  18
ATOM     15  S   UNL     1       0.524   9.835  18.770  0.00  0.00    +0.000 S 
ATOM     16  C   UNL     1       1.536  11.300  18.660  0.00  0.00    +0.000 C 
ATOM     17  O   UNL     1       0.424   9.496  20.182  0.00  0.00    +0.000 OA
ATOM     18  N   UNL     1       0.973   8.836  17.673  0.00  0.00    +0.000 NA
BRANCH  15  23
ATOM     19  C   UNL     1      -5.023  11.853  17.236  0.00  0.00    +0.000 C 
ATOM     20  C   UNL     1      -3.659  11.358  17.623  0.00  0.00    +0.000 A 
ATOM     21  C   UNL     1      -3.013  11.847  18.767  0.00  0.00    +0.000 A 
ATOM     22  C   UNL     1      -1.732  11.401  19.111  0.00  0.00    +0.000 A 
ATOM     23  C   UNL     1      -1.091  10.458  18.305  0.00  0.00    +0.000 A 
ATOM     24  C   UNL     1      -1.731   9.950  17.169  0.00  0.00    +0.000 A 
ATOM     25  C   UNL     1      -3.009  10.403  16.831  0.00  0.00    +0.000 A 
ENDBRANCH  15  23
ENDBRANCH   1  18
TORSDOF 3
ENDMDL
MODEL 3
REMARK VINA RESULT:      -7.6      3.728      8.814
REMARK  Name = 
REMARK  5 active torsions:
REMARK  status: ('A' for Active; 'I' for Inactive)
REMARK    1  A    between atoms: C_1  and  C_2
REMARK    2  A    between atoms: C_5  and  S_6
REMARK    3  A    between atoms: S_6  and  C_7
REMARK    4  A    between atoms: N_9  and  C_10
REMARK    5  A    between atoms: C_13  and  C_15
REMARK                            x       y       z     vdW  Elec       q    Type
REMARK                         _______ _______ _______ _____ _____    ______ ____
ROOT
ATOM      1  C   UNL     1       2.159   8.493  18.516  0.00  0.00    +0.000 C 
ATOM      2  O   UNL     1       2.734   9.149  17.656  0.00  0.00    +0.000 OA
ATOM      3  N   UNL     1       2.194   7.128  18.586  0.00  0.00    +0.000 N 
ATOM      4  C   UNL     1       3.086   6.335  17.888  0.00  0.00    +0.000 C 
ATOM      5  O   UNL     1       3.794   6.747  16.976  0.00  0.00    +0.000 OA
ATOM      6  H   UNL     1       1.571   6.746  19.279  0.00  0.00    +0.000 HD
ENDROOT
BRANCH   4   7
ATOM      7  C   UNL     1       3.132   4.882  18.222  0.00  0.00    +0.000 A 
ATOM      8  C   UNL     1       2.070   4.047  17.856  0.00  0.00    +0.000 A 
ATOM      9  F   UNL     1       0.967   4.554  17.284  0.00  0.00    +0.000 F 
ATOM     10  C   UNL     1       2.111   2.668  18.068  0.00  0.00    +0.000 A 
ATOM     11  C   UNL     1       3.240   2.085  18.634  0.00  0.00    +0.000 A 
ATOM     12  C   UNL     1       4.305   2.895  19.020  0.00  0.00    +0.000 A 
ATOM     13  C   UNL     1       4.249   4.287  18.836  0.00  0.00    +0.000 A 
ATOM     14 CL   UNL     1       5.580   5.178  19.491  0.00  0.00    +0.000 Cl
ENDBRANCH   4   7
BRANCH   1  18
ATOM     15  S   UNL     1       0.574  10.394  19.016  0.00  0.00    +0.000 S 
ATOM     16  C   UNL     1      -0.648   9.994  17.779  0.00  0.00    +0.000 C 
ATOM     17  O   UNL     1       1.267  11.588  18.555  0.00  0.00    +0.000 OA
ATOM     18  N   UNL     1       1.295   9.090  19.444  0.00  0.00    +0.000 NA
BRANCH  15  23
ATOM     19  C   UNL     1      -2.801  12.278  23.734  0.00  0.00    +0.000 C 
ATOM     20  C   UNL     1      -1.971  11.822  22.568  0.00  0.00    +0.000 A 
ATOM     21  C   UNL     1      -2.209  12.316  21.278  0.00  0.00    +0.000 A 
ATOM     22  C   UNL     1      -1.450  11.872  20.190  0.00  0.00    +0.000 A 
ATOM     23  C   UNL     1      -0.444  10.925  20.392  0.00  0.00    +0.000 A 
ATOM     24  C   UNL     1      -0.186  10.435  21.677  0.00  0.00    +0.000 A 
ATOM     25  C   UNL     1      -0.950  10.882  22.758  0.00  0.00    +0.000 A 
ENDBRANCH  15  23
ENDBRANCH   1  18
TORSDOF 3
ENDMDL
MODEL 4
REMARK VINA RESULT:      -7.6      3.464      8.297
REMARK  Name = 
REMARK  5 active torsions:
REMARK  status: ('A' for Active; 'I' for Inactive)
REMARK    1  A    between atoms: C_1  and  C_2
REMARK    2  A    between atoms: C_5  and  S_6
REMARK    3  A    between atoms: S_6  and  C_7
REMARK    4  A    between atoms: N_9  and  C_10
REMARK    5  A    between atoms: C_13  and  C_15
REMARK                            x       y       z     vdW  Elec       q    Type
REMARK                         _______ _______ _______ _____ _____    ______ ____
ROOT
ATOM      1  C   UNL     1       1.979   8.416  17.780  0.00  0.00    +0.000 C 
ATOM      2  O   UNL     1       3.023   8.985  17.490  0.00  0.00    +0.000 OA
ATOM      3  N   UNL     1       1.903   7.102  18.154  0.00  0.00    +0.000 N 
ATOM      4  C   UNL     1       2.993   6.334  18.520  0.00  0.00    +0.000 C 
ATOM      5  O   UNL     1       4.157   6.675  18.346  0.00  0.00    +0.000 OA
ATOM      6  H   UNL     1       0.960   6.764  18.239  0.00  0.00    +0.000 HD
ENDROOT
BRANCH   4   7
ATOM      7  C   UNL     1       2.728   4.982  19.093  0.00  0.00    +0.000 A 
ATOM      8  C   UNL     1       2.092   4.862  20.335  0.00  0.00    +0.000 A 
ATOM      9  F   UNL     1       1.797   5.952  21.059  0.00  0.00    +0.000 F 
ATOM     10  C   UNL     1       1.744   3.619  20.866  0.00  0.00    +0.000 A 
ATOM     11  C   UNL     1       2.005   2.458  20.147  0.00  0.00    +0.000 A 
ATOM     12  C   UNL     1       2.649   2.549  18.916  0.00  0.00    +0.000 A 
ATOM     13  C   UNL     1       3.028   3.798  18.397  0.00  0.00    +0.000 A 
ATOM     14 CL   UNL     1       3.944   3.747  16.929  0.00  0.00    +0.000 Cl
ENDBRANCH   4   7
BRANCH   1  18
ATOM     15  S   UNL     1       0.227   9.923  18.796  0.00  0.00    +0.000 S 
ATOM     16  C   UNL     1       1.220  11.402  18.867  0.00  0.00    +0.000 C 
ATOM     17  O   UNL     1       0.074   9.450  20.163  0.00  0.00    +0.000 OA
ATOM     18  N   UNL     1       0.733   9.038  17.628  0.00  0.00    +0.000 NA
BRANCH  15  23
ATOM     19  C   UNL     1      -5.285  12.027  17.249  0.00  0.00    +0.000 C 
ATOM     20  C   UNL     1      -3.929  11.511  17.639  0.00  0.00    +0.000 A 
ATOM     21  C   UNL     1      -3.265  12.013  18.767  0.00  0.00    +0.000 A 
ATOM     22  C   UNL     1      -1.992  11.546  19.113  0.00  0.00    +0.000 A 
ATOM     23  C   UNL     1      -1.378  10.570  18.326  0.00  0.00    +0.000 A 
ATOM     24  C   UNL     1      -2.036  10.050  17.207  0.00  0.00    +0.000 A 
ATOM     25  C   UNL     1      -3.307  10.523  16.866  0.00  0.00    +0.000 A 
ENDBRANCH  15  23
ENDBRANCH   1  18
TORSDOF 3
ENDMDL
MODEL 5
REMARK VINA RESULT:      -7.5      3.391      8.399
REMARK  Name = 
REMARK  5 active torsions:
REMARK  status: ('A' for Active; 'I' for Inactive)
REMARK    1  A    between atoms: C_1  and  C_2
REMARK    2  A    between atoms: C_5  and  S_6
REMARK    3  A    between atoms: S_6  and  C_7
REMARK    4  A    between atoms: N_9  and  C_10
REMARK    5  A    between atoms: C_13  and  C_15
REMARK                            x       y       z     vdW  Elec       q    Type
REMARK                         _______ _______ _______ _____ _____    ______ ____
ROOT
ATOM      1  C   UNL     1       2.155   8.251  17.899  0.00  0.00    +0.000 C 
ATOM      2  O   UNL     1       3.190   8.904  17.858  0.00  0.00    +0.000 OA
ATOM      3  N   UNL     1       2.115   6.887  17.990  0.00  0.00    +0.000 N 
ATOM      4  C   UNL     1       3.200   6.098  18.326  0.00  0.00    +0.000 C 
ATOM      5  O   UNL     1       4.354   6.508  18.368  0.00  0.00    +0.000 OA
ATOM      6  H   UNL     1       1.190   6.506  17.889  0.00  0.00    +0.000 HD
ENDROOT
BRANCH   4   7
ATOM      7  C   UNL     1       2.952   4.649  18.580  0.00  0.00    +0.000 A 
ATOM      8  C   UNL     1       2.178   4.255  19.678  0.00  0.00    +0.000 A 
ATOM      9  F   UNL     1       1.727   5.163  20.558  0.00  0.00    +0.000 F 
ATOM     10  C   UNL     1       1.845   2.918  19.902  0.00  0.00    +0.000 A 
ATOM     11  C   UNL     1       2.265   1.938  19.009  0.00  0.00    +0.000 A 
ATOM     12  C   UNL     1       3.048   2.302  17.917  0.00  0.00    +0.000 A 
ATOM     13  C   UNL     1       3.409   3.644  17.710  0.00  0.00    +0.000 A 
ATOM     14 CL   UNL     1       4.500   3.927  16.396  0.00  0.00    +0.000 Cl
ENDBRANCH   4   7
BRANCH   1  18
ATOM     15  S   UNL     1       0.408   9.822  18.823  0.00  0.00    +0.000 S 
ATOM     16  C   UNL     1       1.388  11.311  18.751  0.00  0.00    +0.000 C 
ATOM     17  O   UNL     1       0.289   9.463  20.228  0.00  0.00    +0.000 OA
ATOM     18  N   UNL     1       0.900   8.848  17.722  0.00  0.00    +0.000 NA
BRANCH  15  23
ATOM     19  C   UNL     1      -5.052  11.940  17.121  0.00  0.00    +0.000 C 
ATOM     20  C   UNL     1      -3.706  11.416  17.531  0.00  0.00    +0.000 A 
ATOM     21  C   UNL     1      -3.041  10.453  16.758  0.00  0.00    +0.000 A 
ATOM     22  C   UNL     1      -1.798   9.951  17.156  0.00  0.00    +0.000 A 
ATOM     23  C   UNL     1      -1.212  10.414  18.336  0.00  0.00    +0.000 A 
ATOM     24  C   UNL     1      -1.857  11.386  19.108  0.00  0.00    +0.000 A 
ATOM     25  C   UNL     1      -3.101  11.882  18.705  0.00  0.00    +0.000 A 
ENDBRANCH  15  23
ENDBRANCH   1  18
TORSDOF 3
ENDMDL
MODEL 6
REMARK VINA RESULT:      -7.3      4.849      6.587
REMARK  Name = 
REMARK  5 active torsions:
REMARK  status: ('A' for Active; 'I' for Inactive)
REMARK    1  A    between atoms: C_1  and  C_2
REMARK    2  A    between atoms: C_5  and  S_6
REMARK    3  A    between atoms: S_6  and  C_7
REMARK    4  A    between atoms: N_9  and  C_10
REMARK    5  A    between atoms: C_13  and  C_15
REMARK                            x       y       z     vdW  Elec       q    Type
REMARK                         _______ _______ _______ _____ _____    ______ ____
ROOT
ATOM      1  C   UNL     1      -0.608  12.512  22.333  0.00  0.00    +0.000 C 
ATOM      2  O   UNL     1      -0.013  13.484  22.781  0.00  0.00    +0.000 OA
ATOM      3  N   UNL     1      -1.943  12.281  22.518  0.00  0.00    +0.000 N 
ATOM      4  C   UNL     1      -2.840  13.228  22.980  0.00  0.00    +0.000 C 
ATOM      5  O   UNL     1      -2.506  14.300  23.472  0.00  0.00    +0.000 OA
ATOM      6  H   UNL     1      -2.243  11.379  22.189  0.00  0.00    +0.000 HD
ENDROOT
BRANCH   4   7
ATOM      7  C   UNL     1      -4.291  12.888  22.937  0.00  0.00    +0.000 A 
ATOM      8  C   UNL     1      -4.986  12.642  24.127  0.00  0.00    +0.000 A 
ATOM      9  F   UNL     1      -4.342  12.621  25.304  0.00  0.00    +0.000 F 
ATOM     10  C   UNL     1      -6.363  12.409  24.141  0.00  0.00    +0.000 A 
ATOM     11  C   UNL     1      -7.085  12.443  22.953  0.00  0.00    +0.000 A 
ATOM     12  C   UNL     1      -6.415  12.673  21.754  0.00  0.00    +0.000 A 
ATOM     13  C   UNL     1      -5.025  12.874  21.738  0.00  0.00    +0.000 A 
ATOM     14 CL   UNL     1      -4.311  13.005  20.167  0.00  0.00    +0.000 Cl
ENDBRANCH   4   7
BRANCH   1  18
ATOM     15  S   UNL     1      -0.161  11.296  20.167  0.00  0.00    +0.000 S 
ATOM     16  C   UNL     1       0.631  12.647  19.313  0.00  0.00    +0.000 C 
ATOM     17  O   UNL     1      -1.472  11.123  19.559  0.00  0.00    +0.000 OA
ATOM     18  N   UNL     1       0.067  11.466  21.690  0.00  0.00    +0.000 NA
BRANCH  15  23
ATOM     19  C   UNL     1       3.045   6.444  18.329  0.00  0.00    +0.000 C 
ATOM     20  C   UNL     1       2.252   7.640  18.773  0.00  0.00    +0.000 A 
ATOM     21  C   UNL     1       1.909   8.653  17.867  0.00  0.00    +0.000 A 
ATOM     22  C   UNL     1       1.191   9.777  18.289  0.00  0.00    +0.000 A 
ATOM     23  C   UNL     1       0.811   9.890  19.628  0.00  0.00    +0.000 A 
ATOM     24  C   UNL     1       1.134   8.879  20.539  0.00  0.00    +0.000 A 
ATOM     25  C   UNL     1       1.854   7.760  20.110  0.00  0.00    +0.000 A 
ENDBRANCH  15  23
ENDBRANCH   1  18
TORSDOF 3
ENDMDL
MODEL 7
REMARK VINA RESULT:      -7.2      1.517      1.804
REMARK  Name = 
REMARK  5 active torsions:
REMARK  status: ('A' for Active; 'I' for Inactive)
REMARK    1  A    between atoms: C_1  and  C_2
REMARK    2  A    between atoms: C_5  and  S_6
REMARK    3  A    between atoms: S_6  and  C_7
REMARK    4  A    between atoms: N_9  and  C_10
REMARK    5  A    between atoms: C_13  and  C_15
REMARK                            x       y       z     vdW  Elec       q    Type
REMARK                         _______ _______ _______ _____ _____    ______ ____
ROOT
ATOM      1  C   UNL     1       2.106   7.766  19.412  0.00  0.00    +0.000 C 
ATOM      2  O   UNL     1       1.955   7.221  20.497  0.00  0.00    +0.000 OA
ATOM      3  N   UNL     1       1.422   8.883  19.016  0.00  0.00    +0.000 N 
ATOM      4  C   UNL     1       0.696   9.694  19.870  0.00  0.00    +0.000 C 
ATOM      5  O   UNL     1       0.410   9.387  21.021  0.00  0.00    +0.000 OA
ATOM      6  H   UNL     1       1.577   9.127  18.053  0.00  0.00    +0.000 HD
ENDROOT
BRANCH   4   7
ATOM      7  C   UNL     1       0.175  10.982  19.328  0.00  0.00    +0.000 A 
ATOM      8  C   UNL     1      -0.910  10.980  18.443  0.00  0.00    +0.000 A 
ATOM      9  F   UNL     1      -1.434   9.824  18.006  0.00  0.00    +0.000 F 
ATOM     10  C   UNL     1      -1.487  12.165  17.982  0.00  0.00    +0.000 A 
ATOM     11  C   UNL     1      -1.000  13.391  18.422  0.00  0.00    +0.000 A 
ATOM     12  C   UNL     1       0.087  13.421  19.291  0.00  0.00    +0.000 A 
ATOM     13  C   UNL     1       0.687  12.228  19.729  0.00  0.00    +0.000 A 
ATOM     14 CL   UNL     1       2.114  12.423  20.690  0.00  0.00    +0.000 Cl
ENDBRANCH   4   7
BRANCH   1  18
ATOM     15  S   UNL     1       3.368   5.738  18.596  0.00  0.00    +0.000 S 
ATOM     16  C   UNL     1       1.956   4.669  18.383  0.00  0.00    +0.000 C 
ATOM     17  O   UNL     1       4.092   5.255  19.762  0.00  0.00    +0.000 OA
ATOM     18  N   UNL     1       2.912   7.208  18.411  0.00  0.00    +0.000 NA
BRANCH  15  23
ATOM     19  C   UNL     1       6.718   4.236  13.725  0.00  0.00    +0.000 C 
ATOM     20  C   UNL     1       5.890   4.614  14.920  0.00  0.00    +0.000 A 
ATOM     21  C   UNL     1       5.599   5.957  15.200  0.00  0.00    +0.000 A 
ATOM     22  C   UNL     1       4.848   6.306  16.327  0.00  0.00    +0.000 A 
ATOM     23  C   UNL     1       4.383   5.306  17.183  0.00  0.00    +0.000 A 
ATOM     24  C   UNL     1       4.652   3.961  16.907  0.00  0.00    +0.000 A 
ATOM     25  C   UNL     1       5.406   3.620  15.780  0.00  0.00    +0.000 A 
ENDBRANCH  15  23
ENDBRANCH   1  18
TORSDOF 3
ENDMDL
MODEL 8
REMARK VINA RESULT:      -7.2      3.474      8.648
REMARK  Name = 
REMARK  5 active torsions:
REMARK  status: ('A' for Active; 'I' for Inactive)
REMARK    1  A    between atoms: C_1  and  C_2
REMARK    2  A    between atoms: C_5  and  S_6
REMARK    3  A    between atoms: S_6  and  C_7
REMARK    4  A    between atoms: N_9  and  C_10
REMARK    5  A    between atoms: C_13  and  C_15
REMARK                            x       y       z     vdW  Elec       q    Type
REMARK                         _______ _______ _______ _____ _____    ______ ____
ROOT
ATOM      1  C   UNL     1       2.113   8.618  18.558  0.00  0.00    +0.000 C 
ATOM      2  O   UNL     1       2.562   9.253  17.614  0.00  0.00    +0.000 OA
ATOM      3  N   UNL     1       2.307   7.275  18.738  0.00  0.00    +0.000 N 
ATOM      4  C   UNL     1       3.246   6.527  18.052  0.00  0.00    +0.000 C 
ATOM      5  O   UNL     1       3.853   6.932  17.067  0.00  0.00    +0.000 OA
ATOM      6  H   UNL     1       1.769   6.891  19.496  0.00  0.00    +0.000 HD
ENDROOT
BRANCH   4   7
ATOM      7  C   UNL     1       3.476   5.123  18.500  0.00  0.00    +0.000 A 
ATOM      8  C   UNL     1       4.655   4.790  19.179  0.00  0.00    +0.000 A 
ATOM      9  F   UNL     1       5.623   5.702  19.356  0.00  0.00    +0.000 F 
ATOM     10  C   UNL     1       4.870   3.511  19.695  0.00  0.00    +0.000 A 
ATOM     11  C   UNL     1       3.890   2.533  19.561  0.00  0.00    +0.000 A 
ATOM     12  C   UNL     1       2.715   2.835  18.878  0.00  0.00    +0.000 A 
ATOM     13  C   UNL     1       2.512   4.113  18.331  0.00  0.00    +0.000 A 
ATOM     14 CL   UNL     1       1.072   4.300  17.389  0.00  0.00    +0.000 Cl
ENDBRANCH   4   7
BRANCH   1  18
ATOM     15  S   UNL     1       0.501  10.493  19.066  0.00  0.00    +0.000 S 
ATOM     16  C   UNL     1      -0.709  10.089  17.819  0.00  0.00    +0.000 C 
ATOM     17  O   UNL     1       1.180  11.700  18.619  0.00  0.00    +0.000 OA
ATOM     18  N   UNL     1       1.236   9.195  19.487  0.00  0.00    +0.000 NA
BRANCH  15  23
ATOM     19  C   UNL     1      -2.922  12.293  23.782  0.00  0.00    +0.000 C 
ATOM     20  C   UNL     1      -2.081  11.858  22.616  0.00  0.00    +0.000 A 
ATOM     21  C   UNL     1      -2.312  12.368  21.331  0.00  0.00    +0.000 A 
ATOM     22  C   UNL     1      -1.541  11.943  20.243  0.00  0.00    +0.000 A 
ATOM     23  C   UNL     1      -0.531  11.000  20.441  0.00  0.00    +0.000 A 
ATOM     24  C   UNL     1      -0.280  10.494  21.721  0.00  0.00    +0.000 A 
ATOM     25  C   UNL     1      -1.056  10.922  22.802  0.00  0.00    +0.000 A 
ENDBRANCH  15  23
ENDBRANCH   1  18
TORSDOF 3
ENDMDL
MODEL 9
REMARK VINA RESULT:      -7.0      3.178      8.336
REMARK  Name = 
REMARK  5 active torsions:
REMARK  status: ('A' for Active; 'I' for Inactive)
REMARK    1  A    between atoms: C_1  and  C_2
REMARK    2  A    between atoms: C_5  and  S_6
REMARK    3  A    between atoms: S_6  and  C_7
REMARK    4  A    between atoms: N_9  and  C_10
REMARK    5  A    between atoms: C_13  and  C_15
REMARK                            x       y       z     vdW  Elec       q    Type
REMARK                         _______ _______ _______ _____ _____    ______ ____
ROOT
ATOM      1  C   UNL     1       2.249   6.706  19.949  0.00  0.00    +0.000 C 
ATOM      2  O   UNL     1       1.796   6.035  20.866  0.00  0.00    +0.000 OA
ATOM      3  N   UNL     1       3.291   6.311  19.154  0.00  0.00    +0.000 N 
ATOM      4  C   UNL     1       3.776   5.017  19.095  0.00  0.00    +0.000 C 
ATOM      5  O   UNL     1       3.473   4.139  19.893  0.00  0.00    +0.000 OA
ATOM      6  H   UNL     1       3.614   7.031  18.531  0.00  0.00    +0.000 HD
ENDROOT
BRANCH   4   7
ATOM      7  C   UNL     1       4.778   4.700  18.037  0.00  0.00    +0.000 A 
ATOM      8  C   UNL     1       4.360   4.144  16.822  0.00  0.00    +0.000 A 
ATOM      9  F   UNL     1       3.075   3.809  16.630  0.00  0.00    +0.000 F 
ATOM     10  C   UNL     1       5.251   3.916  15.772  0.00  0.00    +0.000 A 
ATOM     11  C   UNL     1       6.590   4.266  15.908  0.00  0.00    +0.000 A 
ATOM     12  C   UNL     1       7.034   4.809  17.111  0.00  0.00    +0.000 A 
ATOM     13  C   UNL     1       6.143   5.008  18.179  0.00  0.00    +0.000 A 
ATOM     14 CL   UNL     1       6.862   5.555  19.655  0.00  0.00    +0.000 Cl
ENDBRANCH   4   7
BRANCH   1  18
ATOM     15  S   UNL     1       0.881   8.665  20.762  0.00  0.00    +0.000 S 
ATOM     16  C   UNL     1       1.820   8.992  22.243  0.00  0.00    +0.000 C 
ATOM     17  O   UNL     1      -0.386   8.086  21.185  0.00  0.00    +0.000 OA
ATOM     18  N   UNL     1       1.817   8.018  19.711  0.00  0.00    +0.000 NA
BRANCH  15  23
ATOM     19  C   UNL     1      -0.336  14.300  18.770  0.00  0.00    +0.000 C 
ATOM     20  C   UNL     1      -0.038  12.909  19.252  0.00  0.00    +0.000 A 
ATOM     21  C   UNL     1      -0.558  11.789  18.588  0.00  0.00    +0.000 A 
ATOM     22  C   UNL     1      -0.297  10.496  19.053  0.00  0.00    +0.000 A 
ATOM     23  C   UNL     1       0.491  10.320  20.193  0.00  0.00    +0.000 A 
ATOM     24  C   UNL     1       1.029  11.427  20.856  0.00  0.00    +0.000 A 
ATOM     25  C   UNL     1       0.761  12.717  20.386  0.00  0.00    +0.000 A 
ENDBRANCH  15  23
ENDBRANCH   1  18
TORSDOF 3
ENDMDL
