MODEL 1
REMARK VINA RESULT:      -8.2      0.000      0.000
REMARK  Name = 
REMARK  7 active torsions:
REMARK  status: ('A' for Active; 'I' for Inactive)
REMARK    1  A    between atoms: C_1  and  S_2
REMARK    2  A    between atoms: S_2  and  N_5
REMARK    3  A    between atoms: N_5  and  C_6
REMARK    4  A    between atoms: C_6  and  C_7
REMARK    5  A    between atoms: N_9  and  C_10
REMARK    6  A    between atoms: C_13  and  N_14
REMARK    7  A    between atoms: C_16  and  C_17
REMARK                            x       y       z     vdW  Elec       q    Type
REMARK                         _______ _______ _______ _____ _____    ______ ____
ROOT
ATOM      1  C   UNL     1       2.681   7.020  18.910  0.00  0.00    +0.000 A 
ATOM      2  C   UNL     1       2.136   7.136  20.193  0.00  0.00    +0.000 A 
ATOM      3  C   UNL     1       1.406   8.270  20.570  0.00  0.00    +0.000 A 
ATOM      4  C   UNL     1       1.192   9.312  19.660  0.00  0.00    +0.000 A 
ATOM      5  C   UNL     1       1.740   9.201  18.384  0.00  0.00    +0.000 A 
ATOM      6  F   UNL     1       1.582  10.147  17.450  0.00  0.00    +0.000 F 
ATOM      7  C   UNL     1       2.487   8.080  18.017  0.00  0.00    +0.000 A 
ENDROOT
BRANCH   1  10
ATOM      8  C   UNL     1       5.099   4.331  18.311  0.00  0.00    +0.000 C 
ATOM      9  C   UNL     1       4.840   5.799  18.562  0.00  0.00    +0.000 C 
ATOM     10  N   UNL     1       3.411   5.876  18.516  0.00  0.00    +0.000 N 
ATOM     11  C   UNL     1       2.908   4.747  17.894  0.00  0.00    +0.000 C 
ATOM     12  O   UNL     1       1.759   4.503  17.560  0.00  0.00    +0.000 OA
ATOM     13  O   UNL     1       3.930   3.883  17.607  0.00  0.00    +0.000 OA
BRANCH   8  14
ATOM     14  C   UNL     1       6.331   4.072  17.451  0.00  0.00    +0.000 C 
BRANCH  14  15
ATOM     15  N   UNL     1       6.040   3.675  16.040  0.00  0.00    +0.000 NA
ATOM     16  H   UNL     1       6.555   2.817  15.820  0.00  0.00    +0.000 HD
BRANCH  15  18
ATOM     17  C   UNL     1       6.187   3.953  13.361  0.00  0.00    +0.000 C 
ATOM     18  S   UNL     1       6.382   4.863  14.875  0.00  0.00    +0.000 S 
ATOM     19  O   UNL     1       7.774   5.205  15.043  0.00  0.00    +0.000 OA
ATOM     20  O   UNL     1       5.332   5.852  14.953  0.00  0.00    +0.000 OA
ENDBRANCH  15  18
ENDBRANCH  14  15
ENDBRANCH   8  14
ENDBRANCH   1  10
BRANCH   4  21
ATOM     21  N   UNL     1       0.422  10.435  20.056  0.00  0.00    +0.000 N 
ATOM     22  C   UNL     1      -0.758  10.462  20.757  0.00  0.00    +0.000 A 
ATOM     23  C   UNL     1      -1.104  11.783  20.953  0.00  0.00    +0.000 A 
ATOM     24  C   UNL     1      -0.081  12.494  20.303  0.00  0.00    +0.000 A 
ATOM     25  N   UNL     1       0.841  11.698  19.760  0.00  0.00    +0.000 NA
BRANCH  23  26
ATOM     26  C   UNL     1      -2.267  12.212  21.705  0.00  0.00    +0.000 A 
ATOM     27  C   UNL     1      -2.327  12.082  23.087  0.00  0.00    +0.000 A 
ATOM     28  C   UNL     1      -3.492  12.471  23.745  0.00  0.00    +0.000 A 
ATOM     29  C   UNL     1      -4.556  12.978  23.009  0.00  0.00    +0.000 A 
ATOM     30  C   UNL     1      -4.410  13.084  21.638  0.00  0.00    +0.000 A 
ATOM     31  N   UNL     1      -3.295  12.714  20.975  0.00  0.00    +0.000 NA
ENDBRANCH  23  26
ENDBRANCH   4  21
TORSDOF 6
ENDMDL
MODEL 2
REMARK VINA RESULT:      -8.2      1.010      1.335
REMARK  Name = 
REMARK  7 active torsions:
REMARK  status: ('A' for Active; 'I' for Inactive)
REMARK    1  A    between atoms: C_1  and  S_2
REMARK    2  A    between atoms: S_2  and  N_5
REMARK    3  A    between atoms: N_5  and  C_6
REMARK    4  A    between atoms: C_6  and  C_7
REMARK    5  A    between atoms: N_9  and  C_10
REMARK    6  A    between atoms: C_13  and  N_14
REMARK    7  A    between atoms: C_16  and  C_17
REMARK                            x       y       z     vdW  Elec       q    Type
REMARK                         _______ _______ _______ _____ _____    ______ ____
ROOT
ATOM      1  C   UNL     1       2.508   7.058  19.052  0.00  0.00    +0.000 A 
ATOM      2  C   UNL     1       2.153   8.053  18.136  0.00  0.00    +0.000 A 
ATOM      3  C   UNL     1       1.414   9.173  18.534  0.00  0.00    +0.000 A 
ATOM      4  C   UNL     1       1.026   9.331  19.870  0.00  0.00    +0.000 A 
ATOM      5  C   UNL     1       1.373   8.337  20.783  0.00  0.00    +0.000 A 
ATOM      6  F   UNL     1       1.046   8.407  22.079  0.00  0.00    +0.000 F 
ATOM      7  C   UNL     1       2.089   7.209  20.379  0.00  0.00    +0.000 A 
ENDROOT
BRANCH   1  10
ATOM      8  C   UNL     1       4.975   4.407  18.479  0.00  0.00    +0.000 C 
ATOM      9  C   UNL     1       4.691   5.869  18.740  0.00  0.00    +0.000 C 
ATOM     10  N   UNL     1       3.262   5.927  18.663  0.00  0.00    +0.000 N 
ATOM     11  C   UNL     1       2.788   4.799  18.017  0.00  0.00    +0.000 C 
ATOM     12  O   UNL     1       1.650   4.544  17.655  0.00  0.00    +0.000 OA
ATOM     13  O   UNL     1       3.828   3.952  17.745  0.00  0.00    +0.000 OA
BRANCH   8  14
ATOM     14  C   UNL     1       6.230   4.174  17.645  0.00  0.00    +0.000 C 
BRANCH  14  15
ATOM     15  N   UNL     1       5.976   3.717  16.244  0.00  0.00    +0.000 NA
ATOM     16  H   UNL     1       6.507   2.859  16.071  0.00  0.00    +0.000 HD
BRANCH  15  18
ATOM     17  C   UNL     1       6.329   3.859  13.575  0.00  0.00    +0.000 C 
ATOM     18  S   UNL     1       6.331   4.862  15.041  0.00  0.00    +0.000 S 
ATOM     19  O   UNL     1       7.677   5.316  15.299  0.00  0.00    +0.000 OA
ATOM     20  O   UNL     1       5.211   5.773  14.974  0.00  0.00    +0.000 OA
ENDBRANCH  15  18
ENDBRANCH  14  15
ENDBRANCH   8  14
ENDBRANCH   1  10
BRANCH   4  21
ATOM     21  N   UNL     1       0.306  10.490  20.254  0.00  0.00    +0.000 N 
ATOM     22  C   UNL     1      -0.757  10.595  21.116  0.00  0.00    +0.000 A 
ATOM     23  C   UNL     1      -1.091  11.929  21.218  0.00  0.00    +0.000 A 
ATOM     24  C   UNL     1      -0.188  12.564  20.348  0.00  0.00    +0.000 A 
ATOM     25  N   UNL     1       0.655  11.713  19.763  0.00  0.00    +0.000 NA
BRANCH  23  26
ATOM     26  C   UNL     1      -2.136  12.438  22.086  0.00  0.00    +0.000 A 
ATOM     27  C   UNL     1      -2.473  11.796  23.270  0.00  0.00    +0.000 A 
ATOM     28  C   UNL     1      -3.518  12.310  24.036  0.00  0.00    +0.000 A 
ATOM     29  C   UNL     1      -4.189  13.447  23.600  0.00  0.00    +0.000 A 
ATOM     30  C   UNL     1      -3.782  14.031  22.414  0.00  0.00    +0.000 A 
ATOM     31  N   UNL     1      -2.776  13.554  21.653  0.00  0.00    +0.000 NA
ENDBRANCH  23  26
ENDBRANCH   4  21
TORSDOF 6
ENDMDL
MODEL 3
REMARK VINA RESULT:      -8.1      1.060      1.544
REMARK  Name = 
REMARK  7 active torsions:
REMARK  status: ('A' for Active; 'I' for Inactive)
REMARK    1  A    between atoms: C_1  and  S_2
REMARK    2  A    between atoms: S_2  and  N_5
REMARK    3  A    between atoms: N_5  and  C_6
REMARK    4  A    between atoms: C_6  and  C_7
REMARK    5  A    between atoms: N_9  and  C_10
REMARK    6  A    between atoms: C_13  and  N_14
REMARK    7  A    between atoms: C_16  and  C_17
REMARK                            x       y       z     vdW  Elec       q    Type
REMARK                         _______ _______ _______ _____ _____    ______ ____
ROOT
ATOM      1  C   UNL     1       2.917   7.056  18.737  0.00  0.00    +0.000 A 
ATOM      2  C   UNL     1       2.762   8.109  17.829  0.00  0.00    +0.000 A 
ATOM      3  C   UNL     1       1.933   9.199  18.119  0.00  0.00    +0.000 A 
ATOM      4  C   UNL     1       1.250   9.267  19.340  0.00  0.00    +0.000 A 
ATOM      5  C   UNL     1       1.398   8.216  20.243  0.00  0.00    +0.000 A 
ATOM      6  F   UNL     1       0.785   8.199  21.433  0.00  0.00    +0.000 F 
ATOM      7  C   UNL     1       2.207   7.118  19.941  0.00  0.00    +0.000 A 
ENDROOT
BRANCH   1  10
ATOM      8  C   UNL     1       5.611   4.601  18.346  0.00  0.00    +0.000 C 
ATOM      9  C   UNL     1       5.187   6.051  18.400  0.00  0.00    +0.000 C 
ATOM     10  N   UNL     1       3.759   5.955  18.458  0.00  0.00    +0.000 N 
ATOM     11  C   UNL     1       3.363   4.694  18.049  0.00  0.00    +0.000 C 
ATOM     12  O   UNL     1       2.236   4.272  17.847  0.00  0.00    +0.000 OA
ATOM     13  O   UNL     1       4.467   3.919  17.811  0.00  0.00    +0.000 OA
BRANCH   8  14
ATOM     14  C   UNL     1       6.811   4.355  17.438  0.00  0.00    +0.000 C 
BRANCH  14  15
ATOM     15  N   UNL     1       6.477   3.777  16.101  0.00  0.00    +0.000 NA
ATOM     16  H   UNL     1       7.137   3.023  15.888  0.00  0.00    +0.000 HD
BRANCH  15  18
ATOM     17  C   UNL     1       6.107   3.847  13.430  0.00  0.00    +0.000 C 
ATOM     18  S   UNL     1       6.453   4.895  14.822  0.00  0.00    +0.000 S 
ATOM     19  O   UNL     1       7.799   5.404  14.705  0.00  0.00    +0.000 OA
ATOM     20  O   UNL     1       5.318   5.763  15.035  0.00  0.00    +0.000 OA
ENDBRANCH  15  18
ENDBRANCH  14  15
ENDBRANCH   8  14
ENDBRANCH   1  10
BRANCH   4  21
ATOM     21  N   UNL     1       0.442  10.397  19.623  0.00  0.00    +0.000 N 
ATOM     22  C   UNL     1      -0.597  10.508  20.514  0.00  0.00    +0.000 A 
ATOM     23  C   UNL     1      -1.046  11.812  20.481  0.00  0.00    +0.000 A 
ATOM     24  C   UNL     1      -0.233  12.418  19.508  0.00  0.00    +0.000 A 
ATOM     25  N   UNL     1       0.663  11.581  18.985  0.00  0.00    +0.000 NA
BRANCH  23  26
ATOM     26  C   UNL     1      -2.103  12.326  21.331  0.00  0.00    +0.000 A 
ATOM     27  C   UNL     1      -3.009  13.272  20.871  0.00  0.00    +0.000 A 
ATOM     28  C   UNL     1      -3.973  13.759  21.753  0.00  0.00    +0.000 A 
ATOM     29  C   UNL     1      -4.004  13.287  23.060  0.00  0.00    +0.000 A 
ATOM     30  C   UNL     1      -3.071  12.336  23.433  0.00  0.00    +0.000 A 
ATOM     31  N   UNL     1      -2.127  11.849  22.602  0.00  0.00    +0.000 NA
ENDBRANCH  23  26
ENDBRANCH   4  21
TORSDOF 6
ENDMDL
MODEL 4
REMARK VINA RESULT:      -8.1      1.740      2.305
REMARK  Name = 
REMARK  7 active torsions:
REMARK  status: ('A' for Active; 'I' for Inactive)
REMARK    1  A    between atoms: C_1  and  S_2
REMARK    2  A    between atoms: S_2  and  N_5
REMARK    3  A    between atoms: N_5  and  C_6
REMARK    4  A    between atoms: C_6  and  C_7
REMARK    5  A    between atoms: N_9  and  C_10
REMARK    6  A    between atoms: C_13  and  N_14
REMARK    7  A    between atoms: C_16  and  C_17
REMARK                            x       y       z     vdW  Elec       q    Type
REMARK                         _______ _______ _______ _____ _____    ______ ____
ROOT
ATOM      1  C   UNL     1       2.672   7.014  18.912  0.00  0.00    +0.000 A 
ATOM      2  C   UNL     1       2.366   8.057  18.032  0.00  0.00    +0.000 A 
ATOM      3  C   UNL     1       1.595   9.151  18.444  0.00  0.00    +0.000 A 
ATOM      4  C   UNL     1       1.125   9.232  19.761  0.00  0.00    +0.000 A 
ATOM      5  C   UNL     1       1.423   8.190  20.637  0.00  0.00    +0.000 A 
ATOM      6  F   UNL     1       1.017   8.187  21.913  0.00  0.00    +0.000 F 
ATOM      7  C   UNL     1       2.171   7.090  20.217  0.00  0.00    +0.000 A 
ENDROOT
BRANCH   1  10
ATOM      8  C   UNL     1       5.214   4.445  18.298  0.00  0.00    +0.000 C 
ATOM      9  C   UNL     1       4.887   5.896  18.573  0.00  0.00    +0.000 C 
ATOM     10  N   UNL     1       3.457   5.910  18.508  0.00  0.00    +0.000 N 
ATOM     11  C   UNL     1       3.012   4.773  17.858  0.00  0.00    +0.000 C 
ATOM     12  O   UNL     1       1.880   4.485  17.503  0.00  0.00    +0.000 OA
ATOM     13  O   UNL     1       4.075   3.960  17.570  0.00  0.00    +0.000 OA
BRANCH   8  14
ATOM     14  C   UNL     1       6.468   4.257  17.452  0.00  0.00    +0.000 C 
BRANCH  14  15
ATOM     15  N   UNL     1       6.221   3.735  16.073  0.00  0.00    +0.000 NA
ATOM     16  H   UNL     1       6.829   2.928  15.907  0.00  0.00    +0.000 HD
BRANCH  15  18
ATOM     17  C   UNL     1       6.135   3.884  13.381  0.00  0.00    +0.000 C 
ATOM     18  S   UNL     1       6.428   4.873  14.829  0.00  0.00    +0.000 S 
ATOM     19  O   UNL     1       7.818   5.260  14.860  0.00  0.00    +0.000 OA
ATOM     20  O   UNL     1       5.358   5.836  14.949  0.00  0.00    +0.000 OA
ENDBRANCH  15  18
ENDBRANCH  14  15
ENDBRANCH   8  14
ENDBRANCH   1  10
BRANCH   4  21
ATOM     21  N   UNL     1       0.374  10.366  20.163  0.00  0.00    +0.000 N 
ATOM     22  C   UNL     1       0.720  11.354  21.051  0.00  0.00    +0.000 A 
ATOM     23  C   UNL     1      -0.306  12.275  21.082  0.00  0.00    +0.000 A 
ATOM     24  C   UNL     1      -1.257  11.741  20.195  0.00  0.00    +0.000 A 
ATOM     25  N   UNL     1      -0.862  10.596  19.638  0.00  0.00    +0.000 NA
BRANCH  23  26
ATOM     26  C   UNL     1      -0.276  13.494  21.867  0.00  0.00    +0.000 A 
ATOM     27  C   UNL     1      -1.266  13.783  22.797  0.00  0.00    +0.000 A 
ATOM     28  C   UNL     1      -1.204  14.993  23.485  0.00  0.00    +0.000 A 
ATOM     29  C   UNL     1      -0.159  15.872  23.228  0.00  0.00    +0.000 A 
ATOM     30  C   UNL     1       0.792  15.502  22.295  0.00  0.00    +0.000 A 
ATOM     31  N   UNL     1       0.755  14.338  21.613  0.00  0.00    +0.000 NA
ENDBRANCH  23  26
ENDBRANCH   4  21
TORSDOF 6
ENDMDL
MODEL 5
REMARK VINA RESULT:      -8.0      1.380      1.714
REMARK  Name = 
REMARK  7 active torsions:
REMARK  status: ('A' for Active; 'I' for Inactive)
REMARK    1  A    between atoms: C_1  and  S_2
REMARK    2  A    between atoms: S_2  and  N_5
REMARK    3  A    between atoms: N_5  and  C_6
REMARK    4  A    between atoms: C_6  and  C_7
REMARK    5  A    between atoms: N_9  and  C_10
REMARK    6  A    between atoms: C_13  and  N_14
REMARK    7  A    between atoms: C_16  and  C_17
REMARK                            x       y       z     vdW  Elec       q    Type
REMARK                         _______ _______ _______ _____ _____    ______ ____
ROOT
ATOM      1  C   UNL     1       2.570   7.132  19.002  0.00  0.00    +0.000 A 
ATOM      2  C   UNL     1       2.350   8.046  17.966  0.00  0.00    +0.000 A 
ATOM      3  C   UNL     1       1.571   9.192  18.164  0.00  0.00    +0.000 A 
ATOM      4  C   UNL     1       1.004   9.458  19.417  0.00  0.00    +0.000 A 
ATOM      5  C   UNL     1       1.217   8.545  20.448  0.00  0.00    +0.000 A 
ATOM      6  F   UNL     1       0.716   8.722  21.677  0.00  0.00    +0.000 F 
ATOM      7  C   UNL     1       1.974   7.391  20.241  0.00  0.00    +0.000 A 
ENDROOT
BRANCH   1  10
ATOM      8  C   UNL     1       5.176   4.570  18.716  0.00  0.00    +0.000 C 
ATOM      9  C   UNL     1       4.774   6.021  18.575  0.00  0.00    +0.000 C 
ATOM     10  N   UNL     1       3.362   5.977  18.815  0.00  0.00    +0.000 N 
ATOM     11  C   UNL     1       2.910   4.677  18.673  0.00  0.00    +0.000 C 
ATOM     12  O   UNL     1       1.763   4.259  18.678  0.00  0.00    +0.000 OA
ATOM     13  O   UNL     1       3.970   3.842  18.441  0.00  0.00    +0.000 OA
BRANCH   8  14
ATOM     14  C   UNL     1       6.256   4.143  17.728  0.00  0.00    +0.000 C 
BRANCH  14  15
ATOM     15  N   UNL     1       5.759   3.830  16.353  0.00  0.00    +0.000 NA
ATOM     16  H   UNL     1       6.004   2.863  16.121  0.00  0.00    +0.000 HD
BRANCH  15  18
ATOM     17  C   UNL     1       6.081   3.884  13.676  0.00  0.00    +0.000 C 
ATOM     18  S   UNL     1       6.322   4.871  15.134  0.00  0.00    +0.000 S 
ATOM     19  O   UNL     1       7.738   5.033  15.362  0.00  0.00    +0.000 OA
ATOM     20  O   UNL     1       5.417   5.995  15.081  0.00  0.00    +0.000 OA
ENDBRANCH  15  18
ENDBRANCH  14  15
ENDBRANCH   8  14
ENDBRANCH   1  10
BRANCH   4  21
ATOM     21  N   UNL     1       0.246  10.642  19.600  0.00  0.00    +0.000 N 
ATOM     22  C   UNL     1      -1.118  10.791  19.640  0.00  0.00    +0.000 A 
ATOM     23  C   UNL     1      -1.393  12.119  19.892  0.00  0.00    +0.000 A 
ATOM     24  C   UNL     1      -0.121  12.713  19.959  0.00  0.00    +0.000 A 
ATOM     25  N   UNL     1       0.871  11.840  19.785  0.00  0.00    +0.000 NA
BRANCH  23  26
ATOM     26  C   UNL     1      -2.732  12.650  20.061  0.00  0.00    +0.000 A 
ATOM     27  C   UNL     1      -3.006  13.645  20.990  0.00  0.00    +0.000 A 
ATOM     28  C   UNL     1      -4.323  14.079  21.135  0.00  0.00    +0.000 A 
ATOM     29  C   UNL     1      -5.319  13.513  20.350  0.00  0.00    +0.000 A 
ATOM     30  C   UNL     1      -4.958  12.535  19.441  0.00  0.00    +0.000 A 
ATOM     31  N   UNL     1      -3.693  12.095  19.281  0.00  0.00    +0.000 NA
ENDBRANCH  23  26
ENDBRANCH   4  21
TORSDOF 6
ENDMDL
MODEL 6
REMARK VINA RESULT:      -8.0      1.533      1.909
REMARK  Name = 
REMARK  7 active torsions:
REMARK  status: ('A' for Active; 'I' for Inactive)
REMARK    1  A    between atoms: C_1  and  S_2
REMARK    2  A    between atoms: S_2  and  N_5
REMARK    3  A    between atoms: N_5  and  C_6
REMARK    4  A    between atoms: C_6  and  C_7
REMARK    5  A    between atoms: N_9  and  C_10
REMARK    6  A    between atoms: C_13  and  N_14
REMARK    7  A    between atoms: C_16  and  C_17
REMARK                            x       y       z     vdW  Elec       q    Type
REMARK                         _______ _______ _______ _____ _____    ______ ____
ROOT
ATOM      1  C   UNL     1       2.703   6.907  18.957  0.00  0.00    +0.000 A 
ATOM      2  C   UNL     1       2.137   6.963  20.235  0.00  0.00    +0.000 A 
ATOM      3  C   UNL     1       1.369   8.061  20.639  0.00  0.00    +0.000 A 
ATOM      4  C   UNL     1       1.134   9.126  19.760  0.00  0.00    +0.000 A 
ATOM      5  C   UNL     1       1.702   9.074  18.489  0.00  0.00    +0.000 A 
ATOM      6  F   UNL     1       1.528  10.046  17.585  0.00  0.00    +0.000 F 
ATOM      7  C   UNL     1       2.488   7.990  18.097  0.00  0.00    +0.000 A 
ENDROOT
BRANCH   1  10
ATOM      8  C   UNL     1       5.217   4.324  18.288  0.00  0.00    +0.000 C 
ATOM      9  C   UNL     1       4.904   5.777  18.568  0.00  0.00    +0.000 C 
ATOM     10  N   UNL     1       3.473   5.799  18.536  0.00  0.00    +0.000 N 
ATOM     11  C   UNL     1       3.007   4.663  17.897  0.00  0.00    +0.000 C 
ATOM     12  O   UNL     1       1.866   4.381  17.568  0.00  0.00    +0.000 OA
ATOM     13  O   UNL     1       4.060   3.844  17.586  0.00  0.00    +0.000 OA
BRANCH   8  14
ATOM     14  C   UNL     1       6.450   4.129  17.412  0.00  0.00    +0.000 C 
BRANCH  14  15
ATOM     15  N   UNL     1       6.174   3.571  16.054  0.00  0.00    +0.000 NA
ATOM     16  H   UNL     1       6.715   2.711  15.929  0.00  0.00    +0.000 HD
BRANCH  15  18
ATOM     17  C   UNL     1       5.257   5.892  15.031  0.00  0.00    +0.000 C 
ATOM     18  S   UNL     1       6.483   4.634  14.766  0.00  0.00    +0.000 S 
ATOM     19  O   UNL     1       6.162   3.912  13.558  0.00  0.00    +0.000 OA
ATOM     20  O   UNL     1       7.788   5.212  14.993  0.00  0.00    +0.000 OA
ENDBRANCH  15  18
ENDBRANCH  14  15
ENDBRANCH   8  14
ENDBRANCH   1  10
BRANCH   4  21
ATOM     21  N   UNL     1       0.325  10.211  20.183  0.00  0.00    +0.000 N 
ATOM     22  C   UNL     1       0.577  11.139  21.163  0.00  0.00    +0.000 A 
ATOM     23  C   UNL     1      -0.473  12.034  21.180  0.00  0.00    +0.000 A 
ATOM     24  C   UNL     1      -1.340  11.546  20.186  0.00  0.00    +0.000 A 
ATOM     25  N   UNL     1      -0.873  10.454  19.581  0.00  0.00    +0.000 NA
BRANCH  23  26
ATOM     26  C   UNL     1      -0.535  13.192  22.050  0.00  0.00    +0.000 A 
ATOM     27  C   UNL     1      -1.368  13.221  23.161  0.00  0.00    +0.000 A 
ATOM     28  C   UNL     1      -1.415  14.383  23.930  0.00  0.00    +0.000 A 
ATOM     29  C   UNL     1      -0.631  15.473  23.571  0.00  0.00    +0.000 A 
ATOM     30  C   UNL     1       0.178  15.356  22.456  0.00  0.00    +0.000 A 
ATOM     31  N   UNL     1       0.242  14.245  21.692  0.00  0.00    +0.000 NA
ENDBRANCH  23  26
ENDBRANCH   4  21
TORSDOF 6
ENDMDL
MODEL 7
REMARK VINA RESULT:      -7.9      1.266      1.388
REMARK  Name = 
REMARK  7 active torsions:
REMARK  status: ('A' for Active; 'I' for Inactive)
REMARK    1  A    between atoms: C_1  and  S_2
REMARK    2  A    between atoms: S_2  and  N_5
REMARK    3  A    between atoms: N_5  and  C_6
REMARK    4  A    between atoms: C_6  and  C_7
REMARK    5  A    between atoms: N_9  and  C_10
REMARK    6  A    between atoms: C_13  and  N_14
REMARK    7  A    between atoms: C_16  and  C_17
REMARK                            x       y       z     vdW  Elec       q    Type
REMARK                         _______ _______ _______ _____ _____    ______ ____
ROOT
ATOM      1  C   UNL     1       2.082   7.132  19.558  0.00  0.00    +0.000 A 
ATOM      2  C   UNL     1       1.761   7.275  20.912  0.00  0.00    +0.000 A 
ATOM      3  C   UNL     1       1.224   8.469  21.407  0.00  0.00    +0.000 A 
ATOM      4  C   UNL     1       0.980   9.548  20.548  0.00  0.00    +0.000 A 
ATOM      5  C   UNL     1       1.306   9.409  19.200  0.00  0.00    +0.000 A 
ATOM      6  F   UNL     1       1.104  10.388  18.309  0.00  0.00    +0.000 F 
ATOM      7  C   UNL     1       1.863   8.226  18.713  0.00  0.00    +0.000 A 
ENDROOT
BRANCH   1  10
ATOM      8  C   UNL     1       4.059   4.410  18.101  0.00  0.00    +0.000 C 
ATOM      9  C   UNL     1       3.703   5.880  18.116  0.00  0.00    +0.000 C 
ATOM     10  N   UNL     1       2.616   5.927  19.047  0.00  0.00    +0.000 N 
ATOM     11  C   UNL     1       2.100   4.655  19.220  0.00  0.00    +0.000 C 
ATOM     12  O   UNL     1       1.102   4.308  19.832  0.00  0.00    +0.000 OA
ATOM     13  O   UNL     1       2.853   3.752  18.518  0.00  0.00    +0.000 OA
BRANCH   8  14
ATOM     14  C   UNL     1       4.457   3.899  16.721  0.00  0.00    +0.000 C 
BRANCH  14  15
ATOM     15  N   UNL     1       5.918   3.985  16.417  0.00  0.00    +0.000 NA
ATOM     16  H   UNL     1       6.416   4.300  17.255  0.00  0.00    +0.000 HD
BRANCH  15  18
ATOM     17  C   UNL     1       6.051   3.898  13.725  0.00  0.00    +0.000 C 
ATOM     18  S   UNL     1       6.319   4.986  15.104  0.00  0.00    +0.000 S 
ATOM     19  O   UNL     1       7.732   5.258  15.220  0.00  0.00    +0.000 OA
ATOM     20  O   UNL     1       5.333   6.040  15.054  0.00  0.00    +0.000 OA
ENDBRANCH  15  18
ENDBRANCH  14  15
ENDBRANCH   8  14
ENDBRANCH   1  10
BRANCH   4  21
ATOM     21  N   UNL     1       0.406  10.735  21.068  0.00  0.00    +0.000 N 
ATOM     22  C   UNL     1      -0.807  10.901  21.690  0.00  0.00    +0.000 A 
ATOM     23  C   UNL     1      -0.911  12.223  22.070  0.00  0.00    +0.000 A 
ATOM     24  C   UNL     1       0.284  12.798  21.603  0.00  0.00    +0.000 A 
ATOM     25  N   UNL     1       1.082  11.917  21.000  0.00  0.00    +0.000 NA
BRANCH  23  26
ATOM     26  C   UNL     1      -2.035  12.767  22.808  0.00  0.00    +0.000 A 
ATOM     27  C   UNL     1      -2.226  14.137  22.935  0.00  0.00    +0.000 A 
ATOM     28  C   UNL     1      -3.300  14.594  23.696  0.00  0.00    +0.000 A 
ATOM     29  C   UNL     1      -4.149  13.675  24.302  0.00  0.00    +0.000 A 
ATOM     30  C   UNL     1      -3.894  12.329  24.115  0.00  0.00    +0.000 A 
ATOM     31  N   UNL     1      -2.861  11.858  23.385  0.00  0.00    +0.000 NA
ENDBRANCH  23  26
ENDBRANCH   4  21
TORSDOF 6
ENDMDL
MODEL 8
REMARK VINA RESULT:      -7.9      2.641      3.789
REMARK  Name = 
REMARK  7 active torsions:
REMARK  status: ('A' for Active; 'I' for Inactive)
REMARK    1  A    between atoms: C_1  and  S_2
REMARK    2  A    between atoms: S_2  and  N_5
REMARK    3  A    between atoms: N_5  and  C_6
REMARK    4  A    between atoms: C_6  and  C_7
REMARK    5  A    between atoms: N_9  and  C_10
REMARK    6  A    between atoms: C_13  and  N_14
REMARK    7  A    between atoms: C_16  and  C_17
REMARK                            x       y       z     vdW  Elec       q    Type
REMARK                         _______ _______ _______ _____ _____    ______ ____
ROOT
ATOM      1  C   UNL     1       2.210   7.446  19.433  0.00  0.00    +0.000 A 
ATOM      2  C   UNL     1       2.182   8.175  18.240  0.00  0.00    +0.000 A 
ATOM      3  C   UNL     1       1.572   9.434  18.175  0.00  0.00    +0.000 A 
ATOM      4  C   UNL     1       0.987  10.000  19.315  0.00  0.00    +0.000 A 
ATOM      5  C   UNL     1       1.008   9.271  20.502  0.00  0.00    +0.000 A 
ATOM      6  F   UNL     1       0.476   9.736  21.639  0.00  0.00    +0.000 F 
ATOM      7  C   UNL     1       1.596   8.006  20.559  0.00  0.00    +0.000 A 
ENDROOT
BRANCH   1  10
ATOM      8  C   UNL     1       4.440   4.539  19.564  0.00  0.00    +0.000 C 
ATOM      9  C   UNL     1       4.145   5.913  19.007  0.00  0.00    +0.000 C 
ATOM     10  N   UNL     1       2.831   6.179  19.512  0.00  0.00    +0.000 N 
ATOM     11  C   UNL     1       2.245   4.994  19.920  0.00  0.00    +0.000 C 
ATOM     12  O   UNL     1       1.098   4.792  20.289  0.00  0.00    +0.000 OA
ATOM     13  O   UNL     1       3.142   3.967  19.795  0.00  0.00    +0.000 OA
BRANCH   8  14
ATOM     14  C   UNL     1       5.215   3.648  18.599  0.00  0.00    +0.000 C 
BRANCH  14  15
ATOM     15  N   UNL     1       5.642   4.317  17.333  0.00  0.00    +0.000 NA
ATOM     16  H   UNL     1       5.455   3.691  16.544  0.00  0.00    +0.000 HD
BRANCH  15  18
ATOM     17  C   UNL     1       7.103   6.583  17.247  0.00  0.00    +0.000 C 
ATOM     18  S   UNL     1       7.266   4.814  17.298  0.00  0.00    +0.000 S 
ATOM     19  O   UNL     1       7.803   4.355  16.039  0.00  0.00    +0.000 OA
ATOM     20  O   UNL     1       7.853   4.445  18.565  0.00  0.00    +0.000 OA
ENDBRANCH  15  18
ENDBRANCH  14  15
ENDBRANCH   8  14
ENDBRANCH   1  10
BRANCH   4  21
ATOM     21  N   UNL     1       0.405  11.290  19.230  0.00  0.00    +0.000 N 
ATOM     22  C   UNL     1       1.028  12.512  19.179  0.00  0.00    +0.000 A 
ATOM     23  C   UNL     1       0.054  13.480  19.048  0.00  0.00    +0.000 A 
ATOM     24  C   UNL     1      -1.145  12.747  19.062  0.00  0.00    +0.000 A 
ATOM     25  N   UNL     1      -0.949  11.433  19.171  0.00  0.00    +0.000 NA
BRANCH  23  26
ATOM     26  C   UNL     1       0.334  14.895  18.906  0.00  0.00    +0.000 A 
ATOM     27  C   UNL     1      -0.665  15.850  19.041  0.00  0.00    +0.000 A 
ATOM     28  C   UNL     1      -0.339  17.192  18.846  0.00  0.00    +0.000 A 
ATOM     29  C   UNL     1       0.969  17.537  18.527  0.00  0.00    +0.000 A 
ATOM     30  C   UNL     1       1.906  16.525  18.423  0.00  0.00    +0.000 A 
ATOM     31  N   UNL     1       1.617  15.219  18.604  0.00  0.00    +0.000 NA
ENDBRANCH  23  26
ENDBRANCH   4  21
TORSDOF 6
ENDMDL
MODEL 9
REMARK VINA RESULT:      -7.9      1.759      2.091
REMARK  Name = 
REMARK  7 active torsions:
REMARK  status: ('A' for Active; 'I' for Inactive)
REMARK    1  A    between atoms: C_1  and  S_2
REMARK    2  A    between atoms: S_2  and  N_5
REMARK    3  A    between atoms: N_5  and  C_6
REMARK    4  A    between atoms: C_6  and  C_7
REMARK    5  A    between atoms: N_9  and  C_10
REMARK    6  A    between atoms: C_13  and  N_14
REMARK    7  A    between atoms: C_16  and  C_17
REMARK                            x       y       z     vdW  Elec       q    Type
REMARK                         _______ _______ _______ _____ _____    ______ ____
ROOT
ATOM      1  C   UNL     1       3.056   6.999  19.024  0.00  0.00    +0.000 A 
ATOM      2  C   UNL     1       2.214   7.084  20.137  0.00  0.00    +0.000 A 
ATOM      3  C   UNL     1       1.270   8.111  20.256  0.00  0.00    +0.000 A 
ATOM      4  C   UNL     1       1.137   9.073  19.247  0.00  0.00    +0.000 A 
ATOM      5  C   UNL     1       1.979   8.994  18.140  0.00  0.00    +0.000 A 
ATOM      6  F   UNL     1       1.919   9.870  17.129  0.00  0.00    +0.000 F 
ATOM      7  C   UNL     1       2.936   7.983  18.035  0.00  0.00    +0.000 A 
ENDROOT
BRANCH   1  10
ATOM      8  C   UNL     1       5.998   4.852  18.611  0.00  0.00    +0.000 C 
ATOM      9  C   UNL     1       5.281   6.137  18.262  0.00  0.00    +0.000 C 
ATOM     10  N   UNL     1       4.005   5.961  18.890  0.00  0.00    +0.000 N 
ATOM     11  C   UNL     1       3.813   4.622  19.179  0.00  0.00    +0.000 C 
ATOM     12  O   UNL     1       2.811   4.064  19.598  0.00  0.00    +0.000 OA
ATOM     13  O   UNL     1       4.939   3.913  18.856  0.00  0.00    +0.000 OA
BRANCH   8  14
ATOM     14  C   UNL     1       6.881   4.327  17.484  0.00  0.00    +0.000 C 
BRANCH  14  15
ATOM     15  N   UNL     1       6.146   3.921  16.248  0.00  0.00    +0.000 NA
ATOM     16  H   UNL     1       6.393   2.954  16.015  0.00  0.00    +0.000 HD
BRANCH  15  18
ATOM     17  C   UNL     1       6.097   3.798  13.554  0.00  0.00    +0.000 C 
ATOM     18  S   UNL     1       6.407   4.919  14.899  0.00  0.00    +0.000 S 
ATOM     19  O   UNL     1       7.809   5.260  14.912  0.00  0.00    +0.000 OA
ATOM     20  O   UNL     1       5.370   5.924  14.905  0.00  0.00    +0.000 OA
ENDBRANCH  15  18
ENDBRANCH  14  15
ENDBRANCH   8  14
ENDBRANCH   1  10
BRANCH   4  21
ATOM     21  N   UNL     1       0.151  10.084  19.376  0.00  0.00    +0.000 N 
ATOM     22  C   UNL     1      -1.068  10.179  18.752  0.00  0.00    +0.000 A 
ATOM     23  C   UNL     1      -1.702  11.307  19.230  0.00  0.00    +0.000 A 
ATOM     24  C   UNL     1      -0.770  11.857  20.125  0.00  0.00    +0.000 A 
ATOM     25  N   UNL     1       0.346  11.134  20.222  0.00  0.00    +0.000 NA
BRANCH  23  26
ATOM     26  C   UNL     1      -3.041  11.708  18.842  0.00  0.00    +0.000 A 
ATOM     27  C   UNL     1      -3.901  12.330  19.738  0.00  0.00    +0.000 A 
ATOM     28  C   UNL     1      -5.190  12.649  19.316  0.00  0.00    +0.000 A 
ATOM     29  C   UNL     1      -5.580  12.341  18.018  0.00  0.00    +0.000 A 
ATOM     30  C   UNL     1      -4.658  11.732  17.186  0.00  0.00    +0.000 A 
ATOM     31  N   UNL     1      -3.404  11.411  17.569  0.00  0.00    +0.000 NA
ENDBRANCH  23  26
ENDBRANCH   4  21
TORSDOF 6
ENDMDL
