MODEL 1
REMARK VINA RESULT:      -9.2      0.000      0.000
REMARK  Name = 
REMARK  4 active torsions:
REMARK  status: ('A' for Active; 'I' for Inactive)
REMARK    1  A    between atoms: C_1  and  C_2
REMARK    2  A    between atoms: C_5  and  C_6
REMARK    3  A    between atoms: C_16  and  N_17
REMARK    4  A    between atoms: C_18  and  C_20
REMARK                            x       y       z     vdW  Elec       q    Type
REMARK                         _______ _______ _______ _____ _____    ______ ____
ROOT
ATOM      1  C   UNL     1       2.657   4.246  21.054  0.00  0.00    +0.000 C 
ATOM      2  C   UNL     1       3.459   4.539  19.815  0.00  0.00    +0.000 A 
ATOM      3  C   UNL     1       4.490   3.648  19.482  0.00  0.00    +0.000 A 
ATOM      4  C   UNL     1       5.178   3.769  18.276  0.00  0.00    +0.000 A 
ATOM      5  C   UNL     1       4.857   4.782  17.368  0.00  0.00    +0.000 A 
ATOM      6  C   UNL     1       3.884   5.718  17.738  0.00  0.00    +0.000 A 
ATOM      7  C   UNL     1       3.182   5.621  18.957  0.00  0.00    +0.000 A 
ENDROOT
BRANCH   5   8
ATOM      8  C   UNL     1       5.528   4.789  16.068  0.00  0.00    +0.000 A 
ATOM      9  N   UNL     1       6.550   5.544  15.702  0.00  0.00    +0.000 NA
ATOM     10  C   UNL     1       6.834   5.112  14.446  0.00  0.00    +0.000 A 
ATOM     11  N   UNL     1       7.825   5.575  13.650  0.00  0.00    +0.000 NA
ATOM     12  C   UNL     1       7.884   4.969  12.443  0.00  0.00    +0.000 A 
ATOM     13  C   UNL     1       7.032   3.957  11.997  0.00  0.00    +0.000 A 
ATOM     14  C   UNL     1       6.014   3.486  12.832  0.00  0.00    +0.000 A 
ATOM     15  C   UNL     1       5.957   4.109  14.071  0.00  0.00    +0.000 A 
ATOM     16  O   UNL     1       5.104   3.887  15.116  0.00  0.00    +0.000 OA
ENDBRANCH   5   8
BRANCH   7  17
ATOM     17  N   UNL     1       2.230   6.608  19.352  0.00  0.00    +0.000 N 
ATOM     18  C   UNL     1       2.219   7.915  18.904  0.00  0.00    +0.000 C 
ATOM     19  O   UNL     1       2.868   8.327  17.946  0.00  0.00    +0.000 OA
ATOM     20  H   UNL     1       1.502   6.299  19.970  0.00  0.00    +0.000 HD
BRANCH  18  21
ATOM     21  C   UNL     1       1.323   8.911  19.580  0.00  0.00    +0.000 A 
ATOM     22  C   UNL     1       0.995  10.193  19.082  0.00  0.00    +0.000 A 
ATOM     23  C   UNL     1       0.185  11.065  19.835  0.00  0.00    +0.000 A 
ATOM     24  C   UNL     1      -0.264  10.633  21.066  0.00  0.00    +0.000 A 
ATOM     25  C   UNL     1       0.015   9.372  21.530  0.00  0.00    +0.000 A 
ATOM     26  C   UNL     1       0.786   8.493  20.812  0.00  0.00    +0.000 A 
ATOM     27  O   UNL     1      -0.508   9.138  22.762  0.00  0.00    +0.000 OA
ATOM     28  C   UNL     1      -0.883  10.480  23.123  0.00  0.00    +0.000 C 
ATOM     29  O   UNL     1      -0.977  11.356  21.975  0.00  0.00    +0.000 OA
ENDBRANCH  18  21
ENDBRANCH   7  17
TORSDOF 3
ENDMDL
MODEL 2
REMARK VINA RESULT:      -9.2      0.949      1.493
REMARK  Name = 
REMARK  4 active torsions:
REMARK  status: ('A' for Active; 'I' for Inactive)
REMARK    1  A    between atoms: C_1  and  C_2
REMARK    2  A    between atoms: C_5  and  C_6
REMARK    3  A    between atoms: C_16  and  N_17
REMARK    4  A    between atoms: C_18  and  C_20
REMARK                            x       y       z     vdW  Elec       q    Type
REMARK                         _______ _______ _______ _____ _____    ______ ____
ROOT
ATOM      1  C   UNL     1       2.115   3.593  21.389  0.00  0.00    +0.000 C 
ATOM      2  C   UNL     1       3.019   3.984  20.251  0.00  0.00    +0.000 A 
ATOM      3  C   UNL     1       3.917   3.018  19.772  0.00  0.00    +0.000 A 
ATOM      4  C   UNL     1       4.679   3.255  18.630  0.00  0.00    +0.000 A 
ATOM      5  C   UNL     1       4.567   4.460  17.931  0.00  0.00    +0.000 A 
ATOM      6  C   UNL     1       3.731   5.453  18.457  0.00  0.00    +0.000 A 
ATOM      7  C   UNL     1       2.958   5.240  19.617  0.00  0.00    +0.000 A 
ENDROOT
BRANCH   5   8
ATOM      8  C   UNL     1       5.300   4.607  16.674  0.00  0.00    +0.000 A 
ATOM      9  N   UNL     1       6.415   5.290  16.476  0.00  0.00    +0.000 NA
ATOM     10  C   UNL     1       6.714   5.044  15.174  0.00  0.00    +0.000 A 
ATOM     11  N   UNL     1       7.788   5.517  14.501  0.00  0.00    +0.000 NA
ATOM     12  C   UNL     1       7.843   5.118  13.211  0.00  0.00    +0.000 A 
ATOM     13  C   UNL     1       6.912   4.298  12.572  0.00  0.00    +0.000 A 
ATOM     14  C   UNL     1       5.808   3.814  13.280  0.00  0.00    +0.000 A 
ATOM     15  C   UNL     1       5.755   4.224  14.606  0.00  0.00    +0.000 A 
ATOM     16  O   UNL     1       4.831   3.931  15.569  0.00  0.00    +0.000 OA
ENDBRANCH   5   8
BRANCH   7  17
ATOM     17  N   UNL     1       2.149   6.273  20.176  0.00  0.00    +0.000 N 
ATOM     18  C   UNL     1       2.025   7.547  19.653  0.00  0.00    +0.000 C 
ATOM     19  O   UNL     1       2.399   7.876  18.530  0.00  0.00    +0.000 OA
ATOM     20  H   UNL     1       1.610   6.025  20.985  0.00  0.00    +0.000 HD
BRANCH  18  21
ATOM     21  C   UNL     1       1.345   8.608  20.467  0.00  0.00    +0.000 A 
ATOM     22  C   UNL     1       1.142   8.567  21.865  0.00  0.00    +0.000 A 
ATOM     23  C   UNL     1       0.437   9.600  22.514  0.00  0.00    +0.000 A 
ATOM     24  C   UNL     1      -0.051  10.636  21.744  0.00  0.00    +0.000 A 
ATOM     25  C   UNL     1       0.185  10.699  20.394  0.00  0.00    +0.000 A 
ATOM     26  C   UNL     1       0.883   9.719  19.736  0.00  0.00    +0.000 A 
ATOM     27  O   UNL     1      -0.382  11.789  19.812  0.00  0.00    +0.000 OA
ATOM     28  C   UNL     1      -1.230  12.223  20.891  0.00  0.00    +0.000 C 
ATOM     29  O   UNL     1      -0.828  11.672  22.168  0.00  0.00    +0.000 OA
ENDBRANCH  18  21
ENDBRANCH   7  17
TORSDOF 3
ENDMDL
MODEL 3
REMARK VINA RESULT:      -9.1      0.995      1.713
REMARK  Name = 
REMARK  4 active torsions:
REMARK  status: ('A' for Active; 'I' for Inactive)
REMARK    1  A    between atoms: C_1  and  C_2
REMARK    2  A    between atoms: C_5  and  C_6
REMARK    3  A    between atoms: C_16  and  N_17
REMARK    4  A    between atoms: C_18  and  C_20
REMARK                            x       y       z     vdW  Elec       q    Type
REMARK                         _______ _______ _______ _____ _____    ______ ____
ROOT
ATOM      1  C   UNL     1       2.237   4.422  20.952  0.00  0.00    +0.000 C 
ATOM      2  C   UNL     1       3.128   4.677  19.766  0.00  0.00    +0.000 A 
ATOM      3  C   UNL     1       4.068   3.691  19.434  0.00  0.00    +0.000 A 
ATOM      4  C   UNL     1       4.825   3.787  18.268  0.00  0.00    +0.000 A 
ATOM      5  C   UNL     1       4.664   4.870  17.398  0.00  0.00    +0.000 A 
ATOM      6  C   UNL     1       3.784   5.893  17.772  0.00  0.00    +0.000 A 
ATOM      7  C   UNL     1       3.016   5.822  18.953  0.00  0.00    +0.000 A 
ENDROOT
BRANCH   5   8
ATOM      8  C   UNL     1       5.396   4.859  16.132  0.00  0.00    +0.000 A 
ATOM      9  N   UNL     1       6.485   5.548  15.834  0.00  0.00    +0.000 NA
ATOM     10  C   UNL     1       6.798   5.127  14.581  0.00  0.00    +0.000 A 
ATOM     11  N   UNL     1       7.856   5.537  13.845  0.00  0.00    +0.000 NA
ATOM     12  C   UNL     1       7.930   4.956  12.627  0.00  0.00    +0.000 A 
ATOM     13  C   UNL     1       7.033   4.017  12.115  0.00  0.00    +0.000 A 
ATOM     14  C   UNL     1       5.945   3.600  12.889  0.00  0.00    +0.000 A 
ATOM     15  C   UNL     1       5.873   4.197  14.140  0.00  0.00    +0.000 A 
ATOM     16  O   UNL     1       4.957   4.012  15.138  0.00  0.00    +0.000 OA
ENDBRANCH   5   8
BRANCH   7  17
ATOM     17  N   UNL     1       2.161   6.891  19.354  0.00  0.00    +0.000 N 
ATOM     18  C   UNL     1       2.086   8.118  18.722  0.00  0.00    +0.000 C 
ATOM     19  O   UNL     1       2.558   8.360  17.615  0.00  0.00    +0.000 OA
ATOM     20  H   UNL     1       1.552   6.705  20.129  0.00  0.00    +0.000 HD
BRANCH  18  21
ATOM     21  C   UNL     1       1.336   9.236  19.386  0.00  0.00    +0.000 A 
ATOM     22  C   UNL     1       0.893   9.246  20.728  0.00  0.00    +0.000 A 
ATOM     23  C   UNL     1       0.146  10.332  21.225  0.00  0.00    +0.000 A 
ATOM     24  C   UNL     1      -0.142  11.370  20.363  0.00  0.00    +0.000 A 
ATOM     25  C   UNL     1       0.328  11.384  19.074  0.00  0.00    +0.000 A 
ATOM     26  C   UNL     1       1.072  10.349  18.566  0.00  0.00    +0.000 A 
ATOM     27  O   UNL     1      -0.067  12.485  18.382  0.00  0.00    +0.000 OA
ATOM     28  C   UNL     1      -1.063  12.993  19.289  0.00  0.00    +0.000 C 
ATOM     29  O   UNL     1      -0.919  12.458  20.625  0.00  0.00    +0.000 OA
ENDBRANCH  18  21
ENDBRANCH   7  17
TORSDOF 3
ENDMDL
MODEL 4
REMARK VINA RESULT:      -8.8      1.029      1.244
REMARK  Name = 
REMARK  4 active torsions:
REMARK  status: ('A' for Active; 'I' for Inactive)
REMARK    1  A    between atoms: C_1  and  C_2
REMARK    2  A    between atoms: C_5  and  C_6
REMARK    3  A    between atoms: C_16  and  N_17
REMARK    4  A    between atoms: C_18  and  C_20
REMARK                            x       y       z     vdW  Elec       q    Type
REMARK                         _______ _______ _______ _____ _____    ______ ____
ROOT
ATOM      1  C   UNL     1       1.857   5.115  20.794  0.00  0.00    +0.000 C 
ATOM      2  C   UNL     1       2.836   5.221  19.655  0.00  0.00    +0.000 A 
ATOM      3  C   UNL     1       3.547   4.065  19.299  0.00  0.00    +0.000 A 
ATOM      4  C   UNL     1       4.358   4.046  18.166  0.00  0.00    +0.000 A 
ATOM      5  C   UNL     1       4.482   5.177  17.355  0.00  0.00    +0.000 A 
ATOM      6  C   UNL     1       3.836   6.353  17.757  0.00  0.00    +0.000 A 
ATOM      7  C   UNL     1       3.018   6.399  18.905  0.00  0.00    +0.000 A 
ENDROOT
BRANCH   5   8
ATOM      8  C   UNL     1       5.250   5.064  16.115  0.00  0.00    +0.000 A 
ATOM      9  N   UNL     1       6.366   5.702  15.807  0.00  0.00    +0.000 NA
ATOM     10  C   UNL     1       6.703   5.191  14.594  0.00  0.00    +0.000 A 
ATOM     11  N   UNL     1       7.794   5.523  13.866  0.00  0.00    +0.000 NA
ATOM     12  C   UNL     1       7.886   4.861  12.691  0.00  0.00    +0.000 A 
ATOM     13  C   UNL     1       6.978   3.915  12.214  0.00  0.00    +0.000 A 
ATOM     14  C   UNL     1       5.856   3.579  12.979  0.00  0.00    +0.000 A 
ATOM     15  C   UNL     1       5.765   4.259  14.186  0.00  0.00    +0.000 A 
ATOM     16  O   UNL     1       4.815   4.165  15.165  0.00  0.00    +0.000 OA
ENDBRANCH   5   8
BRANCH   7  17
ATOM     17  N   UNL     1       2.406   7.612  19.338  0.00  0.00    +0.000 N 
ATOM     18  C   UNL     1       1.713   8.481  18.516  0.00  0.00    +0.000 C 
ATOM     19  O   UNL     1       1.336   8.211  17.379  0.00  0.00    +0.000 OA
ATOM     20  H   UNL     1       2.461   7.811  20.320  0.00  0.00    +0.000 HD
BRANCH  18  21
ATOM     21  C   UNL     1       1.333   9.835  19.041  0.00  0.00    +0.000 A 
ATOM     22  C   UNL     1       1.843  11.069  18.577  0.00  0.00    +0.000 A 
ATOM     23  C   UNL     1       1.452  12.277  19.187  0.00  0.00    +0.000 A 
ATOM     24  C   UNL     1       0.572  12.214  20.248  0.00  0.00    +0.000 A 
ATOM     25  C   UNL     1       0.041  11.021  20.669  0.00  0.00    +0.000 A 
ATOM     26  C   UNL     1       0.388   9.830  20.083  0.00  0.00    +0.000 A 
ATOM     27  O   UNL     1      -0.799  11.164  21.728  0.00  0.00    +0.000 OA
ATOM     28  C   UNL     1      -0.496  12.524  22.091  0.00  0.00    +0.000 C 
ATOM     29  O   UNL     1       0.148  13.253  21.020  0.00  0.00    +0.000 OA
ENDBRANCH  18  21
ENDBRANCH   7  17
TORSDOF 3
ENDMDL
MODEL 5
REMARK VINA RESULT:      -8.5      1.734      2.186
REMARK  Name = 
REMARK  4 active torsions:
REMARK  status: ('A' for Active; 'I' for Inactive)
REMARK    1  A    between atoms: C_1  and  C_2
REMARK    2  A    between atoms: C_5  and  C_6
REMARK    3  A    between atoms: C_16  and  N_17
REMARK    4  A    between atoms: C_18  and  C_20
REMARK                            x       y       z     vdW  Elec       q    Type
REMARK                         _______ _______ _______ _____ _____    ______ ____
ROOT
ATOM      1  C   UNL     1       1.956   5.816  20.876  0.00  0.00    +0.000 C 
ATOM      2  C   UNL     1       2.846   5.867  19.664  0.00  0.00    +0.000 A 
ATOM      3  C   UNL     1       3.939   4.988  19.623  0.00  0.00    +0.000 A 
ATOM      4  C   UNL     1       4.720   4.872  18.475  0.00  0.00    +0.000 A 
ATOM      5  C   UNL     1       4.434   5.629  17.335  0.00  0.00    +0.000 A 
ATOM      6  C   UNL     1       3.393   6.564  17.406  0.00  0.00    +0.000 A 
ATOM      7  C   UNL     1       2.596   6.705  18.561  0.00  0.00    +0.000 A 
ENDROOT
BRANCH   5   8
ATOM      8  C   UNL     1       5.211   5.380  16.121  0.00  0.00    +0.000 A 
ATOM      9  N   UNL     1       6.372   5.921  15.792  0.00  0.00    +0.000 NA
ATOM     10  C   UNL     1       6.693   5.306  14.624  0.00  0.00    +0.000 A 
ATOM     11  N   UNL     1       7.814   5.515  13.897  0.00  0.00    +0.000 NA
ATOM     12  C   UNL     1       7.881   4.769  12.772  0.00  0.00    +0.000 A 
ATOM     13  C   UNL     1       6.918   3.854  12.342  0.00  0.00    +0.000 A 
ATOM     14  C   UNL     1       5.765   3.646  13.106  0.00  0.00    +0.000 A 
ATOM     15  C   UNL     1       5.701   4.412  14.262  0.00  0.00    +0.000 A 
ATOM     16  O   UNL     1       4.732   4.448  15.226  0.00  0.00    +0.000 OA
ENDBRANCH   5   8
BRANCH   7  17
ATOM     17  N   UNL     1       1.573   7.696  18.646  0.00  0.00    +0.000 N 
ATOM     18  C   UNL     1       1.716   9.012  18.248  0.00  0.00    +0.000 C 
ATOM     19  O   UNL     1       2.645   9.434  17.564  0.00  0.00    +0.000 OA
ATOM     20  H   UNL     1       0.682   7.384  18.985  0.00  0.00    +0.000 HD
BRANCH  18  21
ATOM     21  C   UNL     1       0.654  10.006  18.617  0.00  0.00    +0.000 A 
ATOM     22  C   UNL     1       0.746  10.960  19.656  0.00  0.00    +0.000 A 
ATOM     23  C   UNL     1      -0.343  11.806  19.946  0.00  0.00    +0.000 A 
ATOM     24  C   UNL     1      -1.492  11.665  19.195  0.00  0.00    +0.000 A 
ATOM     25  C   UNL     1      -1.566  10.771  18.157  0.00  0.00    +0.000 A 
ATOM     26  C   UNL     1      -0.517   9.946  17.838  0.00  0.00    +0.000 A 
ATOM     27  O   UNL     1      -2.780  10.776  17.545  0.00  0.00    +0.000 OA
ATOM     28  C   UNL     1      -3.527  11.551  18.500  0.00  0.00    +0.000 C 
ATOM     29  O   UNL     1      -2.673  12.321  19.378  0.00  0.00    +0.000 OA
ENDBRANCH  18  21
ENDBRANCH   7  17
TORSDOF 3
ENDMDL
MODEL 6
REMARK VINA RESULT:      -8.4      2.069      9.251
REMARK  Name = 
REMARK  4 active torsions:
REMARK  status: ('A' for Active; 'I' for Inactive)
REMARK    1  A    between atoms: C_1  and  C_2
REMARK    2  A    between atoms: C_5  and  C_6
REMARK    3  A    between atoms: C_16  and  N_17
REMARK    4  A    between atoms: C_18  and  C_20
REMARK                            x       y       z     vdW  Elec       q    Type
REMARK                         _______ _______ _______ _____ _____    ______ ____
ROOT
ATOM      1  C   UNL     1       3.613   2.127  19.219  0.00  0.00    +0.000 C 
ATOM      2  C   UNL     1       2.980   3.484  19.365  0.00  0.00    +0.000 A 
ATOM      3  C   UNL     1       2.099   3.679  20.438  0.00  0.00    +0.000 A 
ATOM      4  C   UNL     1       1.589   4.944  20.725  0.00  0.00    +0.000 A 
ATOM      5  C   UNL     1       1.945   6.051  19.950  0.00  0.00    +0.000 A 
ATOM      6  C   UNL     1       2.760   5.840  18.831  0.00  0.00    +0.000 A 
ATOM      7  C   UNL     1       3.279   4.567  18.515  0.00  0.00    +0.000 A 
ENDROOT
BRANCH   5   8
ATOM      8  C   UNL     1       1.477   7.372  20.368  0.00  0.00    +0.000 A 
ATOM      9  N   UNL     1       1.600   8.509  19.703  0.00  0.00    +0.000 NA
ATOM     10  C   UNL     1       0.942   9.408  20.481  0.00  0.00    +0.000 A 
ATOM     11  N   UNL     1       0.776  10.723  20.211  0.00  0.00    +0.000 NA
ATOM     12  C   UNL     1       0.080  11.390  21.157  0.00  0.00    +0.000 A 
ATOM     13  C   UNL     1      -0.444  10.836  22.327  0.00  0.00    +0.000 A 
ATOM     14  C   UNL     1      -0.268   9.474  22.591  0.00  0.00    +0.000 A 
ATOM     15  C   UNL     1       0.446   8.791  21.616  0.00  0.00    +0.000 A 
ATOM     16  O   UNL     1       0.785   7.468  21.556  0.00  0.00    +0.000 OA
ENDBRANCH   5   8
BRANCH   7  17
ATOM     17  N   UNL     1       4.064   4.350  17.344  0.00  0.00    +0.000 N 
ATOM     18  C   UNL     1       5.411   4.641  17.235  0.00  0.00    +0.000 C 
ATOM     19  O   UNL     1       6.146   4.897  18.184  0.00  0.00    +0.000 OA
ATOM     20  H   UNL     1       3.595   3.917  16.570  0.00  0.00    +0.000 HD
BRANCH  18  21
ATOM     21  C   UNL     1       6.059   4.597  15.882  0.00  0.00    +0.000 A 
ATOM     22  C   UNL     1       7.155   5.389  15.469  0.00  0.00    +0.000 A 
ATOM     23  C   UNL     1       7.644   5.299  14.151  0.00  0.00    +0.000 A 
ATOM     24  C   UNL     1       7.016   4.428  13.284  0.00  0.00    +0.000 A 
ATOM     25  C   UNL     1       5.983   3.626  13.696  0.00  0.00    +0.000 A 
ATOM     26  C   UNL     1       5.496   3.677  14.978  0.00  0.00    +0.000 A 
ATOM     27  O   UNL     1       5.494   2.844  12.698  0.00  0.00    +0.000 OA
ATOM     28  C   UNL     1       6.139   3.463  11.570  0.00  0.00    +0.000 C 
ATOM     29  O   UNL     1       7.280   4.265  11.957  0.00  0.00    +0.000 OA
ENDBRANCH  18  21
ENDBRANCH   7  17
TORSDOF 3
ENDMDL
MODEL 7
REMARK VINA RESULT:      -8.4      5.029      7.798
REMARK  Name = 
REMARK  4 active torsions:
REMARK  status: ('A' for Active; 'I' for Inactive)
REMARK    1  A    between atoms: C_1  and  C_2
REMARK    2  A    between atoms: C_5  and  C_6
REMARK    3  A    between atoms: C_16  and  N_17
REMARK    4  A    between atoms: C_18  and  C_20
REMARK                            x       y       z     vdW  Elec       q    Type
REMARK                         _______ _______ _______ _____ _____    ______ ____
ROOT
ATOM      1  C   UNL     1       7.986   5.882  14.630  0.00  0.00    +0.000 C 
ATOM      2  C   UNL     1       6.914   5.534  15.628  0.00  0.00    +0.000 A 
ATOM      3  C   UNL     1       6.199   4.345  15.426  0.00  0.00    +0.000 A 
ATOM      4  C   UNL     1       5.297   3.881  16.382  0.00  0.00    +0.000 A 
ATOM      5  C   UNL     1       5.083   4.591  17.567  0.00  0.00    +0.000 A 
ATOM      6  C   UNL     1       5.737   5.818  17.730  0.00  0.00    +0.000 A 
ATOM      7  C   UNL     1       6.646   6.312  16.771  0.00  0.00    +0.000 A 
ENDROOT
BRANCH   5   8
ATOM      8  C   UNL     1       4.217   3.998  18.586  0.00  0.00    +0.000 A 
ATOM      9  N   UNL     1       4.590   3.259  19.618  0.00  0.00    +0.000 NA
ATOM     10  C   UNL     1       3.429   3.030  20.285  0.00  0.00    +0.000 A 
ATOM     11  N   UNL     1       3.295   2.325  21.431  0.00  0.00    +0.000 NA
ATOM     12  C   UNL     1       2.023   2.251  21.880  0.00  0.00    +0.000 A 
ATOM     13  C   UNL     1       0.907   2.821  21.266  0.00  0.00    +0.000 A 
ATOM     14  C   UNL     1       1.060   3.550  20.082  0.00  0.00    +0.000 A 
ATOM     15  C   UNL     1       2.369   3.627  19.625  0.00  0.00    +0.000 A 
ATOM     16  O   UNL     1       2.866   4.260  18.520  0.00  0.00    +0.000 OA
ENDBRANCH   5   8
BRANCH   7  17
ATOM     17  N   UNL     1       7.268   7.587  16.918  0.00  0.00    +0.000 N 
ATOM     18  C   UNL     1       8.026   7.972  18.008  0.00  0.00    +0.000 C 
ATOM     19  O   UNL     1       8.453   7.203  18.865  0.00  0.00    +0.000 OA
ATOM     20  H   UNL     1       7.168   8.221  16.147  0.00  0.00    +0.000 HD
BRANCH  18  21
ATOM     21  C   UNL     1       8.415   9.415  18.153  0.00  0.00    +0.000 A 
ATOM     22  C   UNL     1       7.957  10.476  17.339  0.00  0.00    +0.000 A 
ATOM     23  C   UNL     1       8.438  11.785  17.537  0.00  0.00    +0.000 A 
ATOM     24  C   UNL     1       9.368  11.991  18.535  0.00  0.00    +0.000 A 
ATOM     25  C   UNL     1       9.777  10.971  19.356  0.00  0.00    +0.000 A 
ATOM     26  C   UNL     1       9.315   9.689  19.201  0.00  0.00    +0.000 A 
ATOM     27  O   UNL     1      10.700  11.371  20.271  0.00  0.00    +0.000 OA
ATOM     28  C   UNL     1      11.024  12.667  19.734  0.00  0.00    +0.000 C 
ATOM     29  O   UNL     1      10.014  13.157  18.821  0.00  0.00    +0.000 OA
ENDBRANCH  18  21
ENDBRANCH   7  17
TORSDOF 3
ENDMDL
MODEL 8
REMARK VINA RESULT:      -8.3      2.095      9.098
REMARK  Name = 
REMARK  4 active torsions:
REMARK  status: ('A' for Active; 'I' for Inactive)
REMARK    1  A    between atoms: C_1  and  C_2
REMARK    2  A    between atoms: C_5  and  C_6
REMARK    3  A    between atoms: C_16  and  N_17
REMARK    4  A    between atoms: C_18  and  C_20
REMARK                            x       y       z     vdW  Elec       q    Type
REMARK                         _______ _______ _______ _____ _____    ______ ____
ROOT
ATOM      1  C   UNL     1       3.464   3.025  19.849  0.00  0.00    +0.000 C 
ATOM      2  C   UNL     1       2.848   4.398  19.800  0.00  0.00    +0.000 A 
ATOM      3  C   UNL     1       1.972   4.754  20.836  0.00  0.00    +0.000 A 
ATOM      4  C   UNL     1       1.479   6.054  20.940  0.00  0.00    +0.000 A 
ATOM      5  C   UNL     1       1.846   7.035  20.014  0.00  0.00    +0.000 A 
ATOM      6  C   UNL     1       2.655   6.656  18.936  0.00  0.00    +0.000 A 
ATOM      7  C   UNL     1       3.157   5.345  18.805  0.00  0.00    +0.000 A 
ENDROOT
BRANCH   5   8
ATOM      8  C   UNL     1       1.395   8.408  20.240  0.00  0.00    +0.000 A 
ATOM      9  N   UNL     1       1.108   8.972  21.401  0.00  0.00    +0.000 NA
ATOM     10  C   UNL     1       0.819  10.257  21.070  0.00  0.00    +0.000 A 
ATOM     11  N   UNL     1       0.476  11.243  21.931  0.00  0.00    +0.000 NA
ATOM     12  C   UNL     1       0.239  12.431  21.332  0.00  0.00    +0.000 A 
ATOM     13  C   UNL     1       0.320  12.684  19.962  0.00  0.00    +0.000 A 
ATOM     14  C   UNL     1       0.678  11.657  19.084  0.00  0.00    +0.000 A 
ATOM     15  C   UNL     1       0.923  10.437  19.702  0.00  0.00    +0.000 A 
ATOM     16  O   UNL     1       1.298   9.245  19.150  0.00  0.00    +0.000 OA
ENDBRANCH   5   8
BRANCH   7  17
ATOM     17  N   UNL     1       3.937   4.953  17.676  0.00  0.00    +0.000 N 
ATOM     18  C   UNL     1       5.295   5.170  17.544  0.00  0.00    +0.000 C 
ATOM     19  O   UNL     1       6.038   5.508  18.461  0.00  0.00    +0.000 OA
ATOM     20  H   UNL     1       3.452   4.450  16.956  0.00  0.00    +0.000 HD
BRANCH  18  21
ATOM     21  C   UNL     1       5.946   4.934  16.212  0.00  0.00    +0.000 A 
ATOM     22  C   UNL     1       7.215   5.417  15.820  0.00  0.00    +0.000 A 
ATOM     23  C   UNL     1       7.699   5.177  14.519  0.00  0.00    +0.000 A 
ATOM     24  C   UNL     1       6.896   4.471  13.648  0.00  0.00    +0.000 A 
ATOM     25  C   UNL     1       5.684   3.962  14.042  0.00  0.00    +0.000 A 
ATOM     26  C   UNL     1       5.193   4.162  15.307  0.00  0.00    +0.000 A 
ATOM     27  O   UNL     1       5.040   3.304  13.041  0.00  0.00    +0.000 OA
ATOM     28  C   UNL     1       5.849   3.716  11.924  0.00  0.00    +0.000 C 
ATOM     29  O   UNL     1       7.144   4.216  12.332  0.00  0.00    +0.000 OA
ENDBRANCH  18  21
ENDBRANCH   7  17
TORSDOF 3
ENDMDL
MODEL 9
REMARK VINA RESULT:      -8.3      4.144     10.458
REMARK  Name = 
REMARK  4 active torsions:
REMARK  status: ('A' for Active; 'I' for Inactive)
REMARK    1  A    between atoms: C_1  and  C_2
REMARK    2  A    between atoms: C_5  and  C_6
REMARK    3  A    between atoms: C_16  and  N_17
REMARK    4  A    between atoms: C_18  and  C_20
REMARK                            x       y       z     vdW  Elec       q    Type
REMARK                         _______ _______ _______ _____ _____    ______ ____
ROOT
ATOM      1  C   UNL     1       2.586  11.865  18.199  0.00  0.00    +0.000 C 
ATOM      2  C   UNL     1       1.124  11.762  18.538  0.00  0.00    +0.000 A 
ATOM      3  C   UNL     1       0.454  12.943  18.892  0.00  0.00    +0.000 A 
ATOM      4  C   UNL     1      -0.928  12.953  19.076  0.00  0.00    +0.000 A 
ATOM      5  C   UNL     1      -1.681  11.787  18.911  0.00  0.00    +0.000 A 
ATOM      6  C   UNL     1      -1.000  10.594  18.637  0.00  0.00    +0.000 A 
ATOM      7  C   UNL     1       0.398  10.558  18.458  0.00  0.00    +0.000 A 
ENDROOT
BRANCH   5   8
ATOM      8  C   UNL     1      -3.138  11.881  18.998  0.00  0.00    +0.000 A 
ATOM      9  N   UNL     1      -4.018  11.472  18.099  0.00  0.00    +0.000 NA
ATOM     10  C   UNL     1      -5.216  11.719  18.690  0.00  0.00    +0.000 A 
ATOM     11  N   UNL     1      -6.433  11.453  18.163  0.00  0.00    +0.000 NA
ATOM     12  C   UNL     1      -7.463  11.802  18.965  0.00  0.00    +0.000 A 
ATOM     13  C   UNL     1      -7.351  12.387  20.227  0.00  0.00    +0.000 A 
ATOM     14  C   UNL     1      -6.087  12.654  20.761  0.00  0.00    +0.000 A 
ATOM     15  C   UNL     1      -5.031  12.292  19.936  0.00  0.00    +0.000 A 
ATOM     16  O   UNL     1      -3.685  12.402  20.150  0.00  0.00    +0.000 OA
ENDBRANCH   5   8
BRANCH   7  17
ATOM     17  N   UNL     1       1.091   9.331  18.232  0.00  0.00    +0.000 N 
ATOM     18  C   UNL     1       1.628   8.536  19.227  0.00  0.00    +0.000 C 
ATOM     19  O   UNL     1       1.377   8.655  20.423  0.00  0.00    +0.000 OA
ATOM     20  H   UNL     1       1.148   9.023  17.279  0.00  0.00    +0.000 HD
BRANCH  18  21
ATOM     21  C   UNL     1       2.541   7.407  18.847  0.00  0.00    +0.000 A 
ATOM     22  C   UNL     1       3.403   7.389  17.727  0.00  0.00    +0.000 A 
ATOM     23  C   UNL     1       4.175   6.247  17.439  0.00  0.00    +0.000 A 
ATOM     24  C   UNL     1       4.054   5.154  18.273  0.00  0.00    +0.000 A 
ATOM     25  C   UNL     1       3.253   5.187  19.386  0.00  0.00    +0.000 A 
ATOM     26  C   UNL     1       2.503   6.291  19.704  0.00  0.00    +0.000 A 
ATOM     27  O   UNL     1       3.262   4.016  20.075  0.00  0.00    +0.000 OA
ATOM     28  C   UNL     1       3.918   3.175  19.109  0.00  0.00    +0.000 C 
ATOM     29  O   UNL     1       4.642   3.936  18.114  0.00  0.00    +0.000 OA
ENDBRANCH  18  21
ENDBRANCH   7  17
TORSDOF 3
ENDMDL
