MODEL 1
REMARK VINA RESULT:      -8.2      0.000      0.000
REMARK  Name = 
REMARK  11 active torsions:
REMARK  status: ('A' for Active; 'I' for Inactive)
REMARK    1  A    between atoms: C_1  and  O_2
REMARK    2  A    between atoms: O_2  and  C_3
REMARK    3  A    between atoms: C_7  and  C_8
REMARK    4  A    between atoms: C_8  and  C_9
REMARK    5  A    between atoms: C_9  and  C_10
REMARK    6  A    between atoms: C_12  and  C_13
REMARK    7  A    between atoms: C_14  and  O_15
REMARK    8  A    between atoms: C_16  and  C_17
REMARK    9  A    between atoms: C_17  and  O_19
REMARK   10  A    between atoms: C_20  and  C_21
REMARK   11  A    between atoms: C_21  and  O_23
REMARK                            x       y       z     vdW  Elec       q    Type
REMARK                         _______ _______ _______ _____ _____    ______ ____
ROOT
ATOM      1  C   UNL     1       3.845   4.341  17.782  0.00  0.00    +0.000 A 
ATOM      2  N   UNL     1       3.522   5.652  17.651  0.00  0.00    +0.000 NA
ATOM      3  C   UNL     1       2.825   6.269  18.623  0.00  0.00    +0.000 A 
ATOM      4  C   UNL     1       2.574   7.728  18.419  0.00  0.00    +0.000 C 
ATOM      5  C   UNL     1       2.380   5.578  19.753  0.00  0.00    +0.000 A 
ATOM      6  C   UNL     1       2.664   4.202  19.877  0.00  0.00    +0.000 A 
ATOM      7  C   UNL     1       3.420   3.569  18.867  0.00  0.00    +0.000 A 
ENDROOT
BRANCH   5   8
ATOM      8  O   UNL     1       1.717   6.229  20.759  0.00  0.00    +0.000 OA
ATOM      9  H   UNL     1       2.194   7.023  21.046  0.00  0.00    +0.000 HD
ENDBRANCH   5   8
BRANCH   6  10
ATOM     10  C   UNL     1       2.005   3.488  21.012  0.00  0.00    +0.000 C 
ATOM     11  O   UNL     1       2.605   3.266  22.054  0.00  0.00    +0.000 OA
BRANCH  10  12
ATOM     12  O   UNL     1       0.742   3.060  20.837  0.00  0.00    +0.000 OA
ATOM     13  H   UNL     1       0.193   3.511  20.152  0.00  0.00    +0.000 HD
ENDBRANCH  10  12
ENDBRANCH   6  10
BRANCH   7  14
ATOM     14  C   UNL     1       3.905   2.191  19.045  0.00  0.00    +0.000 C 
ATOM     15  O   UNL     1       3.295   1.262  18.537  0.00  0.00    +0.000 OA
BRANCH  14  16
ATOM     16  O   UNL     1       5.002   1.987  19.793  0.00  0.00    +0.000 OA
ATOM     17  H   UNL     1       5.860   1.922  19.340  0.00  0.00    +0.000 HD
ENDBRANCH  14  16
ENDBRANCH   7  14
BRANCH   1  18
ATOM     18  C   UNL     1       4.685   3.836  16.633  0.00  0.00    +0.000 C 
BRANCH  18  19
ATOM     19  C   UNL     1       5.599   4.954  16.130  0.00  0.00    +0.000 C 
BRANCH  19  24
ATOM     20  C   UNL     1       5.844   3.510  12.633  0.00  0.00    +0.000 A 
ATOM     21  C   UNL     1       7.023   4.097  12.174  0.00  0.00    +0.000 A 
ATOM     22  C   UNL     1       7.741   4.977  12.986  0.00  0.00    +0.000 A 
ATOM     23  C   UNL     1       7.289   5.273  14.270  0.00  0.00    +0.000 A 
ATOM     24  C   UNL     1       6.114   4.679  14.746  0.00  0.00    +0.000 A 
ATOM     25  C   UNL     1       5.391   3.815  13.916  0.00  0.00    +0.000 A 
BRANCH  20  27
ATOM     26  C   UNL     1       4.014   3.133  11.169  0.00  0.00    +0.000 C 
ATOM     27  O   UNL     1       5.226   2.663  11.756  0.00  0.00    +0.000 OA
ENDBRANCH  20  27
ENDBRANCH  19  24
ENDBRANCH  18  19
ENDBRANCH   1  18
TORSDOF 9
ENDMDL
MODEL 2
REMARK VINA RESULT:      -8.1      2.511      3.963
REMARK  Name = 
REMARK  11 active torsions:
REMARK  status: ('A' for Active; 'I' for Inactive)
REMARK    1  A    between atoms: C_1  and  O_2
REMARK    2  A    between atoms: O_2  and  C_3
REMARK    3  A    between atoms: C_7  and  C_8
REMARK    4  A    between atoms: C_8  and  C_9
REMARK    5  A    between atoms: C_9  and  C_10
REMARK    6  A    between atoms: C_12  and  C_13
REMARK    7  A    between atoms: C_14  and  O_15
REMARK    8  A    between atoms: C_16  and  C_17
REMARK    9  A    between atoms: C_17  and  O_19
REMARK   10  A    between atoms: C_20  and  C_21
REMARK   11  A    between atoms: C_21  and  O_23
REMARK                            x       y       z     vdW  Elec       q    Type
REMARK                         _______ _______ _______ _____ _____    ______ ____
ROOT
ATOM      1  C   UNL     1       3.687   4.465  17.886  0.00  0.00    +0.000 A 
ATOM      2  N   UNL     1       3.328   5.768  17.775  0.00  0.00    +0.000 NA
ATOM      3  C   UNL     1       2.640   6.358  18.769  0.00  0.00    +0.000 A 
ATOM      4  C   UNL     1       2.347   7.813  18.585  0.00  0.00    +0.000 C 
ATOM      5  C   UNL     1       2.238   5.647  19.903  0.00  0.00    +0.000 A 
ATOM      6  C   UNL     1       2.559   4.277  20.007  0.00  0.00    +0.000 A 
ATOM      7  C   UNL     1       3.307   3.672  18.974  0.00  0.00    +0.000 A 
ENDROOT
BRANCH   5   8
ATOM      8  O   UNL     1       1.583   6.271  20.930  0.00  0.00    +0.000 OA
ATOM      9  H   UNL     1       1.558   5.718  21.726  0.00  0.00    +0.000 HD
ENDBRANCH   5   8
BRANCH   6  10
ATOM     10  C   UNL     1       1.944   3.536  21.150  0.00  0.00    +0.000 C 
ATOM     11  O   UNL     1       2.516   3.449  22.228  0.00  0.00    +0.000 OA
BRANCH  10  12
ATOM     12  O   UNL     1       0.761   2.931  20.943  0.00  0.00    +0.000 OA
ATOM     13  H   UNL     1       0.083   3.414  20.414  0.00  0.00    +0.000 HD
ENDBRANCH  10  12
ENDBRANCH   6  10
BRANCH   7  14
ATOM     14  C   UNL     1       3.830   2.305  19.127  0.00  0.00    +0.000 C 
ATOM     15  O   UNL     1       3.215   1.362  18.651  0.00  0.00    +0.000 OA
BRANCH  14  16
ATOM     16  O   UNL     1       4.968   2.126  19.817  0.00  0.00    +0.000 OA
ATOM     17  H   UNL     1       5.311   2.874  20.336  0.00  0.00    +0.000 HD
ENDBRANCH  14  16
ENDBRANCH   7  14
BRANCH   1  18
ATOM     18  C   UNL     1       4.512   3.991  16.713  0.00  0.00    +0.000 C 
BRANCH  18  19
ATOM     19  C   UNL     1       5.238   5.179  16.078  0.00  0.00    +0.000 C 
BRANCH  19  24
ATOM     20  C   UNL     1       7.519   7.718  17.728  0.00  0.00    +0.000 A 
ATOM     21  C   UNL     1       8.185   6.924  18.661  0.00  0.00    +0.000 A 
ATOM     22  C   UNL     1       7.891   5.564  18.776  0.00  0.00    +0.000 A 
ATOM     23  C   UNL     1       6.932   4.983  17.952  0.00  0.00    +0.000 A 
ATOM     24  C   UNL     1       6.266   5.767  17.001  0.00  0.00    +0.000 A 
ATOM     25  C   UNL     1       6.553   7.134  16.909  0.00  0.00    +0.000 A 
BRANCH  20  27
ATOM     26  C   UNL     1       8.788   9.460  18.722  0.00  0.00    +0.000 C 
ATOM     27  O   UNL     1       7.889   9.033  17.701  0.00  0.00    +0.000 OA
ENDBRANCH  20  27
ENDBRANCH  19  24
ENDBRANCH  18  19
ENDBRANCH   1  18
TORSDOF 9
ENDMDL
MODEL 3
REMARK VINA RESULT:      -7.6      3.118      7.776
REMARK  Name = 
REMARK  11 active torsions:
REMARK  status: ('A' for Active; 'I' for Inactive)
REMARK    1  A    between atoms: C_1  and  O_2
REMARK    2  A    between atoms: O_2  and  C_3
REMARK    3  A    between atoms: C_7  and  C_8
REMARK    4  A    between atoms: C_8  and  C_9
REMARK    5  A    between atoms: C_9  and  C_10
REMARK    6  A    between atoms: C_12  and  C_13
REMARK    7  A    between atoms: C_14  and  O_15
REMARK    8  A    between atoms: C_16  and  C_17
REMARK    9  A    between atoms: C_17  and  O_19
REMARK   10  A    between atoms: C_20  and  C_21
REMARK   11  A    between atoms: C_21  and  O_23
REMARK                            x       y       z     vdW  Elec       q    Type
REMARK                         _______ _______ _______ _____ _____    ______ ____
ROOT
ATOM      1  C   UNL     1       2.560   5.625  19.802  0.00  0.00    +0.000 A 
ATOM      2  N   UNL     1       3.228   6.309  18.841  0.00  0.00    +0.000 NA
ATOM      3  C   UNL     1       4.039   5.650  17.992  0.00  0.00    +0.000 A 
ATOM      4  C   UNL     1       4.680   6.479  16.926  0.00  0.00    +0.000 C 
ATOM      5  C   UNL     1       4.251   4.274  18.106  0.00  0.00    +0.000 A 
ATOM      6  C   UNL     1       3.603   3.558  19.136  0.00  0.00    +0.000 A 
ATOM      7  C   UNL     1       2.732   4.252  20.003  0.00  0.00    +0.000 A 
ENDROOT
BRANCH   5   8
ATOM      8  O   UNL     1       5.037   3.606  17.206  0.00  0.00    +0.000 OA
ATOM      9  H   UNL     1       4.519   3.273  16.457  0.00  0.00    +0.000 HD
ENDBRANCH   5   8
BRANCH   6  10
ATOM     10  C   UNL     1       4.015   2.133  19.315  0.00  0.00    +0.000 C 
ATOM     11  O   UNL     1       3.478   1.235  18.681  0.00  0.00    +0.000 OA
BRANCH  10  12
ATOM     12  O   UNL     1       4.967   1.863  20.225  0.00  0.00    +0.000 OA
ATOM     13  H   UNL     1       4.759   2.037  21.175  0.00  0.00    +0.000 HD
ENDBRANCH  10  12
ENDBRANCH   6  10
BRANCH   7  14
ATOM     14  C   UNL     1       1.889   3.521  20.963  0.00  0.00    +0.000 C 
ATOM     15  O   UNL     1       2.299   3.311  22.094  0.00  0.00    +0.000 OA
BRANCH  14  16
ATOM     16  O   UNL     1       0.689   3.076  20.555  0.00  0.00    +0.000 OA
ATOM     17  H   UNL     1       0.241   3.558  19.839  0.00  0.00    +0.000 HD
ENDBRANCH  14  16
ENDBRANCH   7  14
BRANCH   1  18
ATOM     18  C   UNL     1       1.647   6.513  20.613  0.00  0.00    +0.000 C 
BRANCH  18  19
ATOM     19  C   UNL     1       1.812   7.968  20.169  0.00  0.00    +0.000 C 
BRANCH  19  24
ATOM     20  C   UNL     1      -0.639  10.756  20.940  0.00  0.00    +0.000 A 
ATOM     21  C   UNL     1      -0.720  10.676  22.330  0.00  0.00    +0.000 A 
ATOM     22  C   UNL     1       0.005   9.709  23.029  0.00  0.00    +0.000 A 
ATOM     23  C   UNL     1       0.826   8.817  22.343  0.00  0.00    +0.000 A 
ATOM     24  C   UNL     1       0.925   8.897  20.948  0.00  0.00    +0.000 A 
ATOM     25  C   UNL     1       0.177   9.856  20.256  0.00  0.00    +0.000 A 
BRANCH  20  27
ATOM     26  C   UNL     1      -1.692  11.577  18.979  0.00  0.00    +0.000 C 
ATOM     27  O   UNL     1      -1.388  11.742  20.362  0.00  0.00    +0.000 OA
ENDBRANCH  20  27
ENDBRANCH  19  24
ENDBRANCH  18  19
ENDBRANCH   1  18
TORSDOF 9
ENDMDL
MODEL 4
REMARK VINA RESULT:      -7.5      3.286      7.957
REMARK  Name = 
REMARK  11 active torsions:
REMARK  status: ('A' for Active; 'I' for Inactive)
REMARK    1  A    between atoms: C_1  and  O_2
REMARK    2  A    between atoms: O_2  and  C_3
REMARK    3  A    between atoms: C_7  and  C_8
REMARK    4  A    between atoms: C_8  and  C_9
REMARK    5  A    between atoms: C_9  and  C_10
REMARK    6  A    between atoms: C_12  and  C_13
REMARK    7  A    between atoms: C_14  and  O_15
REMARK    8  A    between atoms: C_16  and  C_17
REMARK    9  A    between atoms: C_17  and  O_19
REMARK   10  A    between atoms: C_20  and  C_21
REMARK   11  A    between atoms: C_21  and  O_23
REMARK                            x       y       z     vdW  Elec       q    Type
REMARK                         _______ _______ _______ _____ _____    ______ ____
ROOT
ATOM      1  C   UNL     1       2.440   5.562  19.883  0.00  0.00    +0.000 A 
ATOM      2  N   UNL     1       3.128   6.288  18.967  0.00  0.00    +0.000 NA
ATOM      3  C   UNL     1       4.062   5.690  18.205  0.00  0.00    +0.000 A 
ATOM      4  C   UNL     1       4.719   6.557  17.180  0.00  0.00    +0.000 C 
ATOM      5  C   UNL     1       4.380   4.339  18.366  0.00  0.00    +0.000 A 
ATOM      6  C   UNL     1       3.709   3.584  19.352  0.00  0.00    +0.000 A 
ATOM      7  C   UNL     1       2.711   4.212  20.127  0.00  0.00    +0.000 A 
ENDROOT
BRANCH   5   8
ATOM      8  O   UNL     1       5.295   3.730  17.550  0.00  0.00    +0.000 OA
ATOM      9  H   UNL     1       5.614   2.897  17.930  0.00  0.00    +0.000 HD
ENDBRANCH   5   8
BRANCH   6  10
ATOM     10  C   UNL     1       4.224   2.203  19.595  0.00  0.00    +0.000 C 
ATOM     11  O   UNL     1       4.941   1.955  20.555  0.00  0.00    +0.000 OA
BRANCH  10  12
ATOM     12  O   UNL     1       3.909   1.248  18.703  0.00  0.00    +0.000 OA
ATOM     13  H   UNL     1       3.213   1.454  18.034  0.00  0.00    +0.000 HD
ENDBRANCH  10  12
ENDBRANCH   6  10
BRANCH   7  14
ATOM     14  C   UNL     1       1.853   3.424  21.027  0.00  0.00    +0.000 C 
ATOM     15  O   UNL     1       2.199   3.233  22.183  0.00  0.00    +0.000 OA
BRANCH  14  16
ATOM     16  O   UNL     1       0.713   2.907  20.539  0.00  0.00    +0.000 OA
ATOM     17  H   UNL     1       0.596   2.887  19.573  0.00  0.00    +0.000 HD
ENDBRANCH  14  16
ENDBRANCH   7  14
BRANCH   1  18
ATOM     18  C   UNL     1       1.387   6.378  20.595  0.00  0.00    +0.000 C 
BRANCH  18  19
ATOM     19  C   UNL     1       2.020   7.645  21.174  0.00  0.00    +0.000 C 
BRANCH  19  24
ATOM     20  C   UNL     1      -0.321  10.436  22.227  0.00  0.00    +0.000 A 
ATOM     21  C   UNL     1      -0.652  10.997  20.994  0.00  0.00    +0.000 A 
ATOM     22  C   UNL     1      -0.110  10.488  19.813  0.00  0.00    +0.000 A 
ATOM     23  C   UNL     1       0.765   9.406  19.853  0.00  0.00    +0.000 A 
ATOM     24  C   UNL     1       1.095   8.826  21.085  0.00  0.00    +0.000 A 
ATOM     25  C   UNL     1       0.562   9.358  22.264  0.00  0.00    +0.000 A 
BRANCH  20  27
ATOM     26  C   UNL     1      -1.440  12.324  23.131  0.00  0.00    +0.000 C 
ATOM     27  O   UNL     1      -0.912  11.012  23.316  0.00  0.00    +0.000 OA
ENDBRANCH  20  27
ENDBRANCH  19  24
ENDBRANCH  18  19
ENDBRANCH   1  18
TORSDOF 9
ENDMDL
MODEL 5
REMARK VINA RESULT:      -7.5      2.620      6.556
REMARK  Name = 
REMARK  11 active torsions:
REMARK  status: ('A' for Active; 'I' for Inactive)
REMARK    1  A    between atoms: C_1  and  O_2
REMARK    2  A    between atoms: O_2  and  C_3
REMARK    3  A    between atoms: C_7  and  C_8
REMARK    4  A    between atoms: C_8  and  C_9
REMARK    5  A    between atoms: C_9  and  C_10
REMARK    6  A    between atoms: C_12  and  C_13
REMARK    7  A    between atoms: C_14  and  O_15
REMARK    8  A    between atoms: C_16  and  C_17
REMARK    9  A    between atoms: C_17  and  O_19
REMARK   10  A    between atoms: C_20  and  C_21
REMARK   11  A    between atoms: C_21  and  O_23
REMARK                            x       y       z     vdW  Elec       q    Type
REMARK                         _______ _______ _______ _____ _____    ______ ____
ROOT
ATOM      1  C   UNL     1       4.696   3.739  16.894  0.00  0.00    +0.000 A 
ATOM      2  N   UNL     1       4.838   3.598  15.553  0.00  0.00    +0.000 NA
ATOM      3  C   UNL     1       5.848   4.222  14.919  0.00  0.00    +0.000 A 
ATOM      4  C   UNL     1       5.961   3.954  13.453  0.00  0.00    +0.000 C 
ATOM      5  C   UNL     1       6.734   5.058  15.603  0.00  0.00    +0.000 A 
ATOM      6  C   UNL     1       6.566   5.255  16.990  0.00  0.00    +0.000 A 
ATOM      7  C   UNL     1       5.522   4.575  17.653  0.00  0.00    +0.000 A 
ENDROOT
BRANCH   5   8
ATOM      8  O   UNL     1       7.787   5.646  14.956  0.00  0.00    +0.000 OA
ATOM      9  H   UNL     1       8.216   6.318  15.509  0.00  0.00    +0.000 HD
ENDBRANCH   5   8
BRANCH   6  10
ATOM     10  C   UNL     1       7.429   6.299  17.622  0.00  0.00    +0.000 C 
ATOM     11  O   UNL     1       7.563   7.403  17.111  0.00  0.00    +0.000 OA
BRANCH  10  12
ATOM     12  O   UNL     1       8.086   5.974  18.748  0.00  0.00    +0.000 OA
ATOM     13  H   UNL     1       8.222   5.016  18.943  0.00  0.00    +0.000 HD
ENDBRANCH  10  12
ENDBRANCH   6  10
BRANCH   7  14
ATOM     14  C   UNL     1       5.426   4.594  19.121  0.00  0.00    +0.000 C 
ATOM     15  O   UNL     1       5.494   3.548  19.748  0.00  0.00    +0.000 OA
BRANCH  14  16
ATOM     16  O   UNL     1       5.236   5.773  19.737  0.00  0.00    +0.000 OA
ATOM     17  H   UNL     1       6.021   6.282  20.004  0.00  0.00    +0.000 HD
ENDBRANCH  14  16
ENDBRANCH   7  14
BRANCH   1  18
ATOM     18  C   UNL     1       3.556   2.915  17.444  0.00  0.00    +0.000 C 
BRANCH  18  19
ATOM     19  C   UNL     1       2.245   3.692  17.312  0.00  0.00    +0.000 C 
BRANCH  19  24
ATOM     20  C   UNL     1       2.102   6.997  19.164  0.00  0.00    +0.000 A 
ATOM     21  C   UNL     1       1.776   6.577  20.453  0.00  0.00    +0.000 A 
ATOM     22  C   UNL     1       1.585   5.222  20.731  0.00  0.00    +0.000 A 
ATOM     23  C   UNL     1       1.725   4.273  19.723  0.00  0.00    +0.000 A 
ATOM     24  C   UNL     1       2.065   4.682  18.427  0.00  0.00    +0.000 A 
ATOM     25  C   UNL     1       2.233   6.045  18.154  0.00  0.00    +0.000 A 
BRANCH  20  27
ATOM     26  C   UNL     1       1.716   8.918  17.824  0.00  0.00    +0.000 C 
ATOM     27  O   UNL     1       2.268   8.345  19.007  0.00  0.00    +0.000 OA
ENDBRANCH  20  27
ENDBRANCH  19  24
ENDBRANCH  18  19
ENDBRANCH   1  18
TORSDOF 9
ENDMDL
MODEL 6
REMARK VINA RESULT:      -7.5      2.621      6.791
REMARK  Name = 
REMARK  11 active torsions:
REMARK  status: ('A' for Active; 'I' for Inactive)
REMARK    1  A    between atoms: C_1  and  O_2
REMARK    2  A    between atoms: O_2  and  C_3
REMARK    3  A    between atoms: C_7  and  C_8
REMARK    4  A    between atoms: C_8  and  C_9
REMARK    5  A    between atoms: C_9  and  C_10
REMARK    6  A    between atoms: C_12  and  C_13
REMARK    7  A    between atoms: C_14  and  O_15
REMARK    8  A    between atoms: C_16  and  C_17
REMARK    9  A    between atoms: C_17  and  O_19
REMARK   10  A    between atoms: C_20  and  C_21
REMARK   11  A    between atoms: C_21  and  O_23
REMARK                            x       y       z     vdW  Elec       q    Type
REMARK                         _______ _______ _______ _____ _____    ______ ____
ROOT
ATOM      1  C   UNL     1       4.809   3.627  16.740  0.00  0.00    +0.000 A 
ATOM      2  N   UNL     1       4.978   3.504  15.400  0.00  0.00    +0.000 NA
ATOM      3  C   UNL     1       5.964   4.184  14.786  0.00  0.00    +0.000 A 
ATOM      4  C   UNL     1       6.114   3.933  13.320  0.00  0.00    +0.000 C 
ATOM      5  C   UNL     1       6.796   5.059  15.490  0.00  0.00    +0.000 A 
ATOM      6  C   UNL     1       6.597   5.237  16.875  0.00  0.00    +0.000 A 
ATOM      7  C   UNL     1       5.579   4.498  17.517  0.00  0.00    +0.000 A 
ENDROOT
BRANCH   5   8
ATOM      8  O   UNL     1       7.827   5.705  14.863  0.00  0.00    +0.000 OA
ATOM      9  H   UNL     1       8.086   6.511  15.338  0.00  0.00    +0.000 HD
ENDBRANCH   5   8
BRANCH   6  10
ATOM     10  C   UNL     1       7.395   6.319  17.527  0.00  0.00    +0.000 C 
ATOM     11  O   UNL     1       7.468   7.435  17.034  0.00  0.00    +0.000 OA
BRANCH  10  12
ATOM     12  O   UNL     1       8.064   6.015  18.653  0.00  0.00    +0.000 OA
ATOM     13  H   UNL     1       8.736   5.293  18.610  0.00  0.00    +0.000 HD
ENDBRANCH  10  12
ENDBRANCH   6  10
BRANCH   7  14
ATOM     14  C   UNL     1       5.460   4.502  18.984  0.00  0.00    +0.000 C 
ATOM     15  O   UNL     1       5.399   5.564  19.585  0.00  0.00    +0.000 OA
BRANCH  14  16
ATOM     16  O   UNL     1       5.451   3.325  19.631  0.00  0.00    +0.000 OA
ATOM     17  H   UNL     1       5.401   3.336  20.602  0.00  0.00    +0.000 HD
ENDBRANCH  14  16
ENDBRANCH   7  14
BRANCH   1  18
ATOM     18  C   UNL     1       3.705   2.741  17.266  0.00  0.00    +0.000 C 
BRANCH  18  19
ATOM     19  C   UNL     1       2.368   3.482  17.193  0.00  0.00    +0.000 C 
BRANCH  19  24
ATOM     20  C   UNL     1       1.950   6.355  19.630  0.00  0.00    +0.000 A 
ATOM     21  C   UNL     1       1.561   5.681  20.787  0.00  0.00    +0.000 A 
ATOM     22  C   UNL     1       1.416   4.292  20.785  0.00  0.00    +0.000 A 
ATOM     23  C   UNL     1       1.666   3.563  19.625  0.00  0.00    +0.000 A 
ATOM     24  C   UNL     1       2.070   4.229  18.461  0.00  0.00    +0.000 A 
ATOM     25  C   UNL     1       2.191   5.623  18.469  0.00  0.00    +0.000 A 
BRANCH  20  27
ATOM     26  C   UNL     1       1.408   8.308  20.866  0.00  0.00    +0.000 C 
ATOM     27  O   UNL     1       2.063   7.712  19.748  0.00  0.00    +0.000 OA
ENDBRANCH  20  27
ENDBRANCH  19  24
ENDBRANCH  18  19
ENDBRANCH   1  18
TORSDOF 9
ENDMDL
MODEL 7
REMARK VINA RESULT:      -7.4      3.374      7.292
REMARK  Name = 
REMARK  11 active torsions:
REMARK  status: ('A' for Active; 'I' for Inactive)
REMARK    1  A    between atoms: C_1  and  O_2
REMARK    2  A    between atoms: O_2  and  C_3
REMARK    3  A    between atoms: C_7  and  C_8
REMARK    4  A    between atoms: C_8  and  C_9
REMARK    5  A    between atoms: C_9  and  C_10
REMARK    6  A    between atoms: C_12  and  C_13
REMARK    7  A    between atoms: C_14  and  O_15
REMARK    8  A    between atoms: C_16  and  C_17
REMARK    9  A    between atoms: C_17  and  O_19
REMARK   10  A    between atoms: C_20  and  C_21
REMARK   11  A    between atoms: C_21  and  O_23
REMARK                            x       y       z     vdW  Elec       q    Type
REMARK                         _______ _______ _______ _____ _____    ______ ____
ROOT
ATOM      1  C   UNL     1       3.075   6.039  18.090  0.00  0.00    +0.000 A 
ATOM      2  N   UNL     1       4.241   6.671  17.806  0.00  0.00    +0.000 NA
ATOM      3  C   UNL     1       5.397   5.982  17.829  0.00  0.00    +0.000 A 
ATOM      4  C   UNL     1       6.620   6.747  17.438  0.00  0.00    +0.000 C 
ATOM      5  C   UNL     1       5.435   4.632  18.188  0.00  0.00    +0.000 A 
ATOM      6  C   UNL     1       4.236   3.976  18.537  0.00  0.00    +0.000 A 
ATOM      7  C   UNL     1       3.025   4.698  18.483  0.00  0.00    +0.000 A 
ENDROOT
BRANCH   5   8
ATOM      8  O   UNL     1       6.610   3.929  18.158  0.00  0.00    +0.000 OA
ATOM      9  H   UNL     1       6.752   3.507  17.296  0.00  0.00    +0.000 HD
ENDBRANCH   5   8
BRANCH   6  10
ATOM     10  C   UNL     1       4.371   2.593  19.086  0.00  0.00    +0.000 C 
ATOM     11  O   UNL     1       4.890   2.393  20.176  0.00  0.00    +0.000 OA
BRANCH  10  12
ATOM     12  O   UNL     1       3.941   1.570  18.327  0.00  0.00    +0.000 OA
ATOM     13  H   UNL     1       4.602   1.108  17.758  0.00  0.00    +0.000 HD
ENDBRANCH  10  12
ENDBRANCH   6  10
BRANCH   7  14
ATOM     14  C   UNL     1       1.733   4.012  18.648  0.00  0.00    +0.000 C 
ATOM     15  O   UNL     1       1.268   3.364  17.722  0.00  0.00    +0.000 OA
BRANCH  14  16
ATOM     16  O   UNL     1       1.081   4.141  19.815  0.00  0.00    +0.000 OA
ATOM     17  H   UNL     1       1.012   3.360  20.390  0.00  0.00    +0.000 HD
ENDBRANCH  14  16
ENDBRANCH   7  14
BRANCH   1  18
ATOM     18  C   UNL     1       1.877   6.948  17.947  0.00  0.00    +0.000 C 
BRANCH  18  19
ATOM     19  C   UNL     1       2.321   8.409  18.046  0.00  0.00    +0.000 C 
BRANCH  19  24
ATOM     20  C   UNL     1       0.535  10.156  20.897  0.00  0.00    +0.000 A 
ATOM     21  C   UNL     1      -0.518  10.776  20.224  0.00  0.00    +0.000 A 
ATOM     22  C   UNL     1      -0.649  10.647  18.840  0.00  0.00    +0.000 A 
ATOM     23  C   UNL     1       0.267   9.889  18.116  0.00  0.00    +0.000 A 
ATOM     24  C   UNL     1       1.320   9.251  18.783  0.00  0.00    +0.000 A 
ATOM     25  C   UNL     1       1.455   9.404  20.168  0.00  0.00    +0.000 A 
BRANCH  20  27
ATOM     26  C   UNL     1      -0.462   9.704  23.003  0.00  0.00    +0.000 C 
ATOM     27  O   UNL     1       0.564  10.347  22.250  0.00  0.00    +0.000 OA
ENDBRANCH  20  27
ENDBRANCH  19  24
ENDBRANCH  18  19
ENDBRANCH   1  18
TORSDOF 9
ENDMDL
MODEL 8
REMARK VINA RESULT:      -7.3      3.423      7.154
REMARK  Name = 
REMARK  11 active torsions:
REMARK  status: ('A' for Active; 'I' for Inactive)
REMARK    1  A    between atoms: C_1  and  O_2
REMARK    2  A    between atoms: O_2  and  C_3
REMARK    3  A    between atoms: C_7  and  C_8
REMARK    4  A    between atoms: C_8  and  C_9
REMARK    5  A    between atoms: C_9  and  C_10
REMARK    6  A    between atoms: C_12  and  C_13
REMARK    7  A    between atoms: C_14  and  O_15
REMARK    8  A    between atoms: C_16  and  C_17
REMARK    9  A    between atoms: C_17  and  O_19
REMARK   10  A    between atoms: C_20  and  C_21
REMARK   11  A    between atoms: C_21  and  O_23
REMARK                            x       y       z     vdW  Elec       q    Type
REMARK                         _______ _______ _______ _____ _____    ______ ____
ROOT
ATOM      1  C   UNL     1       3.309   6.152  17.869  0.00  0.00    +0.000 A 
ATOM      2  N   UNL     1       4.506   6.755  17.661  0.00  0.00    +0.000 NA
ATOM      3  C   UNL     1       5.643   6.046  17.788  0.00  0.00    +0.000 A 
ATOM      4  C   UNL     1       6.907   6.779  17.474  0.00  0.00    +0.000 C 
ATOM      5  C   UNL     1       5.626   4.705  18.180  0.00  0.00    +0.000 A 
ATOM      6  C   UNL     1       4.391   4.080  18.452  0.00  0.00    +0.000 A 
ATOM      7  C   UNL     1       3.202   4.823  18.288  0.00  0.00    +0.000 A 
ENDROOT
BRANCH   5   8
ATOM      8  O   UNL     1       6.786   3.980  18.256  0.00  0.00    +0.000 OA
ATOM      9  H   UNL     1       7.260   4.151  19.085  0.00  0.00    +0.000 HD
ENDBRANCH   5   8
BRANCH   6  10
ATOM     10  C   UNL     1       4.456   2.708  19.042  0.00  0.00    +0.000 C 
ATOM     11  O   UNL     1       4.951   2.517  20.143  0.00  0.00    +0.000 OA
BRANCH  10  12
ATOM     12  O   UNL     1       3.990   1.685  18.305  0.00  0.00    +0.000 OA
ATOM     13  H   UNL     1       3.212   1.185  18.651  0.00  0.00    +0.000 HD
ENDBRANCH  10  12
ENDBRANCH   6  10
BRANCH   7  14
ATOM     14  C   UNL     1       1.888   4.164  18.370  0.00  0.00    +0.000 C 
ATOM     15  O   UNL     1       1.443   3.575  17.397  0.00  0.00    +0.000 OA
BRANCH  14  16
ATOM     16  O   UNL     1       1.194   4.255  19.516  0.00  0.00    +0.000 OA
ATOM     17  H   UNL     1       0.952   5.141  19.837  0.00  0.00    +0.000 HD
ENDBRANCH  14  16
ENDBRANCH   7  14
BRANCH   1  18
ATOM     18  C   UNL     1       2.144   7.079  17.614  0.00  0.00    +0.000 C 
BRANCH  18  19
ATOM     19  C   UNL     1       2.462   8.472  18.161  0.00  0.00    +0.000 C 
BRANCH  19  24
ATOM     20  C   UNL     1      -0.262  10.315  20.048  0.00  0.00    +0.000 A 
ATOM     21  C   UNL     1      -0.220   9.676  21.286  0.00  0.00    +0.000 A 
ATOM     22  C   UNL     1       0.679   8.633  21.517  0.00  0.00    +0.000 A 
ATOM     23  C   UNL     1       1.551   8.224  20.512  0.00  0.00    +0.000 A 
ATOM     24  C   UNL     1       1.527   8.867  19.268  0.00  0.00    +0.000 A 
ATOM     25  C   UNL     1       0.607   9.897  19.041  0.00  0.00    +0.000 A 
BRANCH  20  27
ATOM     26  C   UNL     1      -1.115  12.106  18.744  0.00  0.00    +0.000 C 
ATOM     27  O   UNL     1      -1.178  11.324  19.934  0.00  0.00    +0.000 OA
ENDBRANCH  20  27
ENDBRANCH  19  24
ENDBRANCH  18  19
ENDBRANCH   1  18
TORSDOF 9
ENDMDL
MODEL 9
REMARK VINA RESULT:      -7.3      2.825      7.618
REMARK  Name = 
REMARK  11 active torsions:
REMARK  status: ('A' for Active; 'I' for Inactive)
REMARK    1  A    between atoms: C_1  and  O_2
REMARK    2  A    between atoms: O_2  and  C_3
REMARK    3  A    between atoms: C_7  and  C_8
REMARK    4  A    between atoms: C_8  and  C_9
REMARK    5  A    between atoms: C_9  and  C_10
REMARK    6  A    between atoms: C_12  and  C_13
REMARK    7  A    between atoms: C_14  and  O_15
REMARK    8  A    between atoms: C_16  and  C_17
REMARK    9  A    between atoms: C_17  and  O_19
REMARK   10  A    between atoms: C_20  and  C_21
REMARK   11  A    between atoms: C_21  and  O_23
REMARK                            x       y       z     vdW  Elec       q    Type
REMARK                         _______ _______ _______ _____ _____    ______ ____
ROOT
ATOM      1  C   UNL     1       2.917   5.929  19.160  0.00  0.00    +0.000 A 
ATOM      2  N   UNL     1       3.657   6.363  18.109  0.00  0.00    +0.000 NA
ATOM      3  C   UNL     1       4.356   5.477  17.375  0.00  0.00    +0.000 A 
ATOM      4  C   UNL     1       5.088   6.040  16.199  0.00  0.00    +0.000 C 
ATOM      5  C   UNL     1       4.380   4.118  17.697  0.00  0.00    +0.000 A 
ATOM      6  C   UNL     1       3.657   3.662  18.820  0.00  0.00    +0.000 A 
ATOM      7  C   UNL     1       2.903   4.592  19.567  0.00  0.00    +0.000 A 
ENDROOT
BRANCH   5   8
ATOM      8  O   UNL     1       5.054   3.221  16.913  0.00  0.00    +0.000 OA
ATOM      9  H   UNL     1       4.765   3.267  15.988  0.00  0.00    +0.000 HD
ENDBRANCH   5   8
BRANCH   6  10
ATOM     10  C   UNL     1       3.873   2.237  19.215  0.00  0.00    +0.000 C 
ATOM     11  O   UNL     1       4.672   1.939  20.092  0.00  0.00    +0.000 OA
BRANCH  10  12
ATOM     12  O   UNL     1       3.192   1.290  18.547  0.00  0.00    +0.000 OA
ATOM     13  H   UNL     1       2.300   1.038  18.886  0.00  0.00    +0.000 HD
ENDBRANCH  10  12
ENDBRANCH   6  10
BRANCH   7  14
ATOM     14  C   UNL     1       1.982   4.137  20.622  0.00  0.00    +0.000 C 
ATOM     15  O   UNL     1       2.369   4.076  21.779  0.00  0.00    +0.000 OA
BRANCH  14  16
ATOM     16  O   UNL     1       0.738   3.771  20.274  0.00  0.00    +0.000 OA
ATOM     17  H   UNL     1       0.011   4.393  20.451  0.00  0.00    +0.000 HD
ENDBRANCH  14  16
ENDBRANCH   7  14
BRANCH   1  18
ATOM     18  C   UNL     1       2.146   7.047  19.822  0.00  0.00    +0.000 C 
BRANCH  18  19
ATOM     19  C   UNL     1       1.994   8.218  18.849  0.00  0.00    +0.000 C 
BRANCH  19  24
ATOM     20  C   UNL     1       0.122  10.428  21.296  0.00  0.00    +0.000 A 
ATOM     21  C   UNL     1      -0.671  11.183  20.433  0.00  0.00    +0.000 A 
ATOM     22  C   UNL     1      -0.596  10.996  19.052  0.00  0.00    +0.000 A 
ATOM     23  C   UNL     1       0.269  10.043  18.520  0.00  0.00    +0.000 A 
ATOM     24  C   UNL     1       1.061   9.269  19.377  0.00  0.00    +0.000 A 
ATOM     25  C   UNL     1       0.994   9.481  20.759  0.00  0.00    +0.000 A 
BRANCH  20  27
ATOM     26  C   UNL     1      -1.277  11.278  23.014  0.00  0.00    +0.000 C 
ATOM     27  O   UNL     1      -0.035  10.693  22.627  0.00  0.00    +0.000 OA
ENDBRANCH  20  27
ENDBRANCH  19  24
ENDBRANCH  18  19
ENDBRANCH   1  18
TORSDOF 9
ENDMDL
