MODEL 1
REMARK VINA RESULT:      -6.3      0.000      0.000
REMARK  Name = 
REMARK  13 active torsions:
REMARK  status: ('A' for Active; 'I' for Inactive)
REMARK    1  A    between atoms: C_1  and  C_2
REMARK    2  A    between atoms: C_2  and  C_3
REMARK    3  A    between atoms: C_4  and  C_5
REMARK    4  A    between atoms: C_5  and  O_6
REMARK    5  A    between atoms: C_5  and  C_7
REMARK    6  A    between atoms: C_7  and  O_8
REMARK    7  A    between atoms: C_7  and  C_9
REMARK    8  A    between atoms: C_10  and  C_11
REMARK    9  A    between atoms: C_19  and  O_20
REMARK   10  A    between atoms: C_19  and  C_22
REMARK   11  A    between atoms: O_20  and  C_21
REMARK   12  A    between atoms: C_22  and  C_24
REMARK   13  A    between atoms: C_30  and  O_31
REMARK                            x       y       z     vdW  Elec       q    Type
REMARK                         _______ _______ _______ _____ _____    ______ ____
ROOT
ATOM      1  C   UNL     1      -3.434  11.554  18.485  0.00  0.00    +0.000 C 
ATOM      2  C   UNL     1      -3.966  12.246  19.497  0.00  0.00    +0.000 C 
ATOM      3  C   UNL     1      -5.280  12.862  19.762  0.00  0.00    +0.000 C 
ATOM      4  C   UNL     1      -2.817  12.436  20.376  0.00  0.00    +0.000 C 
ATOM      5  O   UNL     1      -2.895  12.953  21.483  0.00  0.00    +0.000 OA
ATOM      6  C   UNL     1      -1.568  12.042  19.660  0.00  0.00    +0.000 C 
ATOM      7  O   UNL     1      -2.071  11.230  18.588  0.00  0.00    +0.000 OA
ATOM      8  C   UNL     1      -0.541  11.380  20.550  0.00  0.00    +0.000 C 
ATOM      9  O   UNL     1      -0.608  10.255  21.017  0.00  0.00    +0.000 OA
ATOM     10  N   UNL     1       0.499  12.247  20.760  0.00  0.00    +0.000 N 
ATOM     11  C   UNL     1       0.466  13.414  19.919  0.00  0.00    +0.000 C 
ATOM     12  C   UNL     1      -0.871  13.311  19.123  0.00  0.00    +0.000 C 
ATOM     13  H   UNL     1       1.350  11.938  21.217  0.00  0.00    +0.000 HD
ENDROOT
BRANCH  11  14
ATOM     14  O   UNL     1       0.618  14.565  20.739  0.00  0.00    +0.000 OA
ATOM     15  C   UNL     1      -0.491  15.447  20.849  0.00  0.00    +0.000 C 
ENDBRANCH  11  14
BRANCH  11  16
ATOM     16  C   UNL     1       1.693  13.354  18.962  0.00  0.00    +0.000 C 
ATOM     17  O   UNL     1       1.895  12.376  18.233  0.00  0.00    +0.000 OA
BRANCH  16  18
ATOM     18  C   UNL     1       2.612  14.538  18.842  0.00  0.00    +0.000 A 
ATOM     19  C   UNL     1       2.347  15.623  17.994  0.00  0.00    +0.000 A 
ATOM     20  C   UNL     1       3.297  16.629  17.810  0.00  0.00    +0.000 A 
ATOM     21  C   UNL     1       4.511  16.576  18.491  0.00  0.00    +0.000 A 
ATOM     22  C   UNL     1       4.775  15.521  19.361  0.00  0.00    +0.000 A 
ATOM     23  C   UNL     1       3.830  14.505  19.536  0.00  0.00    +0.000 A 
ENDBRANCH  16  18
ENDBRANCH  11  16
BRANCH  12  24
ATOM     24  O   UNL     1      -0.733  13.259  17.691  0.00  0.00    +0.000 OA
ATOM     25  H   UNL     1      -1.000  12.379  17.366  0.00  0.00    +0.000 HD
ENDBRANCH  12  24
BRANCH   1  26
ATOM     26  C   UNL     1      -4.109  11.179  17.187  0.00  0.00    +0.000 C 
BRANCH  26  27
ATOM     27  O   UNL     1      -4.774  12.335  16.667  0.00  0.00    +0.000 OA
ATOM     28  H   UNL     1      -5.650  12.363  17.091  0.00  0.00    +0.000 HD
ENDBRANCH  26  27
BRANCH  26  29
ATOM     29  C   UNL     1      -3.195  10.533  16.107  0.00  0.00    +0.000 C 
BRANCH  29  31
ATOM     30  C   UNL     1      -3.208  10.010  13.639  0.00  0.00    +0.000 C 
ATOM     31  C   UNL     1      -3.843  10.071  14.819  0.00  0.00    +0.000 C 
BRANCH  30  33
ATOM     32  C   UNL     1      -5.378   9.457  12.461  0.00  0.00    +0.000 C 
ATOM     33  C   UNL     1      -3.903   9.788  12.322  0.00  0.00    +0.000 C 
ENDBRANCH  30  33
ENDBRANCH  29  31
BRANCH  29  34
ATOM     34  O   UNL     1      -2.145  11.446  15.764  0.00  0.00    +0.000 OA
ATOM     35  H   UNL     1      -1.709  11.112  14.962  0.00  0.00    +0.000 HD
ENDBRANCH  29  34
ENDBRANCH  26  29
ENDBRANCH   1  26
TORSDOF 10
ENDMDL
MODEL 2
REMARK VINA RESULT:      -6.0      7.389      9.521
REMARK  Name = 
REMARK  13 active torsions:
REMARK  status: ('A' for Active; 'I' for Inactive)
REMARK    1  A    between atoms: C_1  and  C_2
REMARK    2  A    between atoms: C_2  and  C_3
REMARK    3  A    between atoms: C_4  and  C_5
REMARK    4  A    between atoms: C_5  and  O_6
REMARK    5  A    between atoms: C_5  and  C_7
REMARK    6  A    between atoms: C_7  and  O_8
REMARK    7  A    between atoms: C_7  and  C_9
REMARK    8  A    between atoms: C_10  and  C_11
REMARK    9  A    between atoms: C_19  and  O_20
REMARK   10  A    between atoms: C_19  and  C_22
REMARK   11  A    between atoms: O_20  and  C_21
REMARK   12  A    between atoms: C_22  and  C_24
REMARK   13  A    between atoms: C_30  and  O_31
REMARK                            x       y       z     vdW  Elec       q    Type
REMARK                         _______ _______ _______ _____ _____    ______ ____
ROOT
ATOM      1  C   UNL     1       1.965   7.678  19.049  0.00  0.00    +0.000 C 
ATOM      2  C   UNL     1       1.567   7.076  20.174  0.00  0.00    +0.000 C 
ATOM      3  C   UNL     1       0.970   7.530  21.445  0.00  0.00    +0.000 C 
ATOM      4  C   UNL     1       2.009   5.702  19.959  0.00  0.00    +0.000 C 
ATOM      5  O   UNL     1       1.752   4.785  20.727  0.00  0.00    +0.000 OA
ATOM      6  C   UNL     1       2.910   5.646  18.770  0.00  0.00    +0.000 C 
ATOM      7  O   UNL     1       2.598   6.871  18.089  0.00  0.00    +0.000 OA
ATOM      8  C   UNL     1       2.752   4.388  17.947  0.00  0.00    +0.000 C 
ATOM      9  O   UNL     1       1.810   4.111  17.224  0.00  0.00    +0.000 OA
ATOM     10  N   UNL     1       3.848   3.587  18.136  0.00  0.00    +0.000 N 
ATOM     11  C   UNL     1       4.927   4.228  18.839  0.00  0.00    +0.000 C 
ATOM     12  C   UNL     1       4.378   5.629  19.249  0.00  0.00    +0.000 C 
ATOM     13  H   UNL     1       3.994   2.762  17.564  0.00  0.00    +0.000 HD
ENDROOT
BRANCH  11  14
ATOM     14  O   UNL     1       5.337   3.381  19.905  0.00  0.00    +0.000 OA
ATOM     15  C   UNL     1       4.533   2.245  20.190  0.00  0.00    +0.000 C 
ENDBRANCH  11  14
BRANCH  11  16
ATOM     16  C   UNL     1       6.129   4.363  17.858  0.00  0.00    +0.000 C 
ATOM     17  O   UNL     1       7.297   4.337  18.261  0.00  0.00    +0.000 OA
BRANCH  16  18
ATOM     18  C   UNL     1       5.885   4.437  16.376  0.00  0.00    +0.000 A 
ATOM     19  C   UNL     1       6.145   3.366  15.509  0.00  0.00    +0.000 A 
ATOM     20  C   UNL     1       6.038   3.530  14.126  0.00  0.00    +0.000 A 
ATOM     21  C   UNL     1       5.645   4.757  13.597  0.00  0.00    +0.000 A 
ATOM     22  C   UNL     1       5.352   5.820  14.447  0.00  0.00    +0.000 A 
ATOM     23  C   UNL     1       5.472   5.662  15.833  0.00  0.00    +0.000 A 
ENDBRANCH  16  18
ENDBRANCH  11  16
BRANCH  12  24
ATOM     24  O   UNL     1       5.107   6.754  18.723  0.00  0.00    +0.000 OA
ATOM     25  H   UNL     1       5.437   7.305  19.456  0.00  0.00    +0.000 HD
ENDBRANCH  12  24
BRANCH   1  26
ATOM     26  C   UNL     1       1.912   9.157  18.743  0.00  0.00    +0.000 C 
BRANCH  26  27
ATOM     27  O   UNL     1       2.366   9.362  17.401  0.00  0.00    +0.000 OA
ATOM     28  H   UNL     1       1.652   9.049  16.818  0.00  0.00    +0.000 HD
ENDBRANCH  26  27
BRANCH  26  29
ATOM     29  C   UNL     1       0.539   9.850  18.976  0.00  0.00    +0.000 C 
BRANCH  29  31
ATOM     30  C   UNL     1      -0.266  11.032  21.054  0.00  0.00    +0.000 C 
ATOM     31  C   UNL     1       0.491  11.011  19.946  0.00  0.00    +0.000 C 
BRANCH  30  33
ATOM     32  C   UNL     1       0.386  13.435  21.506  0.00  0.00    +0.000 C 
ATOM     33  C   UNL     1      -0.505  12.265  21.884  0.00  0.00    +0.000 C 
ENDBRANCH  30  33
ENDBRANCH  29  31
BRANCH  29  34
ATOM     34  O   UNL     1       0.018  10.307  17.721  0.00  0.00    +0.000 OA
ATOM     35  H   UNL     1       0.444   9.790  17.015  0.00  0.00    +0.000 HD
ENDBRANCH  29  34
ENDBRANCH  26  29
ENDBRANCH   1  26
TORSDOF 10
ENDMDL
MODEL 3
REMARK VINA RESULT:      -6.0      3.812      4.931
REMARK  Name = 
REMARK  13 active torsions:
REMARK  status: ('A' for Active; 'I' for Inactive)
REMARK    1  A    between atoms: C_1  and  C_2
REMARK    2  A    between atoms: C_2  and  C_3
REMARK    3  A    between atoms: C_4  and  C_5
REMARK    4  A    between atoms: C_5  and  O_6
REMARK    5  A    between atoms: C_5  and  C_7
REMARK    6  A    between atoms: C_7  and  O_8
REMARK    7  A    between atoms: C_7  and  C_9
REMARK    8  A    between atoms: C_10  and  C_11
REMARK    9  A    between atoms: C_19  and  O_20
REMARK   10  A    between atoms: C_19  and  C_22
REMARK   11  A    between atoms: O_20  and  C_21
REMARK   12  A    between atoms: C_22  and  C_24
REMARK   13  A    between atoms: C_30  and  O_31
REMARK                            x       y       z     vdW  Elec       q    Type
REMARK                         _______ _______ _______ _____ _____    ______ ____
ROOT
ATOM      1  C   UNL     1       0.899  11.865  20.046  0.00  0.00    +0.000 C 
ATOM      2  C   UNL     1       0.119  12.299  21.040  0.00  0.00    +0.000 C 
ATOM      3  C   UNL     1      -1.198  11.909  21.579  0.00  0.00    +0.000 C 
ATOM      4  C   UNL     1       0.832  13.489  21.492  0.00  0.00    +0.000 C 
ATOM      5  O   UNL     1       0.496  14.144  22.470  0.00  0.00    +0.000 OA
ATOM      6  C   UNL     1       1.904  13.832  20.513  0.00  0.00    +0.000 C 
ATOM      7  O   UNL     1       2.067  12.602  19.790  0.00  0.00    +0.000 OA
ATOM      8  C   UNL     1       3.160  14.379  21.152  0.00  0.00    +0.000 C 
ATOM      9  O   UNL     1       3.977  13.745  21.798  0.00  0.00    +0.000 OA
ATOM     10  N   UNL     1       3.247  15.723  20.895  0.00  0.00    +0.000 N 
ATOM     11  C   UNL     1       2.299  16.194  19.921  0.00  0.00    +0.000 C 
ATOM     12  C   UNL     1       1.402  14.963  19.589  0.00  0.00    +0.000 C 
ATOM     13  H   UNL     1       4.089  16.242  21.122  0.00  0.00    +0.000 HD
ENDROOT
BRANCH  11  14
ATOM     14  O   UNL     1       1.631  17.329  20.455  0.00  0.00    +0.000 OA
ATOM     15  C   UNL     1       0.221  17.249  20.614  0.00  0.00    +0.000 C 
ENDBRANCH  11  14
BRANCH  11  16
ATOM     16  C   UNL     1       3.092  16.664  18.665  0.00  0.00    +0.000 C 
ATOM     17  O   UNL     1       2.605  17.459  17.855  0.00  0.00    +0.000 OA
BRANCH  16  18
ATOM     18  C   UNL     1       4.516  16.221  18.465  0.00  0.00    +0.000 A 
ATOM     19  C   UNL     1       4.854  14.989  17.888  0.00  0.00    +0.000 A 
ATOM     20  C   UNL     1       6.182  14.561  17.854  0.00  0.00    +0.000 A 
ATOM     21  C   UNL     1       7.189  15.370  18.374  0.00  0.00    +0.000 A 
ATOM     22  C   UNL     1       6.873  16.611  18.921  0.00  0.00    +0.000 A 
ATOM     23  C   UNL     1       5.540  17.035  18.968  0.00  0.00    +0.000 A 
ENDBRANCH  16  18
ENDBRANCH  11  16
BRANCH  12  24
ATOM     24  O   UNL     1       1.412  14.548  18.210  0.00  0.00    +0.000 OA
ATOM     25  H   UNL     1       2.297  14.695  17.828  0.00  0.00    +0.000 HD
ENDBRANCH  12  24
BRANCH   1  26
ATOM     26  C   UNL     1       0.605  10.732  19.090  0.00  0.00    +0.000 C 
BRANCH  26  27
ATOM     27  O   UNL     1      -0.292  11.207  18.081  0.00  0.00    +0.000 OA
ATOM     28  H   UNL     1      -1.141  11.382  18.526  0.00  0.00    +0.000 HD
ENDBRANCH  26  27
BRANCH  26  29
ATOM     29  C   UNL     1       1.845  10.045  18.449  0.00  0.00    +0.000 C 
BRANCH  29  31
ATOM     30  C   UNL     1       2.462   7.600  18.520  0.00  0.00    +0.000 C 
ATOM     31  C   UNL     1       1.710   8.597  18.029  0.00  0.00    +0.000 C 
BRANCH  30  33
ATOM     32  C   UNL     1       3.906   5.655  17.789  0.00  0.00    +0.000 C 
ATOM     33  C   UNL     1       2.501   6.213  17.937  0.00  0.00    +0.000 C 
ENDBRANCH  30  33
ENDBRANCH  29  31
BRANCH  29  34
ATOM     34  O   UNL     1       2.265  10.795  17.302  0.00  0.00    +0.000 OA
ATOM     35  H   UNL     1       2.372  11.722  17.575  0.00  0.00    +0.000 HD
ENDBRANCH  29  34
ENDBRANCH  26  29
ENDBRANCH   1  26
TORSDOF 10
ENDMDL
MODEL 4
REMARK VINA RESULT:      -5.9      7.425      9.533
REMARK  Name = 
REMARK  13 active torsions:
REMARK  status: ('A' for Active; 'I' for Inactive)
REMARK    1  A    between atoms: C_1  and  C_2
REMARK    2  A    between atoms: C_2  and  C_3
REMARK    3  A    between atoms: C_4  and  C_5
REMARK    4  A    between atoms: C_5  and  O_6
REMARK    5  A    between atoms: C_5  and  C_7
REMARK    6  A    between atoms: C_7  and  O_8
REMARK    7  A    between atoms: C_7  and  C_9
REMARK    8  A    between atoms: C_10  and  C_11
REMARK    9  A    between atoms: C_19  and  O_20
REMARK   10  A    between atoms: C_19  and  C_22
REMARK   11  A    between atoms: O_20  and  C_21
REMARK   12  A    between atoms: C_22  and  C_24
REMARK   13  A    between atoms: C_30  and  O_31
REMARK                            x       y       z     vdW  Elec       q    Type
REMARK                         _______ _______ _______ _____ _____    ______ ____
ROOT
ATOM      1  C   UNL     1       1.987   7.611  19.049  0.00  0.00    +0.000 C 
ATOM      2  C   UNL     1       1.561   6.967  20.139  0.00  0.00    +0.000 C 
ATOM      3  C   UNL     1       0.918   7.370  21.405  0.00  0.00    +0.000 C 
ATOM      4  C   UNL     1       2.028   5.606  19.893  0.00  0.00    +0.000 C 
ATOM      5  O   UNL     1       1.758   4.660  20.622  0.00  0.00    +0.000 OA
ATOM      6  C   UNL     1       2.966   5.600  18.732  0.00  0.00    +0.000 C 
ATOM      7  O   UNL     1       2.660   6.844  18.083  0.00  0.00    +0.000 OA
ATOM      8  C   UNL     1       2.850   4.369  17.863  0.00  0.00    +0.000 C 
ATOM      9  O   UNL     1       1.935   4.105  17.102  0.00  0.00    +0.000 OA
ATOM     10  N   UNL     1       3.950   3.575  18.061  0.00  0.00    +0.000 N 
ATOM     11  C   UNL     1       4.998   4.205  18.819  0.00  0.00    +0.000 C 
ATOM     12  C   UNL     1       4.418   5.584  19.257  0.00  0.00    +0.000 C 
ATOM     13  H   UNL     1       4.125   2.771  17.466  0.00  0.00    +0.000 HD
ENDROOT
BRANCH  11  14
ATOM     14  O   UNL     1       5.384   3.327  19.868  0.00  0.00    +0.000 OA
ATOM     15  C   UNL     1       4.517   2.244  20.174  0.00  0.00    +0.000 C 
ENDBRANCH  11  14
BRANCH  11  16
ATOM     16  C   UNL     1       6.229   4.387  17.881  0.00  0.00    +0.000 C 
ATOM     17  O   UNL     1       7.384   4.332  18.316  0.00  0.00    +0.000 OA
BRANCH  16  18
ATOM     18  C   UNL     1       6.028   4.544  16.399  0.00  0.00    +0.000 A 
ATOM     19  C   UNL     1       5.550   5.727  15.819  0.00  0.00    +0.000 A 
ATOM     20  C   UNL     1       5.245   5.778  14.457  0.00  0.00    +0.000 A 
ATOM     21  C   UNL     1       5.438   4.654  13.657  0.00  0.00    +0.000 A 
ATOM     22  C   UNL     1       5.943   3.482  14.213  0.00  0.00    +0.000 A 
ATOM     23  C   UNL     1       6.236   3.425  15.580  0.00  0.00    +0.000 A 
ENDBRANCH  16  18
ENDBRANCH  11  16
BRANCH  12  24
ATOM     24  O   UNL     1       5.149   6.735  18.792  0.00  0.00    +0.000 OA
ATOM     25  H   UNL     1       4.529   7.401  18.443  0.00  0.00    +0.000 HD
ENDBRANCH  12  24
BRANCH   1  26
ATOM     26  C   UNL     1       1.925   9.098  18.791  0.00  0.00    +0.000 C 
BRANCH  26  27
ATOM     27  O   UNL     1       2.399   9.352  17.464  0.00  0.00    +0.000 OA
ATOM     28  H   UNL     1       3.170   8.772  17.331  0.00  0.00    +0.000 HD
ENDBRANCH  26  27
BRANCH  26  29
ATOM     29  C   UNL     1       0.541   9.771  19.022  0.00  0.00    +0.000 C 
BRANCH  29  31
ATOM     30  C   UNL     1      -0.206  10.749  21.224  0.00  0.00    +0.000 C 
ATOM     31  C   UNL     1       0.455  10.867  20.062  0.00  0.00    +0.000 C 
BRANCH  30  33
ATOM     32  C   UNL     1      -1.892  11.861  22.749  0.00  0.00    +0.000 C 
ATOM     33  C   UNL     1      -0.500  11.903  22.144  0.00  0.00    +0.000 C 
ENDBRANCH  30  33
ENDBRANCH  29  31
BRANCH  29  34
ATOM     34  O   UNL     1       0.059  10.305  17.782  0.00  0.00    +0.000 OA
ATOM     35  H   UNL     1       0.429  11.199  17.679  0.00  0.00    +0.000 HD
ENDBRANCH  29  34
ENDBRANCH  26  29
ENDBRANCH   1  26
TORSDOF 10
ENDMDL
MODEL 5
REMARK VINA RESULT:      -5.9      4.084      5.927
REMARK  Name = 
REMARK  13 active torsions:
REMARK  status: ('A' for Active; 'I' for Inactive)
REMARK    1  A    between atoms: C_1  and  C_2
REMARK    2  A    between atoms: C_2  and  C_3
REMARK    3  A    between atoms: C_4  and  C_5
REMARK    4  A    between atoms: C_5  and  O_6
REMARK    5  A    between atoms: C_5  and  C_7
REMARK    6  A    between atoms: C_7  and  O_8
REMARK    7  A    between atoms: C_7  and  C_9
REMARK    8  A    between atoms: C_10  and  C_11
REMARK    9  A    between atoms: C_19  and  O_20
REMARK   10  A    between atoms: C_19  and  C_22
REMARK   11  A    between atoms: O_20  and  C_21
REMARK   12  A    between atoms: C_22  and  C_24
REMARK   13  A    between atoms: C_30  and  O_31
REMARK                            x       y       z     vdW  Elec       q    Type
REMARK                         _______ _______ _______ _____ _____    ______ ____
ROOT
ATOM      1  C   UNL     1      -5.277  11.695  18.293  0.00  0.00    +0.000 C 
ATOM      2  C   UNL     1      -6.095  12.716  18.022  0.00  0.00    +0.000 C 
ATOM      3  C   UNL     1      -6.446  13.479  16.808  0.00  0.00    +0.000 C 
ATOM      4  C   UNL     1      -6.558  13.099  19.352  0.00  0.00    +0.000 C 
ATOM      5  O   UNL     1      -7.414  13.952  19.547  0.00  0.00    +0.000 OA
ATOM      6  C   UNL     1      -5.738  12.403  20.387  0.00  0.00    +0.000 C 
ATOM      7  O   UNL     1      -5.152  11.325  19.642  0.00  0.00    +0.000 OA
ATOM      8  C   UNL     1      -6.524  11.994  21.611  0.00  0.00    +0.000 C 
ATOM      9  O   UNL     1      -7.341  11.091  21.677  0.00  0.00    +0.000 OA
ATOM     10  N   UNL     1      -6.177  12.805  22.660  0.00  0.00    +0.000 N 
ATOM     11  C   UNL     1      -5.028  13.633  22.404  0.00  0.00    +0.000 C 
ATOM     12  C   UNL     1      -4.657  13.374  20.912  0.00  0.00    +0.000 C 
ATOM     13  H   UNL     1      -6.493  12.600  23.603  0.00  0.00    +0.000 HD
ENDROOT
BRANCH  11  14
ATOM     14  O   UNL     1      -5.355  14.974  22.743  0.00  0.00    +0.000 OA
ATOM     15  C   UNL     1      -5.363  15.935  21.696  0.00  0.00    +0.000 C 
ENDBRANCH  11  14
BRANCH  11  16
ATOM     16  C   UNL     1      -3.882  13.174  23.354  0.00  0.00    +0.000 C 
ATOM     17  O   UNL     1      -3.702  11.981  23.618  0.00  0.00    +0.000 OA
BRANCH  16  18
ATOM     18  C   UNL     1      -2.908  14.183  23.899  0.00  0.00    +0.000 A 
ATOM     19  C   UNL     1      -1.807  14.648  23.166  0.00  0.00    +0.000 A 
ATOM     20  C   UNL     1      -0.853  15.473  23.765  0.00  0.00    +0.000 A 
ATOM     21  C   UNL     1      -1.004  15.864  25.093  0.00  0.00    +0.000 A 
ATOM     22  C   UNL     1      -2.110  15.437  25.823  0.00  0.00    +0.000 A 
ATOM     23  C   UNL     1      -3.060  14.598  25.229  0.00  0.00    +0.000 A 
ENDBRANCH  16  18
ENDBRANCH  11  16
BRANCH  12  24
ATOM     24  O   UNL     1      -3.336  12.847  20.689  0.00  0.00    +0.000 OA
ATOM     25  H   UNL     1      -2.934  13.281  19.914  0.00  0.00    +0.000 HD
ENDBRANCH  12  24
BRANCH   1  26
ATOM     26  C   UNL     1      -4.380  10.967  17.318  0.00  0.00    +0.000 C 
BRANCH  26  27
ATOM     27  O   UNL     1      -4.924  11.112  16.002  0.00  0.00    +0.000 OA
ATOM     28  H   UNL     1      -4.475  11.878  15.601  0.00  0.00    +0.000 HD
ENDBRANCH  26  27
BRANCH  26  29
ATOM     29  C   UNL     1      -2.878  11.372  17.344  0.00  0.00    +0.000 C 
BRANCH  29  31
ATOM     30  C   UNL     1      -1.029  10.805  18.963  0.00  0.00    +0.000 C 
ATOM     31  C   UNL     1      -1.906  10.429  18.020  0.00  0.00    +0.000 C 
BRANCH  30  33
ATOM     32  C   UNL     1       0.159   9.825  20.971  0.00  0.00    +0.000 C 
ATOM     33  C   UNL     1       0.096   9.935  19.458  0.00  0.00    +0.000 C 
ENDBRANCH  30  33
ENDBRANCH  29  31
BRANCH  29  34
ATOM     34  O   UNL     1      -2.420  11.586  16.003  0.00  0.00    +0.000 OA
ATOM     35  H   UNL     1      -2.719  12.467  15.723  0.00  0.00    +0.000 HD
ENDBRANCH  29  34
ENDBRANCH  26  29
ENDBRANCH   1  26
TORSDOF 10
ENDMDL
MODEL 6
REMARK VINA RESULT:      -5.9      4.068      5.603
REMARK  Name = 
REMARK  13 active torsions:
REMARK  status: ('A' for Active; 'I' for Inactive)
REMARK    1  A    between atoms: C_1  and  C_2
REMARK    2  A    between atoms: C_2  and  C_3
REMARK    3  A    between atoms: C_4  and  C_5
REMARK    4  A    between atoms: C_5  and  O_6
REMARK    5  A    between atoms: C_5  and  C_7
REMARK    6  A    between atoms: C_7  and  O_8
REMARK    7  A    between atoms: C_7  and  C_9
REMARK    8  A    between atoms: C_10  and  C_11
REMARK    9  A    between atoms: C_19  and  O_20
REMARK   10  A    between atoms: C_19  and  C_22
REMARK   11  A    between atoms: O_20  and  C_21
REMARK   12  A    between atoms: C_22  and  C_24
REMARK   13  A    between atoms: C_30  and  O_31
REMARK                            x       y       z     vdW  Elec       q    Type
REMARK                         _______ _______ _______ _____ _____    ______ ____
ROOT
ATOM      1  C   UNL     1      -0.075  10.627  20.115  0.00  0.00    +0.000 C 
ATOM      2  C   UNL     1      -0.239   9.950  21.256  0.00  0.00    +0.000 C 
ATOM      3  C   UNL     1      -0.268   8.523  21.627  0.00  0.00    +0.000 C 
ATOM      4  C   UNL     1      -0.568  11.015  22.199  0.00  0.00    +0.000 C 
ATOM      5  O   UNL     1      -0.704  10.830  23.401  0.00  0.00    +0.000 OA
ATOM      6  C   UNL     1      -0.838  12.279  21.453  0.00  0.00    +0.000 C 
ATOM      7  O   UNL     1      -0.226  12.022  20.180  0.00  0.00    +0.000 OA
ATOM      8  C   UNL     1      -0.355  13.521  22.166  0.00  0.00    +0.000 C 
ATOM      9  O   UNL     1       0.806  13.870  22.303  0.00  0.00    +0.000 OA
ATOM     10  N   UNL     1      -1.436  14.212  22.648  0.00  0.00    +0.000 N 
ATOM     11  C   UNL     1      -2.701  13.733  22.160  0.00  0.00    +0.000 C 
ATOM     12  C   UNL     1      -2.364  12.467  21.314  0.00  0.00    +0.000 C 
ATOM     13  H   UNL     1      -1.327  15.143  23.037  0.00  0.00    +0.000 HD
ENDROOT
BRANCH  11  14
ATOM     14  O   UNL     1      -3.565  13.530  23.270  0.00  0.00    +0.000 OA
ATOM     15  C   UNL     1      -3.310  14.281  24.449  0.00  0.00    +0.000 C 
ENDBRANCH  11  14
BRANCH  11  16
ATOM     16  C   UNL     1      -3.330  14.848  21.273  0.00  0.00    +0.000 C 
ATOM     17  O   UNL     1      -4.450  14.717  20.769  0.00  0.00    +0.000 OA
BRANCH  16  18
ATOM     18  C   UNL     1      -2.611  16.156  21.089  0.00  0.00    +0.000 A 
ATOM     19  C   UNL     1      -2.862  17.280  21.888  0.00  0.00    +0.000 A 
ATOM     20  C   UNL     1      -2.275  18.511  21.588  0.00  0.00    +0.000 A 
ATOM     21  C   UNL     1      -1.411  18.626  20.502  0.00  0.00    +0.000 A 
ATOM     22  C   UNL     1      -1.126  17.510  19.719  0.00  0.00    +0.000 A 
ATOM     23  C   UNL     1      -1.724  16.279  20.010  0.00  0.00    +0.000 A 
ENDBRANCH  16  18
ENDBRANCH  11  16
BRANCH  12  24
ATOM     24  O   UNL     1      -2.754  12.531  19.929  0.00  0.00    +0.000 OA
ATOM     25  H   UNL     1      -3.341  13.297  19.786  0.00  0.00    +0.000 HD
ENDBRANCH  12  24
BRANCH   1  26
ATOM     26  C   UNL     1       0.142  10.045  18.738  0.00  0.00    +0.000 C 
BRANCH  26  27
ATOM     27  O   UNL     1      -0.344  10.977  17.766  0.00  0.00    +0.000 OA
ATOM     28  H   UNL     1      -0.785  10.450  17.076  0.00  0.00    +0.000 HD
ENDBRANCH  26  27
BRANCH  26  29
ATOM     29  C   UNL     1       1.598   9.610  18.407  0.00  0.00    +0.000 C 
BRANCH  29  31
ATOM     30  C   UNL     1       3.080   7.585  18.147  0.00  0.00    +0.000 C 
ATOM     31  C   UNL     1       1.857   8.137  18.172  0.00  0.00    +0.000 C 
BRANCH  30  33
ATOM     32  C   UNL     1       2.258   5.195  18.022  0.00  0.00    +0.000 C 
ATOM     33  C   UNL     1       3.358   6.182  17.676  0.00  0.00    +0.000 C 
ENDBRANCH  30  33
ENDBRANCH  29  31
BRANCH  29  34
ATOM     34  O   UNL     1       2.058  10.324  17.252  0.00  0.00    +0.000 OA
ATOM     35  H   UNL     1       1.277  10.609  16.747  0.00  0.00    +0.000 HD
ENDBRANCH  29  34
ENDBRANCH  26  29
ENDBRANCH   1  26
TORSDOF 10
ENDMDL
MODEL 7
REMARK VINA RESULT:      -5.8      3.991      6.059
REMARK  Name = 
REMARK  13 active torsions:
REMARK  status: ('A' for Active; 'I' for Inactive)
REMARK    1  A    between atoms: C_1  and  C_2
REMARK    2  A    between atoms: C_2  and  C_3
REMARK    3  A    between atoms: C_4  and  C_5
REMARK    4  A    between atoms: C_5  and  O_6
REMARK    5  A    between atoms: C_5  and  C_7
REMARK    6  A    between atoms: C_7  and  O_8
REMARK    7  A    between atoms: C_7  and  C_9
REMARK    8  A    between atoms: C_10  and  C_11
REMARK    9  A    between atoms: C_19  and  O_20
REMARK   10  A    between atoms: C_19  and  C_22
REMARK   11  A    between atoms: O_20  and  C_21
REMARK   12  A    between atoms: C_22  and  C_24
REMARK   13  A    between atoms: C_30  and  O_31
REMARK                            x       y       z     vdW  Elec       q    Type
REMARK                         _______ _______ _______ _____ _____    ______ ____
ROOT
ATOM      1  C   UNL     1      -4.574  11.825  19.376  0.00  0.00    +0.000 C 
ATOM      2  C   UNL     1      -5.890  11.605  19.450  0.00  0.00    +0.000 C 
ATOM      3  C   UNL     1      -6.904  11.036  18.541  0.00  0.00    +0.000 C 
ATOM      4  C   UNL     1      -6.236  12.236  20.719  0.00  0.00    +0.000 C 
ATOM      5  O   UNL     1      -7.352  12.177  21.217  0.00  0.00    +0.000 OA
ATOM      6  C   UNL     1      -5.082  13.048  21.206  0.00  0.00    +0.000 C 
ATOM      7  O   UNL     1      -3.985  12.505  20.455  0.00  0.00    +0.000 OA
ATOM      8  C   UNL     1      -4.915  13.027  22.708  0.00  0.00    +0.000 C 
ATOM      9  O   UNL     1      -4.515  12.090  23.378  0.00  0.00    +0.000 OA
ATOM     10  N   UNL     1      -5.287  14.243  23.219  0.00  0.00    +0.000 N 
ATOM     11  C   UNL     1      -5.494  15.259  22.220  0.00  0.00    +0.000 C 
ATOM     12  C   UNL     1      -5.324  14.532  20.851  0.00  0.00    +0.000 C 
ATOM     13  H   UNL     1      -5.116  14.474  24.192  0.00  0.00    +0.000 HD
ENDROOT
BRANCH  11  14
ATOM     14  O   UNL     1      -6.758  15.867  22.451  0.00  0.00    +0.000 OA
ATOM     15  C   UNL     1      -7.746  15.739  21.438  0.00  0.00    +0.000 C 
ENDBRANCH  11  14
BRANCH  11  16
ATOM     16  C   UNL     1      -4.403  16.353  22.412  0.00  0.00    +0.000 C 
ATOM     17  O   UNL     1      -4.510  17.469  21.893  0.00  0.00    +0.000 OA
BRANCH  16  18
ATOM     18  C   UNL     1      -3.230  16.095  23.319  0.00  0.00    +0.000 A 
ATOM     19  C   UNL     1      -2.115  15.343  22.922  0.00  0.00    +0.000 A 
ATOM     20  C   UNL     1      -1.119  15.011  23.843  0.00  0.00    +0.000 A 
ATOM     21  C   UNL     1      -1.214  15.448  25.162  0.00  0.00    +0.000 A 
ATOM     22  C   UNL     1      -2.300  16.224  25.562  0.00  0.00    +0.000 A 
ATOM     23  C   UNL     1      -3.306  16.546  24.644  0.00  0.00    +0.000 A 
ENDBRANCH  16  18
ENDBRANCH  11  16
BRANCH  12  24
ATOM     24  O   UNL     1      -4.271  15.041  20.011  0.00  0.00    +0.000 OA
ATOM     25  H   UNL     1      -3.869  14.310  19.507  0.00  0.00    +0.000 HD
ENDBRANCH  12  24
BRANCH   1  26
ATOM     26  C   UNL     1      -3.667  11.525  18.206  0.00  0.00    +0.000 C 
BRANCH  26  27
ATOM     27  O   UNL     1      -4.177  12.194  17.049  0.00  0.00    +0.000 OA
ATOM     28  H   UNL     1      -4.722  12.933  17.375  0.00  0.00    +0.000 HD
ENDBRANCH  26  27
BRANCH  26  29
ATOM     29  C   UNL     1      -2.160  11.850  18.413  0.00  0.00    +0.000 C 
BRANCH  29  31
ATOM     30  C   UNL     1       0.081  10.761  18.813  0.00  0.00    +0.000 C 
ATOM     31  C   UNL     1      -1.258  10.735  18.899  0.00  0.00    +0.000 C 
BRANCH  30  33
ATOM     32  C   UNL     1       1.786   9.153  17.859  0.00  0.00    +0.000 C 
ATOM     33  C   UNL     1       0.961   9.567  19.065  0.00  0.00    +0.000 C 
ENDBRANCH  30  33
ENDBRANCH  29  31
BRANCH  29  34
ATOM     34  O   UNL     1      -1.609  12.356  17.191  0.00  0.00    +0.000 OA
ATOM     35  H   UNL     1      -1.120  11.634  16.762  0.00  0.00    +0.000 HD
ENDBRANCH  29  34
ENDBRANCH  26  29
ENDBRANCH   1  26
TORSDOF 10
ENDMDL
MODEL 8
REMARK VINA RESULT:      -5.8      3.810      6.845
REMARK  Name = 
REMARK  13 active torsions:
REMARK  status: ('A' for Active; 'I' for Inactive)
REMARK    1  A    between atoms: C_1  and  C_2
REMARK    2  A    between atoms: C_2  and  C_3
REMARK    3  A    between atoms: C_4  and  C_5
REMARK    4  A    between atoms: C_5  and  O_6
REMARK    5  A    between atoms: C_5  and  C_7
REMARK    6  A    between atoms: C_7  and  O_8
REMARK    7  A    between atoms: C_7  and  C_9
REMARK    8  A    between atoms: C_10  and  C_11
REMARK    9  A    between atoms: C_19  and  O_20
REMARK   10  A    between atoms: C_19  and  C_22
REMARK   11  A    between atoms: O_20  and  C_21
REMARK   12  A    between atoms: C_22  and  C_24
REMARK   13  A    between atoms: C_30  and  O_31
REMARK                            x       y       z     vdW  Elec       q    Type
REMARK                         _______ _______ _______ _____ _____    ______ ____
ROOT
ATOM      1  C   UNL     1       1.611   8.845  19.474  0.00  0.00    +0.000 C 
ATOM      2  C   UNL     1       1.474   8.321  20.696  0.00  0.00    +0.000 C 
ATOM      3  C   UNL     1       1.564   6.963  21.265  0.00  0.00    +0.000 C 
ATOM      4  C   UNL     1       1.019   9.470  21.472  0.00  0.00    +0.000 C 
ATOM      5  O   UNL     1       0.863   9.442  22.686  0.00  0.00    +0.000 OA
ATOM      6  C   UNL     1       0.658  10.587  20.550  0.00  0.00    +0.000 C 
ATOM      7  O   UNL     1       1.331  10.214  19.337  0.00  0.00    +0.000 OA
ATOM      8  C   UNL     1       1.002  11.956  21.089  0.00  0.00    +0.000 C 
ATOM      9  O   UNL     1       2.121  12.430  21.197  0.00  0.00    +0.000 OA
ATOM     10  N   UNL     1      -0.152  12.601  21.449  0.00  0.00    +0.000 N 
ATOM     11  C   UNL     1      -1.353  11.940  21.010  0.00  0.00    +0.000 C 
ATOM     12  C   UNL     1      -0.874  10.607  20.358  0.00  0.00    +0.000 C 
ATOM     13  H   UNL     1      -0.142  13.584  21.703  0.00  0.00    +0.000 HD
ENDROOT
BRANCH  11  14
ATOM     14  O   UNL     1      -2.229  11.813  22.122  0.00  0.00    +0.000 OA
ATOM     15  C   UNL     1      -1.880  12.497  23.318  0.00  0.00    +0.000 C 
ENDBRANCH  11  14
BRANCH  11  16
ATOM     16  C   UNL     1      -2.052  12.856  19.962  0.00  0.00    +0.000 C 
ATOM     17  O   UNL     1      -1.416  13.401  19.054  0.00  0.00    +0.000 OA
BRANCH  16  18
ATOM     18  C   UNL     1      -3.547  13.022  19.988  0.00  0.00    +0.000 A 
ATOM     19  C   UNL     1      -4.190  13.998  20.762  0.00  0.00    +0.000 A 
ATOM     20  C   UNL     1      -5.583  14.020  20.863  0.00  0.00    +0.000 A 
ATOM     21  C   UNL     1      -6.348  13.083  20.172  0.00  0.00    +0.000 A 
ATOM     22  C   UNL     1      -5.724  12.129  19.373  0.00  0.00    +0.000 A 
ATOM     23  C   UNL     1      -4.328  12.097  19.281  0.00  0.00    +0.000 A 
ENDBRANCH  16  18
ENDBRANCH  11  16
BRANCH  12  24
ATOM     24  O   UNL     1      -1.224  10.440  18.971  0.00  0.00    +0.000 OA
ATOM     25  H   UNL     1      -0.513   9.961  18.507  0.00  0.00    +0.000 HD
ENDBRANCH  12  24
BRANCH   1  26
ATOM     26  C   UNL     1       1.924   8.101  18.198  0.00  0.00    +0.000 C 
BRANCH  26  27
ATOM     27  O   UNL     1       2.066   9.051  17.137  0.00  0.00    +0.000 OA
ATOM     28  H   UNL     1       2.297   8.542  16.339  0.00  0.00    +0.000 HD
ENDBRANCH  26  27
BRANCH  26  29
ATOM     29  C   UNL     1       3.151   7.145  18.252  0.00  0.00    +0.000 C 
BRANCH  29  31
ATOM     30  C   UNL     1       1.829   5.027  17.889  0.00  0.00    +0.000 C 
ATOM     31  C   UNL     1       2.884   5.665  18.420  0.00  0.00    +0.000 C 
BRANCH  30  33
ATOM     32  C   UNL     1       1.052   3.454  19.713  0.00  0.00    +0.000 C 
ATOM     33  C   UNL     1       1.429   3.621  18.251  0.00  0.00    +0.000 C 
ENDBRANCH  30  33
ENDBRANCH  29  31
BRANCH  29  34
ATOM     34  O   UNL     1       3.939   7.315  17.067  0.00  0.00    +0.000 OA
ATOM     35  H   UNL     1       4.152   8.260  16.983  0.00  0.00    +0.000 HD
ENDBRANCH  29  34
ENDBRANCH  26  29
ENDBRANCH   1  26
TORSDOF 10
ENDMDL
MODEL 9
REMARK VINA RESULT:      -5.8      3.908      5.446
REMARK  Name = 
REMARK  13 active torsions:
REMARK  status: ('A' for Active; 'I' for Inactive)
REMARK    1  A    between atoms: C_1  and  C_2
REMARK    2  A    between atoms: C_2  and  C_3
REMARK    3  A    between atoms: C_4  and  C_5
REMARK    4  A    between atoms: C_5  and  O_6
REMARK    5  A    between atoms: C_5  and  C_7
REMARK    6  A    between atoms: C_7  and  O_8
REMARK    7  A    between atoms: C_7  and  C_9
REMARK    8  A    between atoms: C_10  and  C_11
REMARK    9  A    between atoms: C_19  and  O_20
REMARK   10  A    between atoms: C_19  and  C_22
REMARK   11  A    between atoms: O_20  and  C_21
REMARK   12  A    between atoms: C_22  and  C_24
REMARK   13  A    between atoms: C_30  and  O_31
REMARK                            x       y       z     vdW  Elec       q    Type
REMARK                         _______ _______ _______ _____ _____    ______ ____
ROOT
ATOM      1  C   UNL     1       0.045  10.763  20.168  0.00  0.00    +0.000 C 
ATOM      2  C   UNL     1      -0.209  10.161  21.334  0.00  0.00    +0.000 C 
ATOM      3  C   UNL     1      -0.360   8.761  21.775  0.00  0.00    +0.000 C 
ATOM      4  C   UNL     1      -0.486  11.295  22.210  0.00  0.00    +0.000 C 
ATOM      5  O   UNL     1      -0.677  11.185  23.414  0.00  0.00    +0.000 OA
ATOM      6  C   UNL     1      -0.633  12.535  21.392  0.00  0.00    +0.000 C 
ATOM      7  O   UNL     1      -0.000  12.166  20.157  0.00  0.00    +0.000 OA
ATOM      8  C   UNL     1      -0.080  13.773  22.060  0.00  0.00    +0.000 C 
ATOM      9  O   UNL     1       1.099  14.041  22.223  0.00  0.00    +0.000 OA
ATOM     10  N   UNL     1      -1.120  14.568  22.467  0.00  0.00    +0.000 N 
ATOM     11  C   UNL     1      -2.402  14.160  21.955  0.00  0.00    +0.000 C 
ATOM     12  C   UNL     1      -2.135  12.830  21.187  0.00  0.00    +0.000 C 
ATOM     13  H   UNL     1      -0.953  15.507  22.812  0.00  0.00    +0.000 HD
ENDROOT
BRANCH  11  14
ATOM     14  O   UNL     1      -3.316  14.082  23.041  0.00  0.00    +0.000 OA
ATOM     15  C   UNL     1      -3.966  12.838  23.267  0.00  0.00    +0.000 C 
ENDBRANCH  11  14
BRANCH  11  16
ATOM     16  C   UNL     1      -2.912  15.272  20.991  0.00  0.00    +0.000 C 
ATOM     17  O   UNL     1      -4.100  15.340  20.657  0.00  0.00    +0.000 OA
BRANCH  16  18
ATOM     18  C   UNL     1      -1.972  16.346  20.517  0.00  0.00    +0.000 A 
ATOM     19  C   UNL     1      -1.035  16.138  19.495  0.00  0.00    +0.000 A 
ATOM     20  C   UNL     1      -0.090  17.118  19.188  0.00  0.00    +0.000 A 
ATOM     21  C   UNL     1      -0.087  18.326  19.881  0.00  0.00    +0.000 A 
ATOM     22  C   UNL     1      -1.032  18.560  20.877  0.00  0.00    +0.000 A 
ATOM     23  C   UNL     1      -1.972  17.573  21.195  0.00  0.00    +0.000 A 
ENDBRANCH  16  18
ENDBRANCH  11  16
BRANCH  12  24
ATOM     24  O   UNL     1      -2.472  12.850  19.787  0.00  0.00    +0.000 OA
ATOM     25  H   UNL     1      -3.111  13.565  19.612  0.00  0.00    +0.000 HD
ENDBRANCH  12  24
BRANCH   1  26
ATOM     26  C   UNL     1       0.263  10.095  18.831  0.00  0.00    +0.000 C 
BRANCH  26  27
ATOM     27  O   UNL     1      -0.178  10.983  17.799  0.00  0.00    +0.000 OA
ATOM     28  H   UNL     1      -0.242  10.451  16.985  0.00  0.00    +0.000 HD
ENDBRANCH  26  27
BRANCH  26  29
ATOM     29  C   UNL     1       1.708   9.594  18.549  0.00  0.00    +0.000 C 
BRANCH  29  31
ATOM     30  C   UNL     1       2.735   7.336  18.087  0.00  0.00    +0.000 C 
ATOM     31  C   UNL     1       2.034   8.154  18.886  0.00  0.00    +0.000 C 
BRANCH  30  33
ATOM     32  C   UNL     1       3.856   5.181  17.378  0.00  0.00    +0.000 C 
ATOM     33  C   UNL     1       2.852   5.851  18.300  0.00  0.00    +0.000 C 
ENDBRANCH  30  33
ENDBRANCH  29  31
BRANCH  29  34
ATOM     34  O   UNL     1       2.023   9.801  17.166  0.00  0.00    +0.000 OA
ATOM     35  H   UNL     1       1.205   9.685  16.654  0.00  0.00    +0.000 HD
ENDBRANCH  29  34
ENDBRANCH  26  29
ENDBRANCH   1  26
TORSDOF 10
ENDMDL
