MODEL 1
REMARK VINA RESULT:      -8.4      0.000      0.000
REMARK  Name = 
REMARK  4 active torsions:
REMARK  status: ('A' for Active; 'I' for Inactive)
REMARK    1  A    between atoms: C_1  and  C_2
REMARK    2  A    between atoms: C_11  and  N_12
REMARK    3  A    between atoms: C_13  and  C_15
REMARK    4  A    between atoms: C_18  and  C_19
REMARK                            x       y       z     vdW  Elec       q    Type
REMARK                         _______ _______ _______ _____ _____    ______ ____
ROOT
ATOM      1  N   UNL     1       2.150   7.795  19.206  0.00  0.00    +0.000 N 
ATOM      2  C   UNL     1       2.374   6.433  19.253  0.00  0.00    +0.000 C 
ATOM      3  O   UNL     1       1.915   5.660  20.091  0.00  0.00    +0.000 OA
ATOM      4  H   UNL     1       2.489   8.319  18.412  0.00  0.00    +0.000 HD
ENDROOT
BRANCH   1  15
ATOM      5  C   UNL     1      -2.773  12.194  18.418  0.00  0.00    +0.000 C 
ATOM      6  C   UNL     1      -1.837  11.085  18.836  0.00  0.00    +0.000 C 
ATOM      7  O   UNL     1      -1.664  10.155  18.047  0.00  0.00    +0.000 OA
ATOM      8  N   UNL     1      -1.262  11.191  20.111  0.00  0.00    +0.000 N 
ATOM      9  C   UNL     1      -1.635  12.244  21.068  0.00  0.00    +0.000 C 
ATOM     10  C   UNL     1      -1.982  11.661  22.424  0.00  0.00    +0.000 C 
ATOM     11  C   UNL     1      -0.775  10.944  23.000  0.00  0.00    +0.000 C 
ATOM     12  C   UNL     1      -0.041  10.126  21.972  0.00  0.00    +0.000 A 
ATOM     13  C   UNL     1       0.920   9.216  22.435  0.00  0.00    +0.000 A 
ATOM     14  C   UNL     1       1.644   8.427  21.543  0.00  0.00    +0.000 A 
ATOM     15  C   UNL     1       1.437   8.545  20.172  0.00  0.00    +0.000 A 
ATOM     16  C   UNL     1       0.495   9.473  19.708  0.00  0.00    +0.000 A 
ATOM     17  C   UNL     1      -0.273  10.258  20.587  0.00  0.00    +0.000 A 
ENDBRANCH   1  15
BRANCH   2  18
ATOM     18  C   UNL     1       3.263   5.852  18.208  0.00  0.00    +0.000 A 
ATOM     19  C   UNL     1       4.072   6.757  17.504  0.00  0.00    +0.000 A 
ATOM     20  C   UNL     1       4.941   6.314  16.509  0.00  0.00    +0.000 A 
ATOM     21  C   UNL     1       5.023   4.952  16.199  0.00  0.00    +0.000 A 
ATOM     22  C   UNL     1       4.224   4.043  16.914  0.00  0.00    +0.000 A 
ATOM     23  C   UNL     1       3.349   4.487  17.916  0.00  0.00    +0.000 A 
BRANCH  21  24
ATOM     24  C   UNL     1       5.964   4.469  15.122  0.00  0.00    +0.000 C 
ATOM     25  F   UNL     1       6.286   3.150  15.231  0.00  0.00    +0.000 F 
ATOM     26  F   UNL     1       5.449   4.624  13.871  0.00  0.00    +0.000 F 
ATOM     27  F   UNL     1       7.147   5.142  15.127  0.00  0.00    +0.000 F 
ENDBRANCH  21  24
ENDBRANCH   2  18
TORSDOF 3
ENDMDL
MODEL 2
REMARK VINA RESULT:      -8.3      1.184      1.558
REMARK  Name = 
REMARK  4 active torsions:
REMARK  status: ('A' for Active; 'I' for Inactive)
REMARK    1  A    between atoms: C_1  and  C_2
REMARK    2  A    between atoms: C_11  and  N_12
REMARK    3  A    between atoms: C_13  and  C_15
REMARK    4  A    between atoms: C_18  and  C_19
REMARK                            x       y       z     vdW  Elec       q    Type
REMARK                         _______ _______ _______ _____ _____    ______ ____
ROOT
ATOM      1  N   UNL     1       1.980   8.001  19.201  0.00  0.00    +0.000 N 
ATOM      2  C   UNL     1       2.431   6.699  19.291  0.00  0.00    +0.000 C 
ATOM      3  O   UNL     1       2.166   5.910  20.196  0.00  0.00    +0.000 OA
ATOM      4  H   UNL     1       2.172   8.527  18.361  0.00  0.00    +0.000 HD
ENDROOT
BRANCH   1  15
ATOM      5  C   UNL     1      -0.059  14.325  19.421  0.00  0.00    +0.000 C 
ATOM      6  C   UNL     1       0.105  12.825  19.467  0.00  0.00    +0.000 C 
ATOM      7  O   UNL     1       0.283  12.236  18.399  0.00  0.00    +0.000 OA
ATOM      8  N   UNL     1       0.009  12.217  20.727  0.00  0.00    +0.000 N 
ATOM      9  C   UNL     1      -0.365  12.958  21.942  0.00  0.00    +0.000 C 
ATOM     10  C   UNL     1      -1.490  12.265  22.687  0.00  0.00    +0.000 C 
ATOM     11  C   UNL     1      -1.040  10.885  23.130  0.00  0.00    +0.000 C 
ATOM     12  C   UNL     1      -0.256  10.162  22.067  0.00  0.00    +0.000 A 
ATOM     13  C   UNL     1      -0.021   8.793  22.255  0.00  0.00    +0.000 A 
ATOM     14  C   UNL     1       0.700   8.057  21.317  0.00  0.00    +0.000 A 
ATOM     15  C   UNL     1       1.218   8.678  20.184  0.00  0.00    +0.000 A 
ATOM     16  C   UNL     1       1.006  10.051  20.009  0.00  0.00    +0.000 A 
ATOM     17  C   UNL     1       0.252  10.811  20.922  0.00  0.00    +0.000 A 
ENDBRANCH   1  15
BRANCH   2  18
ATOM     18  C   UNL     1       3.332   6.213  18.209  0.00  0.00    +0.000 A 
ATOM     19  C   UNL     1       3.306   4.835  17.948  0.00  0.00    +0.000 A 
ATOM     20  C   UNL     1       4.109   4.281  16.953  0.00  0.00    +0.000 A 
ATOM     21  C   UNL     1       4.955   5.096  16.193  0.00  0.00    +0.000 A 
ATOM     22  C   UNL     1       4.971   6.479  16.443  0.00  0.00    +0.000 A 
ATOM     23  C   UNL     1       4.163   7.039  17.445  0.00  0.00    +0.000 A 
BRANCH  21  24
ATOM     24  C   UNL     1       5.826   4.499  15.114  0.00  0.00    +0.000 C 
ATOM     25  F   UNL     1       6.285   3.252  15.414  0.00  0.00    +0.000 F 
ATOM     26  F   UNL     1       5.175   4.380  13.923  0.00  0.00    +0.000 F 
ATOM     27  F   UNL     1       6.931   5.253  14.864  0.00  0.00    +0.000 F 
ENDBRANCH  21  24
ENDBRANCH   2  18
TORSDOF 3
ENDMDL
MODEL 3
REMARK VINA RESULT:      -8.3      5.746      8.512
REMARK  Name = 
REMARK  4 active torsions:
REMARK  status: ('A' for Active; 'I' for Inactive)
REMARK    1  A    between atoms: C_1  and  C_2
REMARK    2  A    between atoms: C_11  and  N_12
REMARK    3  A    between atoms: C_13  and  C_15
REMARK    4  A    between atoms: C_18  and  C_19
REMARK                            x       y       z     vdW  Elec       q    Type
REMARK                         _______ _______ _______ _____ _____    ______ ____
ROOT
ATOM      1  N   UNL     1       6.870   7.962  17.241  0.00  0.00    +0.000 N 
ATOM      2  C   UNL     1       7.935   8.169  18.096  0.00  0.00    +0.000 C 
ATOM      3  O   UNL     1       8.494   7.303  18.766  0.00  0.00    +0.000 OA
ATOM      4  H   UNL     1       6.558   8.726  16.659  0.00  0.00    +0.000 HD
ENDROOT
BRANCH   1  15
ATOM      5  C   UNL     1       1.635   5.514  20.527  0.00  0.00    +0.000 C 
ATOM      6  C   UNL     1       2.666   5.968  19.522  0.00  0.00    +0.000 C 
ATOM      7  O   UNL     1       2.843   7.181  19.393  0.00  0.00    +0.000 OA
ATOM      8  N   UNL     1       3.318   4.966  18.789  0.00  0.00    +0.000 N 
ATOM      9  C   UNL     1       2.945   3.546  18.876  0.00  0.00    +0.000 C 
ATOM     10  C   UNL     1       2.730   2.946  17.499  0.00  0.00    +0.000 C 
ATOM     11  C   UNL     1       4.016   3.020  16.699  0.00  0.00    +0.000 C 
ATOM     12  C   UNL     1       4.730   4.335  16.866  0.00  0.00    +0.000 A 
ATOM     13  C   UNL     1       5.776   4.621  15.978  0.00  0.00    +0.000 A 
ATOM     14  C   UNL     1       6.486   5.816  16.074  0.00  0.00    +0.000 A 
ATOM     15  C   UNL     1       6.178   6.740  17.069  0.00  0.00    +0.000 A 
ATOM     16  C   UNL     1       5.150   6.442  17.972  0.00  0.00    +0.000 A 
ATOM     17  C   UNL     1       4.395   5.259  17.878  0.00  0.00    +0.000 A 
ENDBRANCH   1  15
BRANCH   2  18
ATOM     18  C   UNL     1       8.440   9.563  18.232  0.00  0.00    +0.000 A 
ATOM     19  C   UNL     1       9.419   9.779  19.214  0.00  0.00    +0.000 A 
ATOM     20  C   UNL     1       9.959  11.047  19.418  0.00  0.00    +0.000 A 
ATOM     21  C   UNL     1       9.533  12.130  18.640  0.00  0.00    +0.000 A 
ATOM     22  C   UNL     1       8.563  11.912  17.646  0.00  0.00    +0.000 A 
ATOM     23  C   UNL     1       8.019  10.635  17.439  0.00  0.00    +0.000 A 
BRANCH  21  24
ATOM     24  C   UNL     1      10.116  13.505  18.859  0.00  0.00    +0.000 C 
ATOM     25  F   UNL     1       9.208  14.416  19.308  0.00  0.00    +0.000 F 
ATOM     26  F   UNL     1      11.127  13.504  19.772  0.00  0.00    +0.000 F 
ATOM     27  F   UNL     1      10.641  14.032  17.719  0.00  0.00    +0.000 F 
ENDBRANCH  21  24
ENDBRANCH   2  18
TORSDOF 3
ENDMDL
MODEL 4
REMARK VINA RESULT:      -8.2      5.533      9.360
REMARK  Name = 
REMARK  4 active torsions:
REMARK  status: ('A' for Active; 'I' for Inactive)
REMARK    1  A    between atoms: C_1  and  C_2
REMARK    2  A    between atoms: C_11  and  N_12
REMARK    3  A    between atoms: C_13  and  C_15
REMARK    4  A    between atoms: C_18  and  C_19
REMARK                            x       y       z     vdW  Elec       q    Type
REMARK                         _______ _______ _______ _____ _____    ______ ____
ROOT
ATOM      1  N   UNL     1       1.250   9.029  19.588  0.00  0.00    +0.000 N 
ATOM      2  C   UNL     1       0.952   9.099  20.935  0.00  0.00    +0.000 C 
ATOM      3  O   UNL     1       1.453   8.404  21.817  0.00  0.00    +0.000 OA
ATOM      4  H   UNL     1       0.858   9.721  18.966  0.00  0.00    +0.000 HD
ENDROOT
BRANCH   1  15
ATOM      5  C   UNL     1       2.538   2.735  21.299  0.00  0.00    +0.000 C 
ATOM      6  C   UNL     1       2.229   4.045  20.614  0.00  0.00    +0.000 C 
ATOM      7  O   UNL     1       1.144   4.576  20.861  0.00  0.00    +0.000 OA
ATOM      8  N   UNL     1       3.193   4.535  19.723  0.00  0.00    +0.000 N 
ATOM      9  C   UNL     1       4.394   3.772  19.351  0.00  0.00    +0.000 C 
ATOM     10  C   UNL     1       4.560   3.703  17.844  0.00  0.00    +0.000 C 
ATOM     11  C   UNL     1       4.730   5.101  17.280  0.00  0.00    +0.000 C 
ATOM     12  C   UNL     1       3.794   6.098  17.910  0.00  0.00    +0.000 A 
ATOM     13  C   UNL     1       3.670   7.350  17.291  0.00  0.00    +0.000 A 
ATOM     14  C   UNL     1       2.827   8.326  17.818  0.00  0.00    +0.000 A 
ATOM     15  C   UNL     1       2.107   8.079  18.983  0.00  0.00    +0.000 A 
ATOM     16  C   UNL     1       2.251   6.838  19.616  0.00  0.00    +0.000 A 
ATOM     17  C   UNL     1       3.068   5.822  19.087  0.00  0.00    +0.000 A 
ENDBRANCH   1  15
BRANCH   2  18
ATOM     18  C   UNL     1      -0.078  10.090  21.356  0.00  0.00    +0.000 A 
ATOM     19  C   UNL     1      -0.441  10.074  22.711  0.00  0.00    +0.000 A 
ATOM     20  C   UNL     1      -1.393  10.963  23.205  0.00  0.00    +0.000 A 
ATOM     21  C   UNL     1      -2.001  11.892  22.353  0.00  0.00    +0.000 A 
ATOM     22  C   UNL     1      -1.627  11.919  20.999  0.00  0.00    +0.000 A 
ATOM     23  C   UNL     1      -0.668  11.024  20.499  0.00  0.00    +0.000 A 
BRANCH  21  24
ATOM     24  C   UNL     1      -3.033  12.857  22.886  0.00  0.00    +0.000 C 
ATOM     25  F   UNL     1      -2.695  14.165  22.716  0.00  0.00    +0.000 F 
ATOM     26  F   UNL     1      -4.248  12.705  22.289  0.00  0.00    +0.000 F 
ATOM     27  F   UNL     1      -3.250  12.699  24.221  0.00  0.00    +0.000 F 
ENDBRANCH  21  24
ENDBRANCH   2  18
TORSDOF 3
ENDMDL
MODEL 5
REMARK VINA RESULT:      -8.2      5.491      9.316
REMARK  Name = 
REMARK  4 active torsions:
REMARK  status: ('A' for Active; 'I' for Inactive)
REMARK    1  A    between atoms: C_1  and  C_2
REMARK    2  A    between atoms: C_11  and  N_12
REMARK    3  A    between atoms: C_13  and  C_15
REMARK    4  A    between atoms: C_18  and  C_19
REMARK                            x       y       z     vdW  Elec       q    Type
REMARK                         _______ _______ _______ _____ _____    ______ ____
ROOT
ATOM      1  N   UNL     1       1.218   9.004  19.715  0.00  0.00    +0.000 N 
ATOM      2  C   UNL     1       1.056   9.150  21.078  0.00  0.00    +0.000 C 
ATOM      3  O   UNL     1       1.691   8.552  21.944  0.00  0.00    +0.000 OA
ATOM      4  H   UNL     1       0.717   9.624  19.095  0.00  0.00    +0.000 HD
ENDROOT
BRANCH   1  15
ATOM      5  C   UNL     1       2.522   2.674  21.273  0.00  0.00    +0.000 C 
ATOM      6  C   UNL     1       2.207   3.999  20.620  0.00  0.00    +0.000 C 
ATOM      7  O   UNL     1       1.124   4.523  20.884  0.00  0.00    +0.000 OA
ATOM      8  N   UNL     1       3.167   4.511  19.736  0.00  0.00    +0.000 N 
ATOM      9  C   UNL     1       4.367   3.758  19.340  0.00  0.00    +0.000 C 
ATOM     10  C   UNL     1       4.526   3.724  17.831  0.00  0.00    +0.000 C 
ATOM     11  C   UNL     1       4.691   5.135  17.300  0.00  0.00    +0.000 C 
ATOM     12  C   UNL     1       3.758   6.116  17.957  0.00  0.00    +0.000 A 
ATOM     13  C   UNL     1       3.629   7.381  17.367  0.00  0.00    +0.000 A 
ATOM     14  C   UNL     1       2.787   8.344  17.921  0.00  0.00    +0.000 A 
ATOM     15  C   UNL     1       2.073   8.069  19.083  0.00  0.00    +0.000 A 
ATOM     16  C   UNL     1       2.222   6.814  19.687  0.00  0.00    +0.000 A 
ATOM     17  C   UNL     1       3.038   5.812  19.131  0.00  0.00    +0.000 A 
ENDBRANCH   1  15
BRANCH   2  18
ATOM     18  C   UNL     1       0.007  10.102  21.542  0.00  0.00    +0.000 A 
ATOM     19  C   UNL     1      -0.541  10.950  20.568  0.00  0.00    +0.000 A 
ATOM     20  C   UNL     1      -1.530  11.873  20.899  0.00  0.00    +0.000 A 
ATOM     21  C   UNL     1      -1.997  11.966  22.215  0.00  0.00    +0.000 A 
ATOM     22  C   UNL     1      -1.459  11.107  23.189  0.00  0.00    +0.000 A 
ATOM     23  C   UNL     1      -0.463  10.176  22.857  0.00  0.00    +0.000 A 
BRANCH  21  24
ATOM     24  C   UNL     1      -3.069  12.966  22.576  0.00  0.00    +0.000 C 
ATOM     25  F   UNL     1      -3.316  13.039  23.914  0.00  0.00    +0.000 F 
ATOM     26  F   UNL     1      -2.755  14.232  22.186  0.00  0.00    +0.000 F 
ATOM     27  F   UNL     1      -4.264  12.679  21.992  0.00  0.00    +0.000 F 
ENDBRANCH  21  24
ENDBRANCH   2  18
TORSDOF 3
ENDMDL
MODEL 6
REMARK VINA RESULT:      -8.2      5.670      8.398
REMARK  Name = 
REMARK  4 active torsions:
REMARK  status: ('A' for Active; 'I' for Inactive)
REMARK    1  A    between atoms: C_1  and  C_2
REMARK    2  A    between atoms: C_11  and  N_12
REMARK    3  A    between atoms: C_13  and  C_15
REMARK    4  A    between atoms: C_18  and  C_19
REMARK                            x       y       z     vdW  Elec       q    Type
REMARK                         _______ _______ _______ _____ _____    ______ ____
ROOT
ATOM      1  N   UNL     1       6.857   7.916  17.286  0.00  0.00    +0.000 N 
ATOM      2  C   UNL     1       7.933   8.059  18.139  0.00  0.00    +0.000 C 
ATOM      3  O   UNL     1       8.465   7.154  18.780  0.00  0.00    +0.000 OA
ATOM      4  H   UNL     1       6.568   8.706  16.729  0.00  0.00    +0.000 HD
ENDROOT
BRANCH   1  15
ATOM      5  C   UNL     1       1.584   5.535  20.563  0.00  0.00    +0.000 C 
ATOM      6  C   UNL     1       2.617   5.988  19.559  0.00  0.00    +0.000 C 
ATOM      7  O   UNL     1       2.834   7.198  19.468  0.00  0.00    +0.000 OA
ATOM      8  N   UNL     1       3.224   4.990  18.783  0.00  0.00    +0.000 N 
ATOM      9  C   UNL     1       2.804   3.581  18.827  0.00  0.00    +0.000 C 
ATOM     10  C   UNL     1       2.550   3.037  17.434  0.00  0.00    +0.000 C 
ATOM     11  C   UNL     1       3.827   3.094  16.618  0.00  0.00    +0.000 C 
ATOM     12  C   UNL     1       4.588   4.378  16.820  0.00  0.00    +0.000 A 
ATOM     13  C   UNL     1       5.631   4.659  15.927  0.00  0.00    +0.000 A 
ATOM     14  C   UNL     1       6.383   5.825  16.052  0.00  0.00    +0.000 A 
ATOM     15  C   UNL     1       6.121   6.724  17.083  0.00  0.00    +0.000 A 
ATOM     16  C   UNL     1       5.095   6.430  17.990  0.00  0.00    +0.000 A 
ATOM     17  C   UNL     1       4.299   5.277  17.867  0.00  0.00    +0.000 A 
ENDBRANCH   1  15
BRANCH   2  18
ATOM     18  C   UNL     1       8.488   9.430  18.313  0.00  0.00    +0.000 A 
ATOM     19  C   UNL     1       7.966  10.425  17.473  0.00  0.00    +0.000 A 
ATOM     20  C   UNL     1       8.416  11.741  17.559  0.00  0.00    +0.000 A 
ATOM     21  C   UNL     1       9.399  12.092  18.491  0.00  0.00    +0.000 A 
ATOM     22  C   UNL     1       9.912  11.099  19.343  0.00  0.00    +0.000 A 
ATOM     23  C   UNL     1       9.460   9.773  19.259  0.00  0.00    +0.000 A 
BRANCH  21  24
ATOM     24  C   UNL     1       9.889  13.517  18.586  0.00  0.00    +0.000 C 
ATOM     25  F   UNL     1      10.041  14.122  17.376  0.00  0.00    +0.000 F 
ATOM     26  F   UNL     1       9.043  14.313  19.298  0.00  0.00    +0.000 F 
ATOM     27  F   UNL     1      11.098  13.609  19.203  0.00  0.00    +0.000 F 
ENDBRANCH  21  24
ENDBRANCH   2  18
TORSDOF 3
ENDMDL
MODEL 7
REMARK VINA RESULT:      -8.1      5.582      9.526
REMARK  Name = 
REMARK  4 active torsions:
REMARK  status: ('A' for Active; 'I' for Inactive)
REMARK    1  A    between atoms: C_1  and  C_2
REMARK    2  A    between atoms: C_11  and  N_12
REMARK    3  A    between atoms: C_13  and  C_15
REMARK    4  A    between atoms: C_18  and  C_19
REMARK                            x       y       z     vdW  Elec       q    Type
REMARK                         _______ _______ _______ _____ _____    ______ ____
ROOT
ATOM      1  N   UNL     1       1.090   8.887  20.208  0.00  0.00    +0.000 N 
ATOM      2  C   UNL     1       0.180   9.815  19.741  0.00  0.00    +0.000 C 
ATOM      3  O   UNL     1      -0.099  10.015  18.561  0.00  0.00    +0.000 OA
ATOM      4  H   UNL     1       1.162   8.732  21.203  0.00  0.00    +0.000 HD
ENDROOT
BRANCH   1  15
ATOM      5  C   UNL     1       2.987   2.566  21.008  0.00  0.00    +0.000 C 
ATOM      6  C   UNL     1       2.511   3.913  20.522  0.00  0.00    +0.000 C 
ATOM      7  O   UNL     1       1.432   4.327  20.949  0.00  0.00    +0.000 OA
ATOM      8  N   UNL     1       3.327   4.574  19.592  0.00  0.00    +0.000 N 
ATOM      9  C   UNL     1       4.523   3.954  19.000  0.00  0.00    +0.000 C 
ATOM     10  C   UNL     1       4.510   4.063  17.486  0.00  0.00    +0.000 C 
ATOM     11  C   UNL     1       4.518   5.524  17.076  0.00  0.00    +0.000 C 
ATOM     12  C   UNL     1       3.601   6.368  17.921  0.00  0.00    +0.000 A 
ATOM     13  C   UNL     1       3.321   7.666  17.471  0.00  0.00    +0.000 A 
ATOM     14  C   UNL     1       2.485   8.509  18.201  0.00  0.00    +0.000 A 
ATOM     15  C   UNL     1       1.928   8.080  19.402  0.00  0.00    +0.000 A 
ATOM     16  C   UNL     1       2.229   6.792  19.864  0.00  0.00    +0.000 A 
ATOM     17  C   UNL     1       3.042   5.909  19.131  0.00  0.00    +0.000 A 
ENDBRANCH   1  15
BRANCH   2  18
ATOM     18  C   UNL     1      -0.512  10.660  20.754  0.00  0.00    +0.000 A 
ATOM     19  C   UNL     1      -1.293  11.715  20.258  0.00  0.00    +0.000 A 
ATOM     20  C   UNL     1      -1.983  12.562  21.123  0.00  0.00    +0.000 A 
ATOM     21  C   UNL     1      -1.911  12.369  22.507  0.00  0.00    +0.000 A 
ATOM     22  C   UNL     1      -1.140  11.303  23.005  0.00  0.00    +0.000 A 
ATOM     23  C   UNL     1      -0.445  10.450  22.135  0.00  0.00    +0.000 A 
BRANCH  21  24
ATOM     24  C   UNL     1      -2.657  13.285  23.446  0.00  0.00    +0.000 C 
ATOM     25  F   UNL     1      -1.841  14.038  24.235  0.00  0.00    +0.000 F 
ATOM     26  F   UNL     1      -3.459  14.167  22.788  0.00  0.00    +0.000 F 
ATOM     27  F   UNL     1      -3.471  12.602  24.297  0.00  0.00    +0.000 F 
ENDBRANCH  21  24
ENDBRANCH   2  18
TORSDOF 3
ENDMDL
MODEL 8
REMARK VINA RESULT:      -8.1      1.379      1.638
REMARK  Name = 
REMARK  4 active torsions:
REMARK  status: ('A' for Active; 'I' for Inactive)
REMARK    1  A    between atoms: C_1  and  C_2
REMARK    2  A    between atoms: C_11  and  N_12
REMARK    3  A    between atoms: C_13  and  C_15
REMARK    4  A    between atoms: C_18  and  C_19
REMARK                            x       y       z     vdW  Elec       q    Type
REMARK                         _______ _______ _______ _____ _____    ______ ____
ROOT
ATOM      1  N   UNL     1       1.868   8.048  19.380  0.00  0.00    +0.000 N 
ATOM      2  C   UNL     1       2.252   6.733  19.557  0.00  0.00    +0.000 C 
ATOM      3  O   UNL     1       1.929   6.013  20.500  0.00  0.00    +0.000 OA
ATOM      4  H   UNL     1       2.104   8.512  18.515  0.00  0.00    +0.000 HD
ENDROOT
BRANCH   1  15
ATOM      5  C   UNL     1       0.505  14.555  19.399  0.00  0.00    +0.000 C 
ATOM      6  C   UNL     1       0.505  13.047  19.471  0.00  0.00    +0.000 C 
ATOM      7  O   UNL     1       0.690  12.424  18.423  0.00  0.00    +0.000 OA
ATOM      8  N   UNL     1       0.261  12.474  20.727  0.00  0.00    +0.000 N 
ATOM      9  C   UNL     1      -0.112  13.270  21.906  0.00  0.00    +0.000 C 
ATOM     10  C   UNL     1      -1.352  12.713  22.580  0.00  0.00    +0.000 C 
ATOM     11  C   UNL     1      -1.082  11.301  23.065  0.00  0.00    +0.000 C 
ATOM     12  C   UNL     1      -0.311  10.481  22.065  0.00  0.00    +0.000 A 
ATOM     13  C   UNL     1      -0.236   9.098  22.282  0.00  0.00    +0.000 A 
ATOM     14  C   UNL     1       0.464   8.275  21.403  0.00  0.00    +0.000 A 
ATOM     15  C   UNL     1       1.119   8.818  20.302  0.00  0.00    +0.000 A 
ATOM     16  C   UNL     1       1.067  10.203  20.100  0.00  0.00    +0.000 A 
ATOM     17  C   UNL     1       0.339  11.053  20.952  0.00  0.00    +0.000 A 
ENDBRANCH   1  15
BRANCH   2  18
ATOM     18  C   UNL     1       3.152   6.141  18.528  0.00  0.00    +0.000 A 
ATOM     19  C   UNL     1       3.826   7.045  17.694  0.00  0.00    +0.000 A 
ATOM     20  C   UNL     1       4.693   6.592  16.702  0.00  0.00    +0.000 A 
ATOM     21  C   UNL     1       4.908   5.221  16.524  0.00  0.00    +0.000 A 
ATOM     22  C   UNL     1       4.244   4.314  17.369  0.00  0.00    +0.000 A 
ATOM     23  C   UNL     1       3.371   4.769  18.369  0.00  0.00    +0.000 A 
BRANCH  21  24
ATOM     24  C   UNL     1       5.847   4.727  15.450  0.00  0.00    +0.000 C 
ATOM     25  F   UNL     1       5.321   4.792  14.196  0.00  0.00    +0.000 F 
ATOM     26  F   UNL     1       7.008   5.438  15.405  0.00  0.00    +0.000 F 
ATOM     27  F   UNL     1       6.209   3.429  15.636  0.00  0.00    +0.000 F 
ENDBRANCH  21  24
ENDBRANCH   2  18
TORSDOF 3
ENDMDL
MODEL 9
REMARK VINA RESULT:      -8.1      0.952      1.313
REMARK  Name = 
REMARK  4 active torsions:
REMARK  status: ('A' for Active; 'I' for Inactive)
REMARK    1  A    between atoms: C_1  and  C_2
REMARK    2  A    between atoms: C_11  and  N_12
REMARK    3  A    between atoms: C_13  and  C_15
REMARK    4  A    between atoms: C_18  and  C_19
REMARK                            x       y       z     vdW  Elec       q    Type
REMARK                         _______ _______ _______ _____ _____    ______ ____
ROOT
ATOM      1  N   UNL     1       1.838   8.400  18.699  0.00  0.00    +0.000 N 
ATOM      2  C   UNL     1       2.266   7.150  19.100  0.00  0.00    +0.000 C 
ATOM      3  O   UNL     1       1.980   6.601  20.162  0.00  0.00    +0.000 OA
ATOM      4  H   UNL     1       2.047   8.709  17.760  0.00  0.00    +0.000 HD
ENDROOT
BRANCH   1  15
ATOM      5  C   UNL     1      -3.853  11.539  17.303  0.00  0.00    +0.000 C 
ATOM      6  C   UNL     1      -2.700  10.772  17.903  0.00  0.00    +0.000 C 
ATOM      7  O   UNL     1      -2.424   9.676  17.410  0.00  0.00    +0.000 OA
ATOM      8  N   UNL     1      -2.053  11.359  19.000  0.00  0.00    +0.000 N 
ATOM      9  C   UNL     1      -2.534  12.592  19.641  0.00  0.00    +0.000 C 
ATOM     10  C   UNL     1      -2.658  12.422  21.144  0.00  0.00    +0.000 C 
ATOM     11  C   UNL     1      -1.298  12.113  21.740  0.00  0.00    +0.000 C 
ATOM     12  C   UNL     1      -0.511  11.131  20.913  0.00  0.00    +0.000 A 
ATOM     13  C   UNL     1       0.634  10.567  21.493  0.00  0.00    +0.000 A 
ATOM     14  C   UNL     1       1.415   9.655  20.788  0.00  0.00    +0.000 A 
ATOM     15  C   UNL     1       1.080   9.301  19.484  0.00  0.00    +0.000 A 
ATOM     16  C   UNL     1      -0.050   9.884  18.895  0.00  0.00    +0.000 A 
ATOM     17  C   UNL     1      -0.875  10.782  19.596  0.00  0.00    +0.000 A 
ENDBRANCH   1  15
BRANCH   2  18
ATOM     18  C   UNL     1       3.168   6.408  18.175  0.00  0.00    +0.000 A 
ATOM     19  C   UNL     1       4.034   7.186  17.391  0.00  0.00    +0.000 A 
ATOM     20  C   UNL     1       4.919   6.588  16.497  0.00  0.00    +0.000 A 
ATOM     21  C   UNL     1       4.961   5.195  16.369  0.00  0.00    +0.000 A 
ATOM     22  C   UNL     1       4.104   4.414  17.164  0.00  0.00    +0.000 A 
ATOM     23  C   UNL     1       3.212   5.015  18.065  0.00  0.00    +0.000 A 
BRANCH  21  24
ATOM     24  C   UNL     1       5.919   4.544  15.401  0.00  0.00    +0.000 C 
ATOM     25  F   UNL     1       7.186   5.039  15.473  0.00  0.00    +0.000 F 
ATOM     26  F   UNL     1       6.031   3.202  15.600  0.00  0.00    +0.000 F 
ATOM     27  F   UNL     1       5.531   4.700  14.105  0.00  0.00    +0.000 F 
ENDBRANCH  21  24
ENDBRANCH   2  18
TORSDOF 3
ENDMDL
