MODEL 1
REMARK VINA RESULT:      -6.4      0.000      0.000
REMARK  Name = 
REMARK  8 active torsions:
REMARK  status: ('A' for Active; 'I' for Inactive)
REMARK    1  A    between atoms: C_1  and  O_2
REMARK    2  A    between atoms: O_2  and  C_3
REMARK    3  A    between atoms: C_3  and  C_4
REMARK    4  A    between atoms: C_4  and  C_5
REMARK    5  A    between atoms: N_11  and  C_12
REMARK    6  A    between atoms: C_12  and  C_13
REMARK    7  A    between atoms: N_15  and  C_16
REMARK    8  A    between atoms: N_15  and  C_17
REMARK                            x       y       z     vdW  Elec       q    Type
REMARK                         _______ _______ _______ _____ _____    ______ ____
ROOT
ATOM      1  C   UNL     1       2.859   6.436  19.288  0.00  0.00    +0.000 C 
ATOM      2  O   UNL     1       3.016   7.009  18.210  0.00  0.00    +0.000 OA
ATOM      3  N   UNL     1       2.205   6.941  20.379  0.00  0.00    +0.000 N 
ATOM      4  C   UNL     1       1.583   8.158  20.420  0.00  0.00    +0.000 A 
ATOM      5  N   UNL     1       1.139   8.620  21.629  0.00  0.00    +0.000 NA
ATOM      6  C   UNL     1       0.618   9.791  21.334  0.00  0.00    +0.000 A 
ATOM      7  N   UNL     1       0.667   9.984  19.990  0.00  0.00    +0.000 N 
ATOM      8  N   UNL     1       1.339   8.980  19.399  0.00  0.00    +0.000 NA
ATOM      9  H   UNL     1       2.155   6.425  21.250  0.00  0.00    +0.000 HD
ENDROOT
BRANCH   1  10
ATOM     10  C   UNL     1       3.406   5.028  19.431  0.00  0.00    +0.000 C 
BRANCH  10  11
ATOM     11  C   UNL     1       2.412   3.879  19.608  0.00  0.00    +0.000 C 
ATOM     12  C   UNL     1       3.012   2.475  19.290  0.00  0.00    +0.000 C 
ATOM     13  C   UNL     1       2.336   2.503  17.916  0.00  0.00    +0.000 C 
ATOM     14  C   UNL     1       1.459   3.668  18.392  0.00  0.00    +0.000 C 
BRANCH  11  16
ATOM     15  C   UNL     1       1.530   2.708  21.593  0.00  0.00    +0.000 C 
ATOM     16  O   UNL     1       1.760   3.938  20.908  0.00  0.00    +0.000 OA
ENDBRANCH  11  16
ENDBRANCH  10  11
ENDBRANCH   1  10
BRANCH   7  17
ATOM     17  C   UNL     1       0.224  11.110  19.181  0.00  0.00    +0.000 C 
BRANCH  17  18
ATOM     18  C   UNL     1      -1.105  10.907  18.477  0.00  0.00    +0.000 C 
ATOM     19  O   UNL     1      -1.241  10.067  17.583  0.00  0.00    +0.000 OA
ATOM     20  N   UNL     1      -2.181  11.686  18.891  0.00  0.00    +0.000 N 
ATOM     21  C   UNL     1      -2.134  12.735  19.902  0.00  0.00    +0.000 C 
ATOM     22  C   UNL     1      -3.489  11.455  18.287  0.00  0.00    +0.000 C 
ENDBRANCH  17  18
ENDBRANCH   7  17
TORSDOF 5
ENDMDL
MODEL 2
REMARK VINA RESULT:      -6.4      1.002      1.232
REMARK  Name = 
REMARK  8 active torsions:
REMARK  status: ('A' for Active; 'I' for Inactive)
REMARK    1  A    between atoms: C_1  and  O_2
REMARK    2  A    between atoms: O_2  and  C_3
REMARK    3  A    between atoms: C_3  and  C_4
REMARK    4  A    between atoms: C_4  and  C_5
REMARK    5  A    between atoms: N_11  and  C_12
REMARK    6  A    between atoms: C_12  and  C_13
REMARK    7  A    between atoms: N_15  and  C_16
REMARK    8  A    between atoms: N_15  and  C_17
REMARK                            x       y       z     vdW  Elec       q    Type
REMARK                         _______ _______ _______ _____ _____    ______ ____
ROOT
ATOM      1  C   UNL     1       2.617   6.573  19.576  0.00  0.00    +0.000 C 
ATOM      2  O   UNL     1       2.850   7.182  18.532  0.00  0.00    +0.000 OA
ATOM      3  N   UNL     1       1.929   7.058  20.654  0.00  0.00    +0.000 N 
ATOM      4  C   UNL     1       1.351   8.296  20.717  0.00  0.00    +0.000 A 
ATOM      5  N   UNL     1       0.865   8.726  21.921  0.00  0.00    +0.000 NA
ATOM      6  C   UNL     1       0.404   9.927  21.652  0.00  0.00    +0.000 A 
ATOM      7  N   UNL     1       0.528  10.174  20.322  0.00  0.00    +0.000 N 
ATOM      8  N   UNL     1       1.191   9.169  19.721  0.00  0.00    +0.000 NA
ATOM      9  H   UNL     1       1.815   6.509  21.498  0.00  0.00    +0.000 HD
ENDROOT
BRANCH   1  10
ATOM     10  C   UNL     1       3.102   5.139  19.684  0.00  0.00    +0.000 C 
BRANCH  10  11
ATOM     11  C   UNL     1       2.110   4.014  19.386  0.00  0.00    +0.000 C 
ATOM     12  C   UNL     1       2.788   2.668  18.988  0.00  0.00    +0.000 C 
ATOM     13  C   UNL     1       2.496   2.963  17.513  0.00  0.00    +0.000 C 
ATOM     14  C   UNL     1       1.512   4.057  17.947  0.00  0.00    +0.000 C 
BRANCH  11  16
ATOM     15  C   UNL     1       1.418   2.909  21.481  0.00  0.00    +0.000 C 
ATOM     16  O   UNL     1       1.139   3.865  20.460  0.00  0.00    +0.000 OA
ENDBRANCH  11  16
ENDBRANCH  10  11
ENDBRANCH   1  10
BRANCH   7  17
ATOM     17  C   UNL     1       0.170  11.349  19.541  0.00  0.00    +0.000 C 
BRANCH  17  18
ATOM     18  C   UNL     1      -1.313  11.666  19.509  0.00  0.00    +0.000 C 
ATOM     19  O   UNL     1      -1.832  12.418  20.339  0.00  0.00    +0.000 OA
ATOM     20  N   UNL     1      -2.074  11.098  18.491  0.00  0.00    +0.000 N 
ATOM     21  C   UNL     1      -1.586  10.165  17.482  0.00  0.00    +0.000 C 
ATOM     22  C   UNL     1      -3.486  11.450  18.389  0.00  0.00    +0.000 C 
ENDBRANCH  17  18
ENDBRANCH   7  17
TORSDOF 5
ENDMDL
MODEL 3
REMARK VINA RESULT:      -6.4      0.804      1.590
REMARK  Name = 
REMARK  8 active torsions:
REMARK  status: ('A' for Active; 'I' for Inactive)
REMARK    1  A    between atoms: C_1  and  O_2
REMARK    2  A    between atoms: O_2  and  C_3
REMARK    3  A    between atoms: C_3  and  C_4
REMARK    4  A    between atoms: C_4  and  C_5
REMARK    5  A    between atoms: N_11  and  C_12
REMARK    6  A    between atoms: C_12  and  C_13
REMARK    7  A    between atoms: N_15  and  C_16
REMARK    8  A    between atoms: N_15  and  C_17
REMARK                            x       y       z     vdW  Elec       q    Type
REMARK                         _______ _______ _______ _____ _____    ______ ____
ROOT
ATOM      1  C   UNL     1       2.667   6.431  19.599  0.00  0.00    +0.000 C 
ATOM      2  O   UNL     1       2.811   6.857  18.453  0.00  0.00    +0.000 OA
ATOM      3  N   UNL     1       2.070   7.096  20.635  0.00  0.00    +0.000 N 
ATOM      4  C   UNL     1       1.498   8.334  20.540  0.00  0.00    +0.000 A 
ATOM      5  N   UNL     1       1.113   8.963  21.692  0.00  0.00    +0.000 NA
ATOM      6  C   UNL     1       0.628  10.109  21.266  0.00  0.00    +0.000 A 
ATOM      7  N   UNL     1       0.640  10.130  19.908  0.00  0.00    +0.000 N 
ATOM      8  N   UNL     1       1.252   9.031  19.429  0.00  0.00    +0.000 NA
ATOM      9  H   UNL     1       2.029   6.696  21.565  0.00  0.00    +0.000 HD
ENDROOT
BRANCH   1  10
ATOM     10  C   UNL     1       3.163   5.030  19.903  0.00  0.00    +0.000 C 
BRANCH  10  11
ATOM     11  C   UNL     1       2.240   3.850  19.591  0.00  0.00    +0.000 C 
ATOM     12  C   UNL     1       0.868   3.915  20.327  0.00  0.00    +0.000 C 
ATOM     13  C   UNL     1       1.380   2.905  21.360  0.00  0.00    +0.000 C 
ATOM     14  C   UNL     1       2.545   2.567  20.422  0.00  0.00    +0.000 C 
BRANCH  11  16
ATOM     15  C   UNL     1       2.583   2.417  17.612  0.00  0.00    +0.000 C 
ATOM     16  O   UNL     1       2.107   3.646  18.156  0.00  0.00    +0.000 OA
ENDBRANCH  11  16
ENDBRANCH  10  11
ENDBRANCH   1  10
BRANCH   7  17
ATOM     17  C   UNL     1       0.214  11.163  18.975  0.00  0.00    +0.000 C 
BRANCH  17  18
ATOM     18  C   UNL     1      -1.162  10.951  18.372  0.00  0.00    +0.000 C 
ATOM     19  O   UNL     1      -1.356  10.122  17.479  0.00  0.00    +0.000 OA
ATOM     20  N   UNL     1      -2.213  11.711  18.878  0.00  0.00    +0.000 N 
ATOM     21  C   UNL     1      -2.101  12.748  19.898  0.00  0.00    +0.000 C 
ATOM     22  C   UNL     1      -3.561  11.471  18.373  0.00  0.00    +0.000 C 
ENDBRANCH  17  18
ENDBRANCH   7  17
TORSDOF 5
ENDMDL
MODEL 4
REMARK VINA RESULT:      -6.3      2.548      7.623
REMARK  Name = 
REMARK  8 active torsions:
REMARK  status: ('A' for Active; 'I' for Inactive)
REMARK    1  A    between atoms: C_1  and  O_2
REMARK    2  A    between atoms: O_2  and  C_3
REMARK    3  A    between atoms: C_3  and  C_4
REMARK    4  A    between atoms: C_4  and  C_5
REMARK    5  A    between atoms: N_11  and  C_12
REMARK    6  A    between atoms: C_12  and  C_13
REMARK    7  A    between atoms: N_15  and  C_16
REMARK    8  A    between atoms: N_15  and  C_17
REMARK                            x       y       z     vdW  Elec       q    Type
REMARK                         _______ _______ _______ _____ _____    ______ ____
ROOT
ATOM      1  C   UNL     1       1.707   9.141  18.455  0.00  0.00    +0.000 C 
ATOM      2  O   UNL     1       2.075   8.883  17.310  0.00  0.00    +0.000 OA
ATOM      3  N   UNL     1       1.707   8.275  19.515  0.00  0.00    +0.000 N 
ATOM      4  C   UNL     1       2.163   6.987  19.469  0.00  0.00    +0.000 A 
ATOM      5  N   UNL     1       1.925   6.175  20.543  0.00  0.00    +0.000 NA
ATOM      6  C   UNL     1       2.462   5.030  20.184  0.00  0.00    +0.000 A 
ATOM      7  N   UNL     1       3.076   5.174  18.980  0.00  0.00    +0.000 N 
ATOM      8  N   UNL     1       2.839   6.400  18.480  0.00  0.00    +0.000 NA
ATOM      9  H   UNL     1       1.346   8.550  20.421  0.00  0.00    +0.000 HD
ENDROOT
BRANCH   1  10
ATOM     10  C   UNL     1       1.235  10.553  18.747  0.00  0.00    +0.000 C 
BRANCH  10  11
ATOM     11  C   UNL     1      -0.185  10.747  19.283  0.00  0.00    +0.000 C 
ATOM     12  C   UNL     1      -1.300  10.388  18.254  0.00  0.00    +0.000 C 
ATOM     13  C   UNL     1      -1.491  11.877  17.949  0.00  0.00    +0.000 C 
ATOM     14  C   UNL     1      -0.696  12.218  19.216  0.00  0.00    +0.000 C 
BRANCH  11  16
ATOM     15  C   UNL     1      -0.052  10.824  21.746  0.00  0.00    +0.000 C 
ATOM     16  O   UNL     1      -0.362  10.084  20.567  0.00  0.00    +0.000 OA
ENDBRANCH  11  16
ENDBRANCH  10  11
ENDBRANCH   1  10
BRANCH   7  17
ATOM     17  C   UNL     1       3.802   4.209  18.168  0.00  0.00    +0.000 C 
BRANCH  17  18
ATOM     18  C   UNL     1       5.312   4.258  18.316  0.00  0.00    +0.000 C 
ATOM     19  O   UNL     1       5.866   3.970  19.380  0.00  0.00    +0.000 OA
ATOM     20  N   UNL     1       6.059   4.616  17.198  0.00  0.00    +0.000 N 
ATOM     21  C   UNL     1       5.519   5.018  15.905  0.00  0.00    +0.000 C 
ATOM     22  C   UNL     1       7.516   4.594  17.290  0.00  0.00    +0.000 C 
ENDBRANCH  17  18
ENDBRANCH   7  17
TORSDOF 5
ENDMDL
MODEL 5
REMARK VINA RESULT:      -6.3      1.731      2.251
REMARK  Name = 
REMARK  8 active torsions:
REMARK  status: ('A' for Active; 'I' for Inactive)
REMARK    1  A    between atoms: C_1  and  O_2
REMARK    2  A    between atoms: O_2  and  C_3
REMARK    3  A    between atoms: C_3  and  C_4
REMARK    4  A    between atoms: C_4  and  C_5
REMARK    5  A    between atoms: N_11  and  C_12
REMARK    6  A    between atoms: C_12  and  C_13
REMARK    7  A    between atoms: N_15  and  C_16
REMARK    8  A    between atoms: N_15  and  C_17
REMARK                            x       y       z     vdW  Elec       q    Type
REMARK                         _______ _______ _______ _____ _____    ______ ____
ROOT
ATOM      1  C   UNL     1       2.952   6.285  19.304  0.00  0.00    +0.000 C 
ATOM      2  O   UNL     1       3.219   6.879  18.260  0.00  0.00    +0.000 OA
ATOM      3  N   UNL     1       2.241   6.790  20.358  0.00  0.00    +0.000 N 
ATOM      4  C   UNL     1       1.675   8.034  20.391  0.00  0.00    +0.000 A 
ATOM      5  N   UNL     1       1.162   8.483  21.577  0.00  0.00    +0.000 NA
ATOM      6  C   UNL     1       0.720   9.686  21.282  0.00  0.00    +0.000 A 
ATOM      7  N   UNL     1       0.882   9.915  19.952  0.00  0.00    +0.000 N 
ATOM      8  N   UNL     1       1.549   8.896  19.381  0.00  0.00    +0.000 NA
ATOM      9  H   UNL     1       2.099   6.252  21.205  0.00  0.00    +0.000 HD
ENDROOT
BRANCH   1  10
ATOM     10  C   UNL     1       3.420   4.848  19.442  0.00  0.00    +0.000 C 
BRANCH  10  11
ATOM     11  C   UNL     1       2.361   3.748  19.551  0.00  0.00    +0.000 C 
ATOM     12  C   UNL     1       2.908   2.319  19.255  0.00  0.00    +0.000 C 
ATOM     13  C   UNL     1       2.315   2.389  17.844  0.00  0.00    +0.000 C 
ATOM     14  C   UNL     1       1.471   3.594  18.280  0.00  0.00    +0.000 C 
BRANCH  11  16
ATOM     15  C   UNL     1       1.529   2.644  21.595  0.00  0.00    +0.000 C 
ATOM     16  O   UNL     1       1.638   3.831  20.811  0.00  0.00    +0.000 OA
ENDBRANCH  11  16
ENDBRANCH  10  11
ENDBRANCH   1  10
BRANCH   7  17
ATOM     17  C   UNL     1       0.556  11.084  19.149  0.00  0.00    +0.000 C 
BRANCH  17  18
ATOM     18  C   UNL     1       1.700  12.060  18.948  0.00  0.00    +0.000 C 
ATOM     19  O   UNL     1       2.507  11.930  18.025  0.00  0.00    +0.000 OA
ATOM     20  N   UNL     1       1.796  13.132  19.832  0.00  0.00    +0.000 N 
ATOM     21  C   UNL     1       0.932  13.369  20.982  0.00  0.00    +0.000 C 
ATOM     22  C   UNL     1       2.839  14.130  19.614  0.00  0.00    +0.000 C 
ENDBRANCH  17  18
ENDBRANCH   7  17
TORSDOF 5
ENDMDL
MODEL 6
REMARK VINA RESULT:      -6.3      1.945      2.643
REMARK  Name = 
REMARK  8 active torsions:
REMARK  status: ('A' for Active; 'I' for Inactive)
REMARK    1  A    between atoms: C_1  and  O_2
REMARK    2  A    between atoms: O_2  and  C_3
REMARK    3  A    between atoms: C_3  and  C_4
REMARK    4  A    between atoms: C_4  and  C_5
REMARK    5  A    between atoms: N_11  and  C_12
REMARK    6  A    between atoms: C_12  and  C_13
REMARK    7  A    between atoms: N_15  and  C_16
REMARK    8  A    between atoms: N_15  and  C_17
REMARK                            x       y       z     vdW  Elec       q    Type
REMARK                         _______ _______ _______ _____ _____    ______ ____
ROOT
ATOM      1  C   UNL     1       2.664   6.732  19.445  0.00  0.00    +0.000 C 
ATOM      2  O   UNL     1       2.889   7.468  18.484  0.00  0.00    +0.000 OA
ATOM      3  N   UNL     1       1.995   7.081  20.586  0.00  0.00    +0.000 N 
ATOM      4  C   UNL     1       1.430   8.305  20.815  0.00  0.00    +0.000 A 
ATOM      5  N   UNL     1       0.965   8.582  22.071  0.00  0.00    +0.000 NA
ATOM      6  C   UNL     1       0.511   9.811  21.964  0.00  0.00    +0.000 A 
ATOM      7  N   UNL     1       0.619  10.224  20.674  0.00  0.00    +0.000 N 
ATOM      8  N   UNL     1       1.264   9.298  19.940  0.00  0.00    +0.000 NA
ATOM      9  H   UNL     1       1.888   6.430  21.356  0.00  0.00    +0.000 HD
ENDROOT
BRANCH   1  10
ATOM     10  C   UNL     1       3.138   5.293  19.363  0.00  0.00    +0.000 C 
BRANCH  10  11
ATOM     11  C   UNL     1       2.096   4.200  19.116  0.00  0.00    +0.000 C 
ATOM     12  C   UNL     1       2.713   2.813  18.761  0.00  0.00    +0.000 C 
ATOM     13  C   UNL     1       2.419   3.067  17.279  0.00  0.00    +0.000 C 
ATOM     14  C   UNL     1       1.485   4.216  17.681  0.00  0.00    +0.000 C 
BRANCH  11  16
ATOM     15  C   UNL     1       1.321   3.128  21.199  0.00  0.00    +0.000 C 
ATOM     16  O   UNL     1       1.131   4.131  20.203  0.00  0.00    +0.000 OA
ENDBRANCH  11  16
ENDBRANCH  10  11
ENDBRANCH   1  10
BRANCH   7  17
ATOM     17  C   UNL     1       0.261  11.491  20.054  0.00  0.00    +0.000 C 
BRANCH  17  18
ATOM     18  C   UNL     1       1.135  12.666  20.452  0.00  0.00    +0.000 C 
ATOM     19  O   UNL     1       0.982  13.251  21.527  0.00  0.00    +0.000 OA
ATOM     20  N   UNL     1       2.140  13.051  19.568  0.00  0.00    +0.000 N 
ATOM     21  C   UNL     1       2.390  12.468  18.255  0.00  0.00    +0.000 C 
ATOM     22  C   UNL     1       3.046  14.126  19.960  0.00  0.00    +0.000 C 
ENDBRANCH  17  18
ENDBRANCH   7  17
TORSDOF 5
ENDMDL
MODEL 7
REMARK VINA RESULT:      -6.1      2.970      4.035
REMARK  Name = 
REMARK  8 active torsions:
REMARK  status: ('A' for Active; 'I' for Inactive)
REMARK    1  A    between atoms: C_1  and  O_2
REMARK    2  A    between atoms: O_2  and  C_3
REMARK    3  A    between atoms: C_3  and  C_4
REMARK    4  A    between atoms: C_4  and  C_5
REMARK    5  A    between atoms: N_11  and  C_12
REMARK    6  A    between atoms: C_12  and  C_13
REMARK    7  A    between atoms: N_15  and  C_16
REMARK    8  A    between atoms: N_15  and  C_17
REMARK                            x       y       z     vdW  Elec       q    Type
REMARK                         _______ _______ _______ _____ _____    ______ ____
ROOT
ATOM      1  C   UNL     1       3.485   5.791  18.251  0.00  0.00    +0.000 C 
ATOM      2  O   UNL     1       2.920   5.386  19.267  0.00  0.00    +0.000 OA
ATOM      3  N   UNL     1       3.315   7.019  17.673  0.00  0.00    +0.000 N 
ATOM      4  C   UNL     1       2.514   8.010  18.168  0.00  0.00    +0.000 A 
ATOM      5  N   UNL     1       2.286   9.111  17.389  0.00  0.00    +0.000 NA
ATOM      6  C   UNL     1       1.485   9.846  18.128  0.00  0.00    +0.000 A 
ATOM      7  N   UNL     1       1.310   9.252  19.337  0.00  0.00    +0.000 N 
ATOM      8  N   UNL     1       1.909   8.047  19.356  0.00  0.00    +0.000 NA
ATOM      9  H   UNL     1       3.785   7.264  16.808  0.00  0.00    +0.000 HD
ENDROOT
BRANCH   1  10
ATOM     10  C   UNL     1       4.487   4.870  17.582  0.00  0.00    +0.000 C 
BRANCH  10  11
ATOM     11  C   UNL     1       5.766   5.484  17.009  0.00  0.00    +0.000 C 
ATOM     12  C   UNL     1       5.740   5.658  15.460  0.00  0.00    +0.000 C 
ATOM     13  C   UNL     1       6.591   4.393  15.309  0.00  0.00    +0.000 C 
ATOM     14  C   UNL     1       6.927   4.464  16.804  0.00  0.00    +0.000 C 
BRANCH  11  16
ATOM     15  C   UNL     1       7.426   7.249  17.477  0.00  0.00    +0.000 C 
ATOM     16  O   UNL     1       6.128   6.707  17.712  0.00  0.00    +0.000 OA
ENDBRANCH  11  16
ENDBRANCH  10  11
ENDBRANCH   1  10
BRANCH   7  17
ATOM     17  C   UNL     1       0.522   9.665  20.489  0.00  0.00    +0.000 C 
BRANCH  17  18
ATOM     18  C   UNL     1       0.525  11.158  20.762  0.00  0.00    +0.000 C 
ATOM     19  O   UNL     1       1.414  11.691  21.432  0.00  0.00    +0.000 OA
ATOM     20  N   UNL     1      -0.502  11.918  20.208  0.00  0.00    +0.000 N 
ATOM     21  C   UNL     1      -1.626  11.399  19.439  0.00  0.00    +0.000 C 
ATOM     22  C   UNL     1      -0.479  13.366  20.388  0.00  0.00    +0.000 C 
ENDBRANCH  17  18
ENDBRANCH   7  17
TORSDOF 5
ENDMDL
MODEL 8
REMARK VINA RESULT:      -6.1      1.991      2.501
REMARK  Name = 
REMARK  8 active torsions:
REMARK  status: ('A' for Active; 'I' for Inactive)
REMARK    1  A    between atoms: C_1  and  O_2
REMARK    2  A    between atoms: O_2  and  C_3
REMARK    3  A    between atoms: C_3  and  C_4
REMARK    4  A    between atoms: C_4  and  C_5
REMARK    5  A    between atoms: N_11  and  C_12
REMARK    6  A    between atoms: C_12  and  C_13
REMARK    7  A    between atoms: N_15  and  C_16
REMARK    8  A    between atoms: N_15  and  C_17
REMARK                            x       y       z     vdW  Elec       q    Type
REMARK                         _______ _______ _______ _____ _____    ______ ____
ROOT
ATOM      1  C   UNL     1       2.665   5.951  19.657  0.00  0.00    +0.000 C 
ATOM      2  O   UNL     1       1.951   6.013  20.657  0.00  0.00    +0.000 OA
ATOM      3  N   UNL     1       2.779   6.913  18.690  0.00  0.00    +0.000 N 
ATOM      4  C   UNL     1       2.139   8.121  18.713  0.00  0.00    +0.000 A 
ATOM      5  N   UNL     1       2.188   8.904  17.593  0.00  0.00    +0.000 NA
ATOM      6  C   UNL     1       1.480   9.959  17.927  0.00  0.00    +0.000 A 
ATOM      7  N   UNL     1       1.096   9.855  19.226  0.00  0.00    +0.000 N 
ATOM      8  N   UNL     1       1.454   8.657  19.724  0.00  0.00    +0.000 NA
ATOM      9  H   UNL     1       3.357   6.770  17.870  0.00  0.00    +0.000 HD
ENDROOT
BRANCH   1  10
ATOM     10  C   UNL     1       3.530   4.718  19.477  0.00  0.00    +0.000 C 
BRANCH  10  11
ATOM     11  C   UNL     1       2.873   3.344  19.626  0.00  0.00    +0.000 C 
ATOM     12  C   UNL     1       3.531   2.235  18.750  0.00  0.00    +0.000 C 
ATOM     13  C   UNL     1       2.399   2.377  17.728  0.00  0.00    +0.000 C 
ATOM     14  C   UNL     1       1.585   3.158  18.767  0.00  0.00    +0.000 C 
BRANCH  11  16
ATOM     15  C   UNL     1       1.444   2.673  21.522  0.00  0.00    +0.000 C 
ATOM     16  O   UNL     1       2.748   2.964  21.025  0.00  0.00    +0.000 OA
ENDBRANCH  11  16
ENDBRANCH  10  11
ENDBRANCH   1  10
BRANCH   7  17
ATOM     17  C   UNL     1       0.305  10.755  20.053  0.00  0.00    +0.000 C 
BRANCH  17  18
ATOM     18  C   UNL     1       0.903  12.136  20.247  0.00  0.00    +0.000 C 
ATOM     19  O   UNL     1       1.764  12.353  21.104  0.00  0.00    +0.000 OA
ATOM     20  N   UNL     1       0.465  13.154  19.404  0.00  0.00    +0.000 N 
ATOM     21  C   UNL     1      -0.573  13.030  18.388  0.00  0.00    +0.000 C 
ATOM     22  C   UNL     1       1.081  14.472  19.516  0.00  0.00    +0.000 C 
ENDBRANCH  17  18
ENDBRANCH   7  17
TORSDOF 5
ENDMDL
MODEL 9
REMARK VINA RESULT:      -6.1      2.460      7.808
REMARK  Name = 
REMARK  8 active torsions:
REMARK  status: ('A' for Active; 'I' for Inactive)
REMARK    1  A    between atoms: C_1  and  O_2
REMARK    2  A    between atoms: O_2  and  C_3
REMARK    3  A    between atoms: C_3  and  C_4
REMARK    4  A    between atoms: C_4  and  C_5
REMARK    5  A    between atoms: N_11  and  C_12
REMARK    6  A    between atoms: C_12  and  C_13
REMARK    7  A    between atoms: N_15  and  C_16
REMARK    8  A    between atoms: N_15  and  C_17
REMARK                            x       y       z     vdW  Elec       q    Type
REMARK                         _______ _______ _______ _____ _____    ______ ____
ROOT
ATOM      1  C   UNL     1       1.653   9.483  18.424  0.00  0.00    +0.000 C 
ATOM      2  O   UNL     1       2.002   9.248  17.267  0.00  0.00    +0.000 OA
ATOM      3  N   UNL     1       1.671   8.594  19.465  0.00  0.00    +0.000 N 
ATOM      4  C   UNL     1       2.126   7.307  19.383  0.00  0.00    +0.000 A 
ATOM      5  N   UNL     1       1.905   6.472  20.444  0.00  0.00    +0.000 NA
ATOM      6  C   UNL     1       2.436   5.335  20.051  0.00  0.00    +0.000 A 
ATOM      7  N   UNL     1       3.029   5.505  18.841  0.00  0.00    +0.000 N 
ATOM      8  N   UNL     1       2.784   6.742  18.371  0.00  0.00    +0.000 NA
ATOM      9  H   UNL     1       1.325   8.850  20.383  0.00  0.00    +0.000 HD
ENDROOT
BRANCH   1  10
ATOM     10  C   UNL     1       1.187  10.888  18.754  0.00  0.00    +0.000 C 
BRANCH  10  11
ATOM     11  C   UNL     1      -0.309  11.123  18.971  0.00  0.00    +0.000 C 
ATOM     12  C   UNL     1      -0.828  12.464  18.369  0.00  0.00    +0.000 C 
ATOM     13  C   UNL     1      -0.791  13.099  19.763  0.00  0.00    +0.000 C 
ATOM     14  C   UNL     1      -0.666  11.698  20.376  0.00  0.00    +0.000 C 
BRANCH  11  16
ATOM     15  C   UNL     1      -1.788  10.055  17.310  0.00  0.00    +0.000 C 
ATOM     16  O   UNL     1      -1.093   9.971  18.552  0.00  0.00    +0.000 OA
ENDBRANCH  11  16
ENDBRANCH  10  11
ENDBRANCH   1  10
BRANCH   7  17
ATOM     17  C   UNL     1       3.742   4.558  17.996  0.00  0.00    +0.000 C 
BRANCH  17  18
ATOM     18  C   UNL     1       5.212   4.387  18.328  0.00  0.00    +0.000 C 
ATOM     19  O   UNL     1       5.580   3.812  19.356  0.00  0.00    +0.000 OA
ATOM     20  N   UNL     1       6.142   4.880  17.417  0.00  0.00    +0.000 N 
ATOM     21  C   UNL     1       5.831   5.612  16.195  0.00  0.00    +0.000 C 
ATOM     22  C   UNL     1       7.562   4.659  17.672  0.00  0.00    +0.000 C 
ENDBRANCH  17  18
ENDBRANCH   7  17
TORSDOF 5
ENDMDL
