MODEL 1
REMARK VINA RESULT:      -8.0      0.000      0.000
REMARK  Name = 
REMARK  7 active torsions:
REMARK  status: ('A' for Active; 'I' for Inactive)
REMARK    1  A    between atoms: C_1  and  O_2
REMARK    2  A    between atoms: O_2  and  C_3
REMARK    3  A    between atoms: C_5  and  O_6
REMARK    4  A    between atoms: O_6  and  C_7
REMARK    5  A    between atoms: C_9  and  C_10
REMARK    6  A    between atoms: C_16  and  C_17
REMARK    7  A    between atoms: C_22  and  O_23
REMARK                            x       y       z     vdW  Elec       q    Type
REMARK                         _______ _______ _______ _____ _____    ______ ____
ROOT
ATOM      1  C   UNL     1       1.959   6.172  20.259  0.00  0.00    +0.000 C 
ATOM      2  N   UNL     1       3.214   6.142  19.917  0.00  0.00    +0.000 NA
ATOM      3  N   UNL     1       3.826   4.912  19.833  0.00  0.00    +0.000 N 
ATOM      4  C   UNL     1       3.367   3.697  20.289  0.00  0.00    +0.000 A 
ATOM      5  N   UNL     1       4.184   2.726  19.976  0.00  0.00    +0.000 NA
ATOM      6  N   UNL     1       5.245   3.299  19.323  0.00  0.00    +0.000 NA
ATOM      7  C   UNL     1       5.071   4.616  19.287  0.00  0.00    +0.000 A 
ATOM      8  S   UNL     1       1.893   3.567  21.164  0.00  0.00    +0.000 S 
ATOM      9  C   UNL     1       1.050   4.954  20.391  0.00  0.00    +0.000 C 
ENDROOT
BRANCH   1  14
ATOM     10  C   UNL     1       0.948   9.784  19.714  0.00  0.00    +0.000 A 
ATOM     11  C   UNL     1       0.275  10.049  20.910  0.00  0.00    +0.000 A 
ATOM     12  C   UNL     1       0.111   9.059  21.879  0.00  0.00    +0.000 A 
ATOM     13  C   UNL     1       0.614   7.782  21.644  0.00  0.00    +0.000 A 
ATOM     14  C   UNL     1       1.327   7.515  20.472  0.00  0.00    +0.000 A 
ATOM     15  C   UNL     1       1.482   8.512  19.498  0.00  0.00    +0.000 A 
BRANCH  10  17
ATOM     16  C   UNL     1       0.051  11.871  18.998  0.00  0.00    +0.000 C 
ATOM     17  O   UNL     1       1.027  10.848  18.858  0.00  0.00    +0.000 OA
ENDBRANCH  10  17
BRANCH  12  18
ATOM     18  O   UNL     1      -0.545   9.449  23.017  0.00  0.00    +0.000 OA
ATOM     19  C   UNL     1      -1.056  10.779  23.042  0.00  0.00    +0.000 C 
ENDBRANCH  12  18
ENDBRANCH   1  14
BRANCH   7  20
ATOM     20  C   UNL     1       6.020   5.558  18.686  0.00  0.00    +0.000 A 
ATOM     21  C   UNL     1       5.675   6.139  17.451  0.00  0.00    +0.000 A 
ATOM     22  C   UNL     1       6.541   7.020  16.799  0.00  0.00    +0.000 A 
ATOM     23  C   UNL     1       7.767   7.340  17.374  0.00  0.00    +0.000 A 
ATOM     24  C   UNL     1       8.132   6.771  18.592  0.00  0.00    +0.000 A 
ATOM     25  C   UNL     1       7.270   5.876  19.233  0.00  0.00    +0.000 A 
BRANCH  25  26
ATOM     26  O   UNL     1       7.703   5.273  20.382  0.00  0.00    +0.000 OA
ATOM     27  H   UNL     1       7.074   4.572  20.614  0.00  0.00    +0.000 HD
ENDBRANCH  25  26
ENDBRANCH   7  20
TORSDOF 5
ENDMDL
MODEL 2
REMARK VINA RESULT:      -8.0      0.173      2.012
REMARK  Name = 
REMARK  7 active torsions:
REMARK  status: ('A' for Active; 'I' for Inactive)
REMARK    1  A    between atoms: C_1  and  O_2
REMARK    2  A    between atoms: O_2  and  C_3
REMARK    3  A    between atoms: C_5  and  O_6
REMARK    4  A    between atoms: O_6  and  C_7
REMARK    5  A    between atoms: C_9  and  C_10
REMARK    6  A    between atoms: C_16  and  C_17
REMARK    7  A    between atoms: C_22  and  O_23
REMARK                            x       y       z     vdW  Elec       q    Type
REMARK                         _______ _______ _______ _____ _____    ______ ____
ROOT
ATOM      1  C   UNL     1       1.979   6.208  20.264  0.00  0.00    +0.000 C 
ATOM      2  N   UNL     1       3.232   6.168  19.921  0.00  0.00    +0.000 NA
ATOM      3  N   UNL     1       3.834   4.932  19.837  0.00  0.00    +0.000 N 
ATOM      4  C   UNL     1       3.365   3.721  20.294  0.00  0.00    +0.000 A 
ATOM      5  N   UNL     1       4.173   2.744  19.981  0.00  0.00    +0.000 NA
ATOM      6  N   UNL     1       5.238   3.307  19.326  0.00  0.00    +0.000 NA
ATOM      7  C   UNL     1       5.076   4.625  19.290  0.00  0.00    +0.000 A 
ATOM      8  S   UNL     1       1.891   3.604  21.171  0.00  0.00    +0.000 S 
ATOM      9  C   UNL     1       1.059   4.998  20.398  0.00  0.00    +0.000 C 
ENDROOT
BRANCH   1  14
ATOM     10  C   UNL     1      -0.020   9.028  21.819  0.00  0.00    +0.000 A 
ATOM     11  C   UNL     1       0.093  10.006  20.826  0.00  0.00    +0.000 A 
ATOM     12  C   UNL     1       0.842   9.777  19.672  0.00  0.00    +0.000 A 
ATOM     13  C   UNL     1       1.499   8.559  19.513  0.00  0.00    +0.000 A 
ATOM     14  C   UNL     1       1.358   7.557  20.477  0.00  0.00    +0.000 A 
ATOM     15  C   UNL     1       0.611   7.796  21.639  0.00  0.00    +0.000 A 
BRANCH  10  17
ATOM     16  C   UNL     1      -1.034  10.783  23.071  0.00  0.00    +0.000 C 
ATOM     17  O   UNL     1      -0.782   9.395  22.894  0.00  0.00    +0.000 OA
ENDBRANCH  10  17
BRANCH  12  18
ATOM     18  O   UNL     1       0.856  10.802  18.764  0.00  0.00    +0.000 OA
ATOM     19  C   UNL     1       0.704  12.122  19.280  0.00  0.00    +0.000 C 
ENDBRANCH  12  18
ENDBRANCH   1  14
BRANCH   7  20
ATOM     20  C   UNL     1       6.032   5.558  18.687  0.00  0.00    +0.000 A 
ATOM     21  C   UNL     1       5.694   6.136  17.448  0.00  0.00    +0.000 A 
ATOM     22  C   UNL     1       6.567   7.009  16.794  0.00  0.00    +0.000 A 
ATOM     23  C   UNL     1       7.793   7.324  17.371  0.00  0.00    +0.000 A 
ATOM     24  C   UNL     1       8.151   6.759  18.593  0.00  0.00    +0.000 A 
ATOM     25  C   UNL     1       7.282   5.872  19.236  0.00  0.00    +0.000 A 
BRANCH  25  26
ATOM     26  O   UNL     1       7.708   5.271  20.389  0.00  0.00    +0.000 OA
ATOM     27  H   UNL     1       6.930   5.059  20.928  0.00  0.00    +0.000 HD
ENDBRANCH  25  26
ENDBRANCH   7  20
TORSDOF 5
ENDMDL
MODEL 3
REMARK VINA RESULT:      -7.8      1.523      2.736
REMARK  Name = 
REMARK  7 active torsions:
REMARK  status: ('A' for Active; 'I' for Inactive)
REMARK    1  A    between atoms: C_1  and  O_2
REMARK    2  A    between atoms: O_2  and  C_3
REMARK    3  A    between atoms: C_5  and  O_6
REMARK    4  A    between atoms: O_6  and  C_7
REMARK    5  A    between atoms: C_9  and  C_10
REMARK    6  A    between atoms: C_16  and  C_17
REMARK    7  A    between atoms: C_22  and  O_23
REMARK                            x       y       z     vdW  Elec       q    Type
REMARK                         _______ _______ _______ _____ _____    ______ ____
ROOT
ATOM      1  C   UNL     1       2.194   5.946  19.851  0.00  0.00    +0.000 C 
ATOM      2  N   UNL     1       3.244   5.569  19.182  0.00  0.00    +0.000 NA
ATOM      3  N   UNL     1       3.642   4.257  19.300  0.00  0.00    +0.000 N 
ATOM      4  C   UNL     1       3.227   3.317  20.216  0.00  0.00    +0.000 A 
ATOM      5  N   UNL     1       3.768   2.150  19.988  0.00  0.00    +0.000 NA
ATOM      6  N   UNL     1       4.602   2.307  18.911  0.00  0.00    +0.000 NA
ATOM      7  C   UNL     1       4.583   3.579  18.530  0.00  0.00    +0.000 A 
ATOM      8  S   UNL     1       2.134   3.721  21.481  0.00  0.00    +0.000 S 
ATOM      9  C   UNL     1       1.247   5.018  20.606  0.00  0.00    +0.000 C 
ENDROOT
BRANCH   1  14
ATOM     10  C   UNL     1       0.736   9.298  20.851  0.00  0.00    +0.000 A 
ATOM     11  C   UNL     1       1.047  10.064  19.724  0.00  0.00    +0.000 A 
ATOM     12  C   UNL     1       1.759   9.518  18.656  0.00  0.00    +0.000 A 
ATOM     13  C   UNL     1       2.178   8.192  18.720  0.00  0.00    +0.000 A 
ATOM     14  C   UNL     1       1.835   7.401  19.821  0.00  0.00    +0.000 A 
ATOM     15  C   UNL     1       1.126   7.958  20.895  0.00  0.00    +0.000 A 
BRANCH  10  17
ATOM     16  C   UNL     1       0.124   9.468  23.147  0.00  0.00    +0.000 C 
ATOM     17  O   UNL     1       0.039   9.967  21.819  0.00  0.00    +0.000 OA
ENDBRANCH  10  17
BRANCH  12  18
ATOM     18  O   UNL     1       1.982  10.363  17.601  0.00  0.00    +0.000 OA
ATOM     19  C   UNL     1       2.415  11.684  17.913  0.00  0.00    +0.000 C 
ENDBRANCH  12  18
ENDBRANCH   1  14
BRANCH   7  20
ATOM     20  C   UNL     1       5.374   4.122  17.422  0.00  0.00    +0.000 A 
ATOM     21  C   UNL     1       4.813   4.077  16.131  0.00  0.00    +0.000 A 
ATOM     22  C   UNL     1       5.518   4.543  15.019  0.00  0.00    +0.000 A 
ATOM     23  C   UNL     1       6.796   5.067  15.179  0.00  0.00    +0.000 A 
ATOM     24  C   UNL     1       7.374   5.115  16.445  0.00  0.00    +0.000 A 
ATOM     25  C   UNL     1       6.672   4.631  17.554  0.00  0.00    +0.000 A 
BRANCH  25  26
ATOM     26  O   UNL     1       7.309   4.614  18.765  0.00  0.00    +0.000 OA
ATOM     27  H   UNL     1       7.716   3.742  18.883  0.00  0.00    +0.000 HD
ENDBRANCH  25  26
ENDBRANCH   7  20
TORSDOF 5
ENDMDL
MODEL 4
REMARK VINA RESULT:      -7.7      1.510      1.701
REMARK  Name = 
REMARK  7 active torsions:
REMARK  status: ('A' for Active; 'I' for Inactive)
REMARK    1  A    between atoms: C_1  and  O_2
REMARK    2  A    between atoms: O_2  and  C_3
REMARK    3  A    between atoms: C_5  and  O_6
REMARK    4  A    between atoms: O_6  and  C_7
REMARK    5  A    between atoms: C_9  and  C_10
REMARK    6  A    between atoms: C_16  and  C_17
REMARK    7  A    between atoms: C_22  and  O_23
REMARK                            x       y       z     vdW  Elec       q    Type
REMARK                         _______ _______ _______ _____ _____    ______ ____
ROOT
ATOM      1  C   UNL     1       2.190   5.969  19.891  0.00  0.00    +0.000 C 
ATOM      2  N   UNL     1       3.237   5.591  19.218  0.00  0.00    +0.000 NA
ATOM      3  N   UNL     1       3.623   4.274  19.320  0.00  0.00    +0.000 N 
ATOM      4  C   UNL     1       3.199   3.327  20.224  0.00  0.00    +0.000 A 
ATOM      5  N   UNL     1       3.729   2.158  19.982  0.00  0.00    +0.000 NA
ATOM      6  N   UNL     1       4.565   2.321  18.907  0.00  0.00    +0.000 NA
ATOM      7  C   UNL     1       4.558   3.597  18.542  0.00  0.00    +0.000 A 
ATOM      8  S   UNL     1       2.110   3.725  21.493  0.00  0.00    +0.000 S 
ATOM      9  C   UNL     1       1.235   5.040  20.634  0.00  0.00    +0.000 C 
ENDROOT
BRANCH   1  14
ATOM     10  C   UNL     1       1.799   9.550  18.714  0.00  0.00    +0.000 A 
ATOM     11  C   UNL     1       1.333  10.159  19.883  0.00  0.00    +0.000 A 
ATOM     12  C   UNL     1       1.107   9.416  21.041  0.00  0.00    +0.000 A 
ATOM     13  C   UNL     1       1.336   8.042  21.028  0.00  0.00    +0.000 A 
ATOM     14  C   UNL     1       1.844   7.428  19.880  0.00  0.00    +0.000 A 
ATOM     15  C   UNL     1       2.062   8.179  18.716  0.00  0.00    +0.000 A 
BRANCH  10  17
ATOM     16  C   UNL     1       2.342  11.742  17.954  0.00  0.00    +0.000 C 
ATOM     17  O   UNL     1       1.970  10.403  17.658  0.00  0.00    +0.000 OA
ENDBRANCH  10  17
BRANCH  12  18
ATOM     18  O   UNL     1       0.673  10.130  22.126  0.00  0.00    +0.000 OA
ATOM     19  C   UNL     1      -0.262   9.489  22.989  0.00  0.00    +0.000 C 
ENDBRANCH  12  18
ENDBRANCH   1  14
BRANCH   7  20
ATOM     20  C   UNL     1       5.354   4.146  17.441  0.00  0.00    +0.000 A 
ATOM     21  C   UNL     1       4.814   4.079  16.142  0.00  0.00    +0.000 A 
ATOM     22  C   UNL     1       5.526   4.550  15.036  0.00  0.00    +0.000 A 
ATOM     23  C   UNL     1       6.791   5.101  15.210  0.00  0.00    +0.000 A 
ATOM     24  C   UNL     1       7.348   5.172  16.485  0.00  0.00    +0.000 A 
ATOM     25  C   UNL     1       6.640   4.684  17.587  0.00  0.00    +0.000 A 
BRANCH  25  26
ATOM     26  O   UNL     1       7.258   4.691  18.808  0.00  0.00    +0.000 OA
ATOM     27  H   UNL     1       6.730   5.234  19.414  0.00  0.00    +0.000 HD
ENDBRANCH  25  26
ENDBRANCH   7  20
TORSDOF 5
ENDMDL
MODEL 5
REMARK VINA RESULT:      -7.7      1.003      1.375
REMARK  Name = 
REMARK  7 active torsions:
REMARK  status: ('A' for Active; 'I' for Inactive)
REMARK    1  A    between atoms: C_1  and  O_2
REMARK    2  A    between atoms: O_2  and  C_3
REMARK    3  A    between atoms: C_5  and  O_6
REMARK    4  A    between atoms: O_6  and  C_7
REMARK    5  A    between atoms: C_9  and  C_10
REMARK    6  A    between atoms: C_16  and  C_17
REMARK    7  A    between atoms: C_22  and  O_23
REMARK                            x       y       z     vdW  Elec       q    Type
REMARK                         _______ _______ _______ _____ _____    ______ ____
ROOT
ATOM      1  C   UNL     1       1.887   6.130  20.270  0.00  0.00    +0.000 C 
ATOM      2  N   UNL     1       3.134   6.084  19.904  0.00  0.00    +0.000 NA
ATOM      3  N   UNL     1       3.733   4.847  19.825  0.00  0.00    +0.000 N 
ATOM      4  C   UNL     1       3.272   3.642  20.305  0.00  0.00    +0.000 A 
ATOM      5  N   UNL     1       4.074   2.660  19.990  0.00  0.00    +0.000 NA
ATOM      6  N   UNL     1       5.126   3.215  19.308  0.00  0.00    +0.000 NA
ATOM      7  C   UNL     1       4.964   4.532  19.258  0.00  0.00    +0.000 A 
ATOM      8  S   UNL     1       1.815   3.538  21.211  0.00  0.00    +0.000 S 
ATOM      9  C   UNL     1       0.969   4.923  20.436  0.00  0.00    +0.000 C 
ENDROOT
BRANCH   1  14
ATOM     10  C   UNL     1       1.000   9.780  19.764  0.00  0.00    +0.000 A 
ATOM     11  C   UNL     1       0.247  10.027  20.915  0.00  0.00    +0.000 A 
ATOM     12  C   UNL     1      -0.010   9.014  21.839  0.00  0.00    +0.000 A 
ATOM     13  C   UNL     1       0.480   7.733  21.602  0.00  0.00    +0.000 A 
ATOM     14  C   UNL     1       1.271   7.482  20.477  0.00  0.00    +0.000 A 
ATOM     15  C   UNL     1       1.520   8.503  19.549  0.00  0.00    +0.000 A 
BRANCH  10  17
ATOM     16  C   UNL     1       1.203  12.146  19.567  0.00  0.00    +0.000 C 
ATOM     17  O   UNL     1       1.167  10.866  18.949  0.00  0.00    +0.000 OA
ENDBRANCH  10  17
BRANCH  12  18
ATOM     18  O   UNL     1      -0.739   9.387  22.936  0.00  0.00    +0.000 OA
ATOM     19  C   UNL     1      -1.041  10.774  23.069  0.00  0.00    +0.000 C 
ENDBRANCH  12  18
ENDBRANCH   1  14
BRANCH   7  20
ATOM     20  C   UNL     1       5.909   5.457  18.627  0.00  0.00    +0.000 A 
ATOM     21  C   UNL     1       7.153   5.657  19.257  0.00  0.00    +0.000 A 
ATOM     22  C   UNL     1       8.094   6.548  18.735  0.00  0.00    +0.000 A 
ATOM     23  C   UNL     1       7.809   7.252  17.570  0.00  0.00    +0.000 A 
ATOM     24  C   UNL     1       6.583   7.076  16.933  0.00  0.00    +0.000 A 
ATOM     25  C   UNL     1       5.637   6.196  17.468  0.00  0.00    +0.000 A 
BRANCH  25  26
ATOM     26  O   UNL     1       4.412   6.118  16.863  0.00  0.00    +0.000 OA
ATOM     27  H   UNL     1       4.211   6.981  16.469  0.00  0.00    +0.000 HD
ENDBRANCH  25  26
ENDBRANCH   7  20
TORSDOF 5
ENDMDL
MODEL 6
REMARK VINA RESULT:      -7.6      1.138      2.464
REMARK  Name = 
REMARK  7 active torsions:
REMARK  status: ('A' for Active; 'I' for Inactive)
REMARK    1  A    between atoms: C_1  and  O_2
REMARK    2  A    between atoms: O_2  and  C_3
REMARK    3  A    between atoms: C_5  and  O_6
REMARK    4  A    between atoms: O_6  and  C_7
REMARK    5  A    between atoms: C_9  and  C_10
REMARK    6  A    between atoms: C_16  and  C_17
REMARK    7  A    between atoms: C_22  and  O_23
REMARK                            x       y       z     vdW  Elec       q    Type
REMARK                         _______ _______ _______ _____ _____    ______ ____
ROOT
ATOM      1  C   UNL     1       1.999   5.906  20.270  0.00  0.00    +0.000 C 
ATOM      2  N   UNL     1       3.214   5.755  19.831  0.00  0.00    +0.000 NA
ATOM      3  N   UNL     1       3.723   4.477  19.785  0.00  0.00    +0.000 N 
ATOM      4  C   UNL     1       3.218   3.334  20.360  0.00  0.00    +0.000 A 
ATOM      5  N   UNL     1       3.930   2.284  20.052  0.00  0.00    +0.000 NA
ATOM      6  N   UNL     1       4.970   2.727  19.276  0.00  0.00    +0.000 NA
ATOM      7  C   UNL     1       4.892   4.048  19.162  0.00  0.00    +0.000 A 
ATOM      8  S   UNL     1       1.819   3.378  21.359  0.00  0.00    +0.000 S 
ATOM      9  C   UNL     1       1.017   4.775  20.560  0.00  0.00    +0.000 C 
ENDROOT
BRANCH   1  14
ATOM     10  C   UNL     1       0.235   8.926  21.730  0.00  0.00    +0.000 A 
ATOM     11  C   UNL     1       0.423   9.858  20.706  0.00  0.00    +0.000 A 
ATOM     12  C   UNL     1       1.149   9.533  19.560  0.00  0.00    +0.000 A 
ATOM     13  C   UNL     1       1.707   8.262  19.442  0.00  0.00    +0.000 A 
ATOM     14  C   UNL     1       1.489   7.306  20.438  0.00  0.00    +0.000 A 
ATOM     15  C   UNL     1       0.765   7.642  21.591  0.00  0.00    +0.000 A 
BRANCH  10  17
ATOM     16  C   UNL     1      -0.837  10.767  22.797  0.00  0.00    +0.000 C 
ATOM     17  O   UNL     1      -0.493   9.388  22.792  0.00  0.00    +0.000 OA
ENDBRANCH  10  17
BRANCH  12  18
ATOM     18  O   UNL     1       1.244  10.524  18.619  0.00  0.00    +0.000 OA
ATOM     19  C   UNL     1       0.748  11.808  18.984  0.00  0.00    +0.000 C 
ENDBRANCH  12  18
ENDBRANCH   1  14
BRANCH   7  20
ATOM     20  C   UNL     1       5.852   4.871  18.422  0.00  0.00    +0.000 A 
ATOM     21  C   UNL     1       6.795   5.609  19.164  0.00  0.00    +0.000 A 
ATOM     22  C   UNL     1       7.722   6.443  18.533  0.00  0.00    +0.000 A 
ATOM     23  C   UNL     1       7.725   6.550  17.147  0.00  0.00    +0.000 A 
ATOM     24  C   UNL     1       6.798   5.836  16.392  0.00  0.00    +0.000 A 
ATOM     25  C   UNL     1       5.860   5.016  17.028  0.00  0.00    +0.000 A 
BRANCH  25  26
ATOM     26  O   UNL     1       4.911   4.401  16.258  0.00  0.00    +0.000 OA
ATOM     27  H   UNL     1       4.798   4.917  15.444  0.00  0.00    +0.000 HD
ENDBRANCH  25  26
ENDBRANCH   7  20
TORSDOF 5
ENDMDL
MODEL 7
REMARK VINA RESULT:      -6.9      1.950      2.937
REMARK  Name = 
REMARK  7 active torsions:
REMARK  status: ('A' for Active; 'I' for Inactive)
REMARK    1  A    between atoms: C_1  and  O_2
REMARK    2  A    between atoms: O_2  and  C_3
REMARK    3  A    between atoms: C_5  and  O_6
REMARK    4  A    between atoms: O_6  and  C_7
REMARK    5  A    between atoms: C_9  and  C_10
REMARK    6  A    between atoms: C_16  and  C_17
REMARK    7  A    between atoms: C_22  and  O_23
REMARK                            x       y       z     vdW  Elec       q    Type
REMARK                         _______ _______ _______ _____ _____    ______ ____
ROOT
ATOM      1  C   UNL     1       2.039   6.068  19.999  0.00  0.00    +0.000 C 
ATOM      2  N   UNL     1       2.972   5.764  19.146  0.00  0.00    +0.000 NA
ATOM      3  N   UNL     1       3.339   4.441  19.043  0.00  0.00    +0.000 N 
ATOM      4  C   UNL     1       3.025   3.399  19.885  0.00  0.00    +0.000 A 
ATOM      5  N   UNL     1       3.491   2.263  19.439  0.00  0.00    +0.000 NA
ATOM      6  N   UNL     1       4.170   2.543  18.282  0.00  0.00    +0.000 NA
ATOM      7  C   UNL     1       4.140   3.853  18.068  0.00  0.00    +0.000 A 
ATOM      8  S   UNL     1       2.135   3.656  21.333  0.00  0.00    +0.000 S 
ATOM      9  C   UNL     1       1.177   5.066  20.762  0.00  0.00    +0.000 C 
ENDROOT
BRANCH   1  14
ATOM     10  C   UNL     1       1.022   9.317  21.666  0.00  0.00    +0.000 A 
ATOM     11  C   UNL     1       1.019  10.183  20.569  0.00  0.00    +0.000 A 
ATOM     12  C   UNL     1       1.380   9.736  19.297  0.00  0.00    +0.000 A 
ATOM     13  C   UNL     1       1.762   8.409  19.122  0.00  0.00    +0.000 A 
ATOM     14  C   UNL     1       1.727   7.521  20.202  0.00  0.00    +0.000 A 
ATOM     15  C   UNL     1       1.371   7.978  21.479  0.00  0.00    +0.000 A 
BRANCH  10  17
ATOM     16  C   UNL     1      -0.742  10.018  23.105  0.00  0.00    +0.000 C 
ATOM     17  O   UNL     1       0.650   9.896  22.849  0.00  0.00    +0.000 OA
ENDBRANCH  10  17
BRANCH  12  18
ATOM     18  O   UNL     1       1.315  10.674  18.302  0.00  0.00    +0.000 OA
ATOM     19  C   UNL     1       1.682  12.006  18.646  0.00  0.00    +0.000 C 
ENDBRANCH  12  18
ENDBRANCH   1  14
BRANCH   7  20
ATOM     20  C   UNL     1       4.785   4.520  16.934  0.00  0.00    +0.000 A 
ATOM     21  C   UNL     1       4.631   5.915  16.817  0.00  0.00    +0.000 A 
ATOM     22  C   UNL     1       5.188   6.619  15.746  0.00  0.00    +0.000 A 
ATOM     23  C   UNL     1       5.913   5.939  14.774  0.00  0.00    +0.000 A 
ATOM     24  C   UNL     1       6.072   4.558  14.864  0.00  0.00    +0.000 A 
ATOM     25  C   UNL     1       5.499   3.855  15.928  0.00  0.00    +0.000 A 
BRANCH  25  26
ATOM     26  O   UNL     1       5.603   2.491  15.933  0.00  0.00    +0.000 OA
ATOM     27  H   UNL     1       4.876   2.131  16.464  0.00  0.00    +0.000 HD
ENDBRANCH  25  26
ENDBRANCH   7  20
TORSDOF 5
ENDMDL
MODEL 8
REMARK VINA RESULT:      -6.8      1.921      2.067
REMARK  Name = 
REMARK  7 active torsions:
REMARK  status: ('A' for Active; 'I' for Inactive)
REMARK    1  A    between atoms: C_1  and  O_2
REMARK    2  A    between atoms: O_2  and  C_3
REMARK    3  A    between atoms: C_5  and  O_6
REMARK    4  A    between atoms: O_6  and  C_7
REMARK    5  A    between atoms: C_9  and  C_10
REMARK    6  A    between atoms: C_16  and  C_17
REMARK    7  A    between atoms: C_22  and  O_23
REMARK                            x       y       z     vdW  Elec       q    Type
REMARK                         _______ _______ _______ _____ _____    ______ ____
ROOT
ATOM      1  C   UNL     1       2.024   6.028  20.027  0.00  0.00    +0.000 C 
ATOM      2  N   UNL     1       2.965   5.751  19.173  0.00  0.00    +0.000 NA
ATOM      3  N   UNL     1       3.396   4.446  19.097  0.00  0.00    +0.000 N 
ATOM      4  C   UNL     1       3.140   3.409  19.964  0.00  0.00    +0.000 A 
ATOM      5  N   UNL     1       3.658   2.288  19.541  0.00  0.00    +0.000 NA
ATOM      6  N   UNL     1       4.315   2.575  18.372  0.00  0.00    +0.000 NA
ATOM      7  C   UNL     1       4.219   3.877  18.129  0.00  0.00    +0.000 A 
ATOM      8  S   UNL     1       2.248   3.654  21.414  0.00  0.00    +0.000 S 
ATOM      9  C   UNL     1       1.218   5.002  20.818  0.00  0.00    +0.000 C 
ENDROOT
BRANCH   1  14
ATOM     10  C   UNL     1       1.409   9.689  19.264  0.00  0.00    +0.000 A 
ATOM     11  C   UNL     1       1.065  10.166  20.532  0.00  0.00    +0.000 A 
ATOM     12  C   UNL     1       0.993   9.307  21.629  0.00  0.00    +0.000 A 
ATOM     13  C   UNL     1       1.254   7.950  21.453  0.00  0.00    +0.000 A 
ATOM     14  C   UNL     1       1.642   7.468  20.200  0.00  0.00    +0.000 A 
ATOM     15  C   UNL     1       1.705   8.335  19.100  0.00  0.00    +0.000 A 
BRANCH  10  17
ATOM     16  C   UNL     1       1.710  11.981  18.686  0.00  0.00    +0.000 C 
ATOM     17  O   UNL     1       1.435  10.645  18.285  0.00  0.00    +0.000 OA
ENDBRANCH  10  17
BRANCH  12  18
ATOM     18  O   UNL     1       0.669   9.898  22.821  0.00  0.00    +0.000 OA
ATOM     19  C   UNL     1      -0.716  10.092  23.089  0.00  0.00    +0.000 C 
ENDBRANCH  12  18
ENDBRANCH   1  14
BRANCH   7  20
ATOM     20  C   UNL     1       4.823   4.549  16.975  0.00  0.00    +0.000 A 
ATOM     21  C   UNL     1       4.657   5.943  16.866  0.00  0.00    +0.000 A 
ATOM     22  C   UNL     1       5.174   6.651  15.778  0.00  0.00    +0.000 A 
ATOM     23  C   UNL     1       5.871   5.977  14.782  0.00  0.00    +0.000 A 
ATOM     24  C   UNL     1       6.041   4.597  14.865  0.00  0.00    +0.000 A 
ATOM     25  C   UNL     1       5.507   3.889  15.946  0.00  0.00    +0.000 A 
BRANCH  25  26
ATOM     26  O   UNL     1       5.620   2.525  15.945  0.00  0.00    +0.000 OA
ATOM     27  H   UNL     1       4.751   2.148  16.150  0.00  0.00    +0.000 HD
ENDBRANCH  25  26
ENDBRANCH   7  20
TORSDOF 5
ENDMDL
MODEL 9
REMARK VINA RESULT:      -6.7      4.321      6.782
REMARK  Name = 
REMARK  7 active torsions:
REMARK  status: ('A' for Active; 'I' for Inactive)
REMARK    1  A    between atoms: C_1  and  O_2
REMARK    2  A    between atoms: O_2  and  C_3
REMARK    3  A    between atoms: C_5  and  O_6
REMARK    4  A    between atoms: O_6  and  C_7
REMARK    5  A    between atoms: C_9  and  C_10
REMARK    6  A    between atoms: C_16  and  C_17
REMARK    7  A    between atoms: C_22  and  O_23
REMARK                            x       y       z     vdW  Elec       q    Type
REMARK                         _______ _______ _______ _____ _____    ______ ____
ROOT
ATOM      1  C   UNL     1      -1.605  10.788  19.505  0.00  0.00    +0.000 C 
ATOM      2  N   UNL     1      -0.592   9.973  19.490  0.00  0.00    +0.000 NA
ATOM      3  N   UNL     1       0.220   9.940  20.602  0.00  0.00    +0.000 N 
ATOM      4  C   UNL     1       0.258  10.821  21.659  0.00  0.00    +0.000 A 
ATOM      5  N   UNL     1       1.110  10.440  22.573  0.00  0.00    +0.000 NA
ATOM      6  N   UNL     1       1.694   9.289  22.111  0.00  0.00    +0.000 NA
ATOM      7  C   UNL     1       1.214   9.014  20.903  0.00  0.00    +0.000 A 
ATOM      8  S   UNL     1      -0.723  12.233  21.683  0.00  0.00    +0.000 S 
ATOM      9  C   UNL     1      -2.091  11.573  20.720  0.00  0.00    +0.000 C 
ENDROOT
BRANCH   1  14
ATOM     10  C   UNL     1      -4.418  11.690  17.130  0.00  0.00    +0.000 A 
ATOM     11  C   UNL     1      -3.989  11.050  15.964  0.00  0.00    +0.000 A 
ATOM     12  C   UNL     1      -2.778  10.359  15.925  0.00  0.00    +0.000 A 
ATOM     13  C   UNL     1      -1.977  10.318  17.063  0.00  0.00    +0.000 A 
ATOM     14  C   UNL     1      -2.414  10.916  18.249  0.00  0.00    +0.000 A 
ATOM     15  C   UNL     1      -3.629  11.616  18.279  0.00  0.00    +0.000 A 
BRANCH  10  17
ATOM     16  C   UNL     1      -6.687  11.864  17.834  0.00  0.00    +0.000 C 
ATOM     17  O   UNL     1      -5.621  12.331  17.018  0.00  0.00    +0.000 OA
ENDBRANCH  10  17
BRANCH  12  18
ATOM     18  O   UNL     1      -2.480   9.756  14.732  0.00  0.00    +0.000 OA
ATOM     19  C   UNL     1      -3.409   9.941  13.667  0.00  0.00    +0.000 C 
ENDBRANCH  12  18
ENDBRANCH   1  14
BRANCH   7  20
ATOM     20  C   UNL     1       1.630   7.868  20.091  0.00  0.00    +0.000 A 
ATOM     21  C   UNL     1       1.586   6.591  20.684  0.00  0.00    +0.000 A 
ATOM     22  C   UNL     1       1.998   5.453  19.986  0.00  0.00    +0.000 A 
ATOM     23  C   UNL     1       2.457   5.571  18.679  0.00  0.00    +0.000 A 
ATOM     24  C   UNL     1       2.515   6.824  18.073  0.00  0.00    +0.000 A 
ATOM     25  C   UNL     1       2.119   7.963  18.781  0.00  0.00    +0.000 A 
BRANCH  25  26
ATOM     26  O   UNL     1       2.275   9.183  18.182  0.00  0.00    +0.000 OA
ATOM     27  H   UNL     1       2.892   9.708  18.715  0.00  0.00    +0.000 HD
ENDBRANCH  25  26
ENDBRANCH   7  20
TORSDOF 5
ENDMDL
