MODEL 1
REMARK VINA RESULT:      -8.5      0.000      0.000
REMARK  Name = 
REMARK  9 active torsions:
REMARK  status: ('A' for Active; 'I' for Inactive)
REMARK    1  A    between atoms: C_1  and  C_2
REMARK    2  A    between atoms: C_7  and  N_8
REMARK    3  A    between atoms: N_8  and  C_9
REMARK    4  A    between atoms: N_8  and  S_10
REMARK    5  A    between atoms: S_10  and  C_13
REMARK    6  A    between atoms: C_19  and  C_20
REMARK    7  A    between atoms: N_22  and  C_23
REMARK    8  A    between atoms: C_23  and  C_24
REMARK    9  A    between atoms: C_29  and  O_30
REMARK                            x       y       z     vdW  Elec       q    Type
REMARK                         _______ _______ _______ _____ _____    ______ ____
ROOT
ATOM      1  C   UNL     1       4.250   5.864  18.204  0.00  0.00    +0.000 A 
ATOM      2  C   UNL     1       4.250   6.699  17.091  0.00  0.00    +0.000 A 
ATOM      3  C   UNL     1       3.442   7.842  17.089  0.00  0.00    +0.000 A 
ATOM      4  C   UNL     1       2.635   8.174  18.173  0.00  0.00    +0.000 A 
ATOM      5  N   UNL     1       1.867   9.275  18.091  0.00  0.00    +0.000 NA
ATOM      6  C   UNL     1       1.059   9.569  19.136  0.00  0.00    +0.000 A 
ATOM      7  C   UNL     1       0.983   8.826  20.305  0.00  0.00    +0.000 A 
ATOM      8  C   UNL     1       1.787   7.689  20.381  0.00  0.00    +0.000 A 
ATOM      9  C   UNL     1       2.636   7.332  19.305  0.00  0.00    +0.000 A 
ATOM     10  C   UNL     1       3.436   6.169  19.299  0.00  0.00    +0.000 A 
ENDROOT
BRANCH   7  11
ATOM     11  C   UNL     1       0.048   9.310  21.342  0.00  0.00    +0.000 C 
ATOM     12  O   UNL     1      -0.679   8.503  21.918  0.00  0.00    +0.000 OA
ATOM     13  N   UNL     1       0.006  10.659  21.595  0.00  0.00    +0.000 N 
ATOM     14  H   UNL     1       0.638  11.302  21.123  0.00  0.00    +0.000 HD
BRANCH  13  15
ATOM     15  C   UNL     1      -0.915  11.215  22.580  0.00  0.00    +0.000 C 
BRANCH  15  16
ATOM     16  C   UNL     1      -1.790  12.334  22.013  0.00  0.00    +0.000 C 
ATOM     17  C   UNL     1      -3.168  12.444  22.641  0.00  0.00    +0.000 C 
ATOM     18  C   UNL     1      -3.911  13.217  21.580  0.00  0.00    +0.000 C 
ATOM     19  C   UNL     1      -3.319  12.673  20.294  0.00  0.00    +0.000 C 
ATOM     20  O   UNL     1      -2.023  12.135  20.607  0.00  0.00    +0.000 OA
ENDBRANCH  15  16
ENDBRANCH  13  15
ENDBRANCH   7  11
BRANCH   1  21
ATOM     21  S   UNL     1       5.173   4.330  18.183  0.00  0.00    +0.000 S 
ATOM     22  O   UNL     1       5.940   4.284  19.411  0.00  0.00    +0.000 OA
ATOM     23  O   UNL     1       5.828   4.297  16.896  0.00  0.00    +0.000 OA
BRANCH  21  24
ATOM     24  N   UNL     1       3.957   3.139  18.216  0.00  0.00    +0.000 N 
ATOM     25  C   UNL     1       4.193   1.907  17.450  0.00  0.00    +0.000 C 
BRANCH  24  32
ATOM     26  C   UNL     1       1.140   3.913  17.752  0.00  0.00    +0.000 C 
ATOM     27  C   UNL     1       1.662   3.468  19.087  0.00  0.00    +0.000 A 
ATOM     28  C   UNL     1       0.760   3.398  20.165  0.00  0.00    +0.000 A 
ATOM     29  C   UNL     1       1.177   2.972  21.425  0.00  0.00    +0.000 A 
ATOM     30  C   UNL     1       2.502   2.598  21.620  0.00  0.00    +0.000 A 
ATOM     31  C   UNL     1       3.412   2.666  20.560  0.00  0.00    +0.000 A 
ATOM     32  C   UNL     1       3.008   3.119  19.297  0.00  0.00    +0.000 A 
ENDBRANCH  24  32
ENDBRANCH  21  24
ENDBRANCH   1  21
BRANCH   8  33
ATOM     33  O   UNL     1       1.777   6.871  21.484  0.00  0.00    +0.000 OA
ATOM     34  H   UNL     1       0.901   6.441  21.519  0.00  0.00    +0.000 HD
ENDBRANCH   8  33
TORSDOF 7
ENDMDL
MODEL 2
REMARK VINA RESULT:      -8.3      0.966      1.174
REMARK  Name = 
REMARK  9 active torsions:
REMARK  status: ('A' for Active; 'I' for Inactive)
REMARK    1  A    between atoms: C_1  and  C_2
REMARK    2  A    between atoms: C_7  and  N_8
REMARK    3  A    between atoms: N_8  and  C_9
REMARK    4  A    between atoms: N_8  and  S_10
REMARK    5  A    between atoms: S_10  and  C_13
REMARK    6  A    between atoms: C_19  and  C_20
REMARK    7  A    between atoms: N_22  and  C_23
REMARK    8  A    between atoms: C_23  and  C_24
REMARK    9  A    between atoms: C_29  and  O_30
REMARK                            x       y       z     vdW  Elec       q    Type
REMARK                         _______ _______ _______ _____ _____    ______ ____
ROOT
ATOM      1  C   UNL     1       4.254   5.879  18.206  0.00  0.00    +0.000 A 
ATOM      2  C   UNL     1       4.257   6.693  17.077  0.00  0.00    +0.000 A 
ATOM      3  C   UNL     1       3.443   7.831  17.049  0.00  0.00    +0.000 A 
ATOM      4  C   UNL     1       2.626   8.179  18.120  0.00  0.00    +0.000 A 
ATOM      5  N   UNL     1       1.853   9.274  18.013  0.00  0.00    +0.000 NA
ATOM      6  C   UNL     1       1.036   9.582  19.046  0.00  0.00    +0.000 A 
ATOM      7  C   UNL     1       0.957   8.862  20.228  0.00  0.00    +0.000 A 
ATOM      8  C   UNL     1       1.767   7.731  20.332  0.00  0.00    +0.000 A 
ATOM      9  C   UNL     1       2.624   7.358  19.268  0.00  0.00    +0.000 A 
ATOM     10  C   UNL     1       3.431   6.200  19.289  0.00  0.00    +0.000 A 
ENDROOT
BRANCH   7  11
ATOM     11  C   UNL     1       0.012   9.360  21.250  0.00  0.00    +0.000 C 
ATOM     12  O   UNL     1      -0.631   8.551  21.918  0.00  0.00    +0.000 OA
ATOM     13  N   UNL     1      -0.134  10.718  21.387  0.00  0.00    +0.000 N 
ATOM     14  H   UNL     1       0.429  11.365  20.840  0.00  0.00    +0.000 HD
BRANCH  13  15
ATOM     15  C   UNL     1      -1.073  11.284  22.350  0.00  0.00    +0.000 C 
BRANCH  15  16
ATOM     16  C   UNL     1      -0.772  12.744  22.687  0.00  0.00    +0.000 C 
ATOM     17  C   UNL     1      -1.877  13.722  22.327  0.00  0.00    +0.000 C 
ATOM     18  C   UNL     1      -1.114  15.023  22.287  0.00  0.00    +0.000 C 
ATOM     19  C   UNL     1       0.228  14.607  21.716  0.00  0.00    +0.000 C 
ATOM     20  O   UNL     1       0.393  13.203  21.977  0.00  0.00    +0.000 OA
ENDBRANCH  15  16
ENDBRANCH  13  15
ENDBRANCH   7  11
BRANCH   1  21
ATOM     21  S   UNL     1       5.186   4.350  18.220  0.00  0.00    +0.000 S 
ATOM     22  O   UNL     1       5.924   4.319  19.465  0.00  0.00    +0.000 OA
ATOM     23  O   UNL     1       5.870   4.310  16.948  0.00  0.00    +0.000 OA
BRANCH  21  24
ATOM     24  N   UNL     1       3.976   3.153  18.235  0.00  0.00    +0.000 N 
ATOM     25  C   UNL     1       4.227   1.925  17.467  0.00  0.00    +0.000 C 
BRANCH  24  32
ATOM     26  C   UNL     1       1.157   3.905  17.738  0.00  0.00    +0.000 C 
ATOM     27  C   UNL     1       1.668   3.463  19.079  0.00  0.00    +0.000 A 
ATOM     28  C   UNL     1       0.754   3.384  20.147  0.00  0.00    +0.000 A 
ATOM     29  C   UNL     1       1.160   2.961  21.411  0.00  0.00    +0.000 A 
ATOM     30  C   UNL     1       2.486   2.598  21.621  0.00  0.00    +0.000 A 
ATOM     31  C   UNL     1       3.408   2.674  20.572  0.00  0.00    +0.000 A 
ATOM     32  C   UNL     1       3.015   3.124  19.304  0.00  0.00    +0.000 A 
ENDBRANCH  24  32
ENDBRANCH  21  24
ENDBRANCH   1  21
BRANCH   8  33
ATOM     33  O   UNL     1       1.754   6.934  21.449  0.00  0.00    +0.000 OA
ATOM     34  H   UNL     1       2.019   6.036  21.170  0.00  0.00    +0.000 HD
ENDBRANCH   8  33
TORSDOF 7
ENDMDL
MODEL 3
REMARK VINA RESULT:      -8.2      3.941      9.714
REMARK  Name = 
REMARK  9 active torsions:
REMARK  status: ('A' for Active; 'I' for Inactive)
REMARK    1  A    between atoms: C_1  and  C_2
REMARK    2  A    between atoms: C_7  and  N_8
REMARK    3  A    between atoms: N_8  and  C_9
REMARK    4  A    between atoms: N_8  and  S_10
REMARK    5  A    between atoms: S_10  and  C_13
REMARK    6  A    between atoms: C_19  and  C_20
REMARK    7  A    between atoms: N_22  and  C_23
REMARK    8  A    between atoms: C_23  and  C_24
REMARK    9  A    between atoms: C_29  and  O_30
REMARK                            x       y       z     vdW  Elec       q    Type
REMARK                         _______ _______ _______ _____ _____    ______ ____
ROOT
ATOM      1  C   UNL     1      -0.141  11.482  20.057  0.00  0.00    +0.000 A 
ATOM      2  C   UNL     1      -0.432  10.910  21.292  0.00  0.00    +0.000 A 
ATOM      3  C   UNL     1       0.061   9.634  21.591  0.00  0.00    +0.000 A 
ATOM      4  C   UNL     1       0.839   8.915  20.690  0.00  0.00    +0.000 A 
ATOM      5  N   UNL     1       1.259   7.686  21.036  0.00  0.00    +0.000 NA
ATOM      6  C   UNL     1       1.984   6.981  20.137  0.00  0.00    +0.000 A 
ATOM      7  C   UNL     1       2.353   7.448  18.885  0.00  0.00    +0.000 A 
ATOM      8  C   UNL     1       1.917   8.727  18.537  0.00  0.00    +0.000 A 
ATOM      9  C   UNL     1       1.140   9.495  19.438  0.00  0.00    +0.000 A 
ATOM     10  C   UNL     1       0.627  10.773  19.129  0.00  0.00    +0.000 A 
ENDROOT
BRANCH   7  11
ATOM     11  C   UNL     1       3.157   6.537  18.044  0.00  0.00    +0.000 C 
ATOM     12  O   UNL     1       2.927   5.329  18.078  0.00  0.00    +0.000 OA
ATOM     13  N   UNL     1       4.160   7.080  17.280  0.00  0.00    +0.000 N 
ATOM     14  H   UNL     1       4.311   8.086  17.250  0.00  0.00    +0.000 HD
BRANCH  13  15
ATOM     15  C   UNL     1       5.018   6.241  16.451  0.00  0.00    +0.000 C 
BRANCH  15  16
ATOM     16  C   UNL     1       6.448   6.142  16.982  0.00  0.00    +0.000 C 
ATOM     17  C   UNL     1       6.565   5.610  18.400  0.00  0.00    +0.000 C 
ATOM     18  C   UNL     1       7.936   6.108  18.786  0.00  0.00    +0.000 C 
ATOM     19  C   UNL     1       8.007   7.459  18.099  0.00  0.00    +0.000 C 
ATOM     20  O   UNL     1       7.075   7.438  17.005  0.00  0.00    +0.000 OA
ENDBRANCH  15  16
ENDBRANCH  13  15
ENDBRANCH   7  11
BRANCH   1  21
ATOM     21  S   UNL     1      -0.863  13.054  19.598  0.00  0.00    +0.000 S 
ATOM     22  O   UNL     1      -2.110  13.172  20.323  0.00  0.00    +0.000 OA
ATOM     23  O   UNL     1      -0.837  13.078  18.154  0.00  0.00    +0.000 OA
BRANCH  21  24
ATOM     24  N   UNL     1       0.260  14.189  20.189  0.00  0.00    +0.000 N 
ATOM     25  C   UNL     1       0.410  14.300  21.647  0.00  0.00    +0.000 C 
BRANCH  24  32
ATOM     26  C   UNL     1       0.075  16.801  18.810  0.00  0.00    +0.000 C 
ATOM     27  C   UNL     1       1.262  15.889  18.692  0.00  0.00    +0.000 A 
ATOM     28  C   UNL     1       2.349  16.310  17.901  0.00  0.00    +0.000 A 
ATOM     29  C   UNL     1       3.488  15.520  17.768  0.00  0.00    +0.000 A 
ATOM     30  C   UNL     1       3.562  14.302  18.435  0.00  0.00    +0.000 A 
ATOM     31  C   UNL     1       2.490  13.868  19.222  0.00  0.00    +0.000 A 
ATOM     32  C   UNL     1       1.329  14.643  19.340  0.00  0.00    +0.000 A 
ENDBRANCH  24  32
ENDBRANCH  21  24
ENDBRANCH   1  21
BRANCH   8  33
ATOM     33  O   UNL     1       2.208   9.281  17.315  0.00  0.00    +0.000 OA
ATOM     34  H   UNL     1       1.359   9.443  16.859  0.00  0.00    +0.000 HD
ENDBRANCH   8  33
TORSDOF 7
ENDMDL
MODEL 4
REMARK VINA RESULT:      -8.0      3.011      9.556
REMARK  Name = 
REMARK  9 active torsions:
REMARK  status: ('A' for Active; 'I' for Inactive)
REMARK    1  A    between atoms: C_1  and  C_2
REMARK    2  A    between atoms: C_7  and  N_8
REMARK    3  A    between atoms: N_8  and  C_9
REMARK    4  A    between atoms: N_8  and  S_10
REMARK    5  A    between atoms: S_10  and  C_13
REMARK    6  A    between atoms: C_19  and  C_20
REMARK    7  A    between atoms: N_22  and  C_23
REMARK    8  A    between atoms: C_23  and  C_24
REMARK    9  A    between atoms: C_29  and  O_30
REMARK                            x       y       z     vdW  Elec       q    Type
REMARK                         _______ _______ _______ _____ _____    ______ ____
ROOT
ATOM      1  C   UNL     1       0.965   9.372  19.606  0.00  0.00    +0.000 A 
ATOM      2  C   UNL     1       0.692   8.679  20.781  0.00  0.00    +0.000 A 
ATOM      3  C   UNL     1       1.293   7.433  20.999  0.00  0.00    +0.000 A 
ATOM      4  C   UNL     1       2.160   6.862  20.073  0.00  0.00    +0.000 A 
ATOM      5  N   UNL     1       2.682   5.651  20.338  0.00  0.00    +0.000 NA
ATOM      6  C   UNL     1       3.495   5.090  19.415  0.00  0.00    +0.000 A 
ATOM      7  C   UNL     1       3.855   5.687  18.217  0.00  0.00    +0.000 A 
ATOM      8  C   UNL     1       3.313   6.945  17.953  0.00  0.00    +0.000 A 
ATOM      9  C   UNL     1       2.442   7.565  18.882  0.00  0.00    +0.000 A 
ATOM     10  C   UNL     1       1.822   8.812  18.654  0.00  0.00    +0.000 A 
ENDROOT
BRANCH   7  11
ATOM     11  C   UNL     1       4.765   4.923  17.338  0.00  0.00    +0.000 C 
ATOM     12  O   UNL     1       4.468   3.771  17.023  0.00  0.00    +0.000 OA
ATOM     13  N   UNL     1       5.931   5.525  16.935  0.00  0.00    +0.000 N 
ATOM     14  H   UNL     1       6.139   6.489  17.188  0.00  0.00    +0.000 HD
BRANCH  13  15
ATOM     15  C   UNL     1       6.895   4.822  16.096  0.00  0.00    +0.000 C 
BRANCH  15  16
ATOM     16  C   UNL     1       6.626   5.000  14.601  0.00  0.00    +0.000 C 
ATOM     17  C   UNL     1       6.244   3.727  13.867  0.00  0.00    +0.000 C 
ATOM     18  C   UNL     1       6.555   4.108  12.441  0.00  0.00    +0.000 C 
ATOM     19  C   UNL     1       7.791   4.974  12.588  0.00  0.00    +0.000 C 
ATOM     20  O   UNL     1       7.799   5.495  13.928  0.00  0.00    +0.000 OA
ENDBRANCH  15  16
ENDBRANCH  13  15
ENDBRANCH   7  11
BRANCH   1  21
ATOM     21  S   UNL     1       0.114  10.905  19.243  0.00  0.00    +0.000 S 
ATOM     22  O   UNL     1      -1.262  10.563  18.950  0.00  0.00    +0.000 OA
ATOM     23  O   UNL     1       0.938  11.576  18.265  0.00  0.00    +0.000 OA
BRANCH  21  24
ATOM     24  N   UNL     1       0.197  11.757  20.714  0.00  0.00    +0.000 N 
ATOM     25  C   UNL     1       1.462  12.433  21.037  0.00  0.00    +0.000 C 
BRANCH  24  32
ATOM     26  C   UNL     1      -0.788  10.422  23.164  0.00  0.00    +0.000 C 
ATOM     27  C   UNL     1      -1.486  11.588  22.524  0.00  0.00    +0.000 A 
ATOM     28  C   UNL     1      -2.656  12.080  23.134  0.00  0.00    +0.000 A 
ATOM     29  C   UNL     1      -3.337  13.173  22.602  0.00  0.00    +0.000 A 
ATOM     30  C   UNL     1      -2.851  13.796  21.458  0.00  0.00    +0.000 A 
ATOM     31  C   UNL     1      -1.692  13.317  20.838  0.00  0.00    +0.000 A 
ATOM     32  C   UNL     1      -1.015  12.202  21.350  0.00  0.00    +0.000 A 
ENDBRANCH  24  32
ENDBRANCH  21  24
ENDBRANCH   1  21
BRANCH   8  33
ATOM     33  O   UNL     1       3.587   7.619  16.789  0.00  0.00    +0.000 OA
ATOM     34  H   UNL     1       2.736   7.937  16.429  0.00  0.00    +0.000 HD
ENDBRANCH   8  33
TORSDOF 7
ENDMDL
MODEL 5
REMARK VINA RESULT:      -7.9      1.476      2.055
REMARK  Name = 
REMARK  9 active torsions:
REMARK  status: ('A' for Active; 'I' for Inactive)
REMARK    1  A    between atoms: C_1  and  C_2
REMARK    2  A    between atoms: C_7  and  N_8
REMARK    3  A    between atoms: N_8  and  C_9
REMARK    4  A    between atoms: N_8  and  S_10
REMARK    5  A    between atoms: S_10  and  C_13
REMARK    6  A    between atoms: C_19  and  C_20
REMARK    7  A    between atoms: N_22  and  C_23
REMARK    8  A    between atoms: C_23  and  C_24
REMARK    9  A    between atoms: C_29  and  O_30
REMARK                            x       y       z     vdW  Elec       q    Type
REMARK                         _______ _______ _______ _____ _____    ______ ____
ROOT
ATOM      1  C   UNL     1       3.121   7.174  18.458  0.00  0.00    +0.000 A 
ATOM      2  C   UNL     1       2.587   7.791  17.330  0.00  0.00    +0.000 A 
ATOM      3  C   UNL     1       1.606   8.776  17.487  0.00  0.00    +0.000 A 
ATOM      4  C   UNL     1       1.143   9.163  18.740  0.00  0.00    +0.000 A 
ATOM      5  N   UNL     1       0.181  10.100  18.813  0.00  0.00    +0.000 NA
ATOM      6  C   UNL     1      -0.286  10.442  20.035  0.00  0.00    +0.000 A 
ATOM      7  C   UNL     1       0.176   9.913  21.231  0.00  0.00    +0.000 A 
ATOM      8  C   UNL     1       1.178   8.946  21.145  0.00  0.00    +0.000 A 
ATOM      9  C   UNL     1       1.686   8.542  19.886  0.00  0.00    +0.000 A 
ATOM     10  C   UNL     1       2.662   7.535  19.728  0.00  0.00    +0.000 A 
ENDROOT
BRANCH   7  11
ATOM     11  C   UNL     1      -0.450  10.419  22.470  0.00  0.00    +0.000 C 
ATOM     12  O   UNL     1      -0.060   9.993  23.557  0.00  0.00    +0.000 OA
ATOM     13  N   UNL     1      -1.474  11.326  22.353  0.00  0.00    +0.000 N 
ATOM     14  H   UNL     1      -1.759  11.681  21.443  0.00  0.00    +0.000 HD
BRANCH  13  15
ATOM     15  C   UNL     1      -2.163  11.844  23.529  0.00  0.00    +0.000 C 
BRANCH  15  16
ATOM     16  C   UNL     1      -3.342  12.752  23.178  0.00  0.00    +0.000 C 
ATOM     17  C   UNL     1      -4.449  12.789  24.216  0.00  0.00    +0.000 C 
ATOM     18  C   UNL     1      -5.605  13.300  23.393  0.00  0.00    +0.000 C 
ATOM     19  C   UNL     1      -5.371  12.644  22.045  0.00  0.00    +0.000 C 
ATOM     20  O   UNL     1      -3.974  12.319  21.958  0.00  0.00    +0.000 OA
ENDBRANCH  15  16
ENDBRANCH  13  15
ENDBRANCH   7  11
BRANCH   1  21
ATOM     21  S   UNL     1       4.283   5.823  18.283  0.00  0.00    +0.000 S 
ATOM     22  O   UNL     1       4.996   5.717  19.539  0.00  0.00    +0.000 OA
ATOM     23  O   UNL     1       4.985   6.082  17.048  0.00  0.00    +0.000 OA
BRANCH  21  24
ATOM     24  N   UNL     1       3.277   4.465  18.073  0.00  0.00    +0.000 N 
ATOM     25  C   UNL     1       3.495   3.637  16.878  0.00  0.00    +0.000 C 
BRANCH  24  32
ATOM     26  C   UNL     1       4.651   2.458  19.757  0.00  0.00    +0.000 C 
ATOM     27  C   UNL     1       3.257   2.946  20.029  0.00  0.00    +0.000 A 
ATOM     28  C   UNL     1       2.580   2.437  21.154  0.00  0.00    +0.000 A 
ATOM     29  C   UNL     1       1.294   2.865  21.473  0.00  0.00    +0.000 A 
ATOM     30  C   UNL     1       0.670   3.820  20.678  0.00  0.00    +0.000 A 
ATOM     31  C   UNL     1       1.327   4.334  19.555  0.00  0.00    +0.000 A 
ATOM     32  C   UNL     1       2.610   3.889  19.210  0.00  0.00    +0.000 A 
ENDBRANCH  24  32
ENDBRANCH  21  24
ENDBRANCH   1  21
BRANCH   8  33
ATOM     33  O   UNL     1       1.695   8.341  22.264  0.00  0.00    +0.000 OA
ATOM     34  H   UNL     1       2.403   8.921  22.608  0.00  0.00    +0.000 HD
ENDBRANCH   8  33
TORSDOF 7
ENDMDL
MODEL 6
REMARK VINA RESULT:      -7.9      2.461      3.818
REMARK  Name = 
REMARK  9 active torsions:
REMARK  status: ('A' for Active; 'I' for Inactive)
REMARK    1  A    between atoms: C_1  and  C_2
REMARK    2  A    between atoms: C_7  and  N_8
REMARK    3  A    between atoms: N_8  and  C_9
REMARK    4  A    between atoms: N_8  and  S_10
REMARK    5  A    between atoms: S_10  and  C_13
REMARK    6  A    between atoms: C_19  and  C_20
REMARK    7  A    between atoms: N_22  and  C_23
REMARK    8  A    between atoms: C_23  and  C_24
REMARK    9  A    between atoms: C_29  and  O_30
REMARK                            x       y       z     vdW  Elec       q    Type
REMARK                         _______ _______ _______ _____ _____    ______ ____
ROOT
ATOM      1  C   UNL     1       2.505   6.866  18.911  0.00  0.00    +0.000 A 
ATOM      2  C   UNL     1       2.601   7.645  17.762  0.00  0.00    +0.000 A 
ATOM      3  C   UNL     1       2.079   8.943  17.767  0.00  0.00    +0.000 A 
ATOM      4  C   UNL     1       1.463   9.485  18.891  0.00  0.00    +0.000 A 
ATOM      5  N   UNL     1       0.963  10.731  18.816  0.00  0.00    +0.000 NA
ATOM      6  C   UNL     1       0.335  11.234  19.903  0.00  0.00    +0.000 A 
ATOM      7  C   UNL     1       0.191  10.564  21.109  0.00  0.00    +0.000 A 
ATOM      8  C   UNL     1       0.718   9.274  21.179  0.00  0.00    +0.000 A 
ATOM      9  C   UNL     1       1.368   8.699  20.059  0.00  0.00    +0.000 A 
ATOM     10  C   UNL     1       1.878   7.383  20.048  0.00  0.00    +0.000 A 
ENDROOT
BRANCH   7  11
ATOM     11  C   UNL     1      -0.517  11.281  22.190  0.00  0.00    +0.000 C 
ATOM     12  O   UNL     1      -0.390  10.893  23.350  0.00  0.00    +0.000 OA
ATOM     13  N   UNL     1      -1.322  12.338  21.844  0.00  0.00    +0.000 N 
ATOM     14  H   UNL     1      -1.388  12.655  20.879  0.00  0.00    +0.000 HD
BRANCH  13  15
ATOM     15  C   UNL     1      -2.079  13.073  22.851  0.00  0.00    +0.000 C 
BRANCH  15  16
ATOM     16  C   UNL     1      -3.546  12.648  22.922  0.00  0.00    +0.000 C 
ATOM     17  C   UNL     1      -4.545  13.787  22.816  0.00  0.00    +0.000 C 
ATOM     18  C   UNL     1      -5.774  13.154  23.417  0.00  0.00    +0.000 C 
ATOM     19  C   UNL     1      -5.198  12.284  24.518  0.00  0.00    +0.000 C 
ATOM     20  O   UNL     1      -3.830  12.004  24.178  0.00  0.00    +0.000 OA
ENDBRANCH  15  16
ENDBRANCH  13  15
ENDBRANCH   7  11
BRANCH   1  21
ATOM     21  S   UNL     1       3.049   5.160  18.893  0.00  0.00    +0.000 S 
ATOM     22  O   UNL     1       2.326   4.499  17.827  0.00  0.00    +0.000 OA
ATOM     23  O   UNL     1       2.934   4.710  20.261  0.00  0.00    +0.000 OA
BRANCH  21  24
ATOM     24  N   UNL     1       4.698   5.278  18.487  0.00  0.00    +0.000 N 
ATOM     25  C   UNL     1       5.676   5.136  19.575  0.00  0.00    +0.000 C 
BRANCH  24  32
ATOM     26  C   UNL     1       6.094   7.383  16.947  0.00  0.00    +0.000 C 
ATOM     27  C   UNL     1       5.797   6.018  16.395  0.00  0.00    +0.000 A 
ATOM     28  C   UNL     1       6.223   5.722  15.086  0.00  0.00    +0.000 A 
ATOM     29  C   UNL     1       5.998   4.467  14.524  0.00  0.00    +0.000 A 
ATOM     30  C   UNL     1       5.353   3.486  15.269  0.00  0.00    +0.000 A 
ATOM     31  C   UNL     1       4.920   3.765  16.570  0.00  0.00    +0.000 A 
ATOM     32  C   UNL     1       5.118   5.033  17.134  0.00  0.00    +0.000 A 
ENDBRANCH  24  32
ENDBRANCH  21  24
ENDBRANCH   1  21
BRANCH   8  33
ATOM     33  O   UNL     1       0.615   8.513  22.316  0.00  0.00    +0.000 OA
ATOM     34  H   UNL     1      -0.291   8.150  22.343  0.00  0.00    +0.000 HD
ENDBRANCH   8  33
TORSDOF 7
ENDMDL
MODEL 7
REMARK VINA RESULT:      -7.8      2.095      3.499
REMARK  Name = 
REMARK  9 active torsions:
REMARK  status: ('A' for Active; 'I' for Inactive)
REMARK    1  A    between atoms: C_1  and  C_2
REMARK    2  A    between atoms: C_7  and  N_8
REMARK    3  A    between atoms: N_8  and  C_9
REMARK    4  A    between atoms: N_8  and  S_10
REMARK    5  A    between atoms: S_10  and  C_13
REMARK    6  A    between atoms: C_19  and  C_20
REMARK    7  A    between atoms: N_22  and  C_23
REMARK    8  A    between atoms: C_23  and  C_24
REMARK    9  A    between atoms: C_29  and  O_30
REMARK                            x       y       z     vdW  Elec       q    Type
REMARK                         _______ _______ _______ _____ _____    ______ ____
ROOT
ATOM      1  C   UNL     1       2.392   5.963  18.937  0.00  0.00    +0.000 A 
ATOM      2  C   UNL     1       2.773   6.526  17.723  0.00  0.00    +0.000 A 
ATOM      3  C   UNL     1       2.606   7.901  17.521  0.00  0.00    +0.000 A 
ATOM      4  C   UNL     1       2.071   8.730  18.502  0.00  0.00    +0.000 A 
ATOM      5  N   UNL     1       1.918  10.038  18.229  0.00  0.00    +0.000 NA
ATOM      6  C   UNL     1       1.363  10.827  19.177  0.00  0.00    +0.000 A 
ATOM      7  C   UNL     1       0.961  10.389  20.430  0.00  0.00    +0.000 A 
ATOM      8  C   UNL     1       1.128   9.032  20.705  0.00  0.00    +0.000 A 
ATOM      9  C   UNL     1       1.688   8.163  19.736  0.00  0.00    +0.000 A 
ATOM     10  C   UNL     1       1.838   6.773  19.932  0.00  0.00    +0.000 A 
ENDROOT
BRANCH   7  11
ATOM     11  C   UNL     1       0.384  11.403  21.337  0.00  0.00    +0.000 C 
ATOM     12  O   UNL     1       0.924  12.505  21.426  0.00  0.00    +0.000 OA
ATOM     13  N   UNL     1      -0.719  11.055  22.077  0.00  0.00    +0.000 N 
ATOM     14  H   UNL     1      -1.160  10.145  21.965  0.00  0.00    +0.000 HD
BRANCH  13  15
ATOM     15  C   UNL     1      -1.323  11.990  23.020  0.00  0.00    +0.000 C 
BRANCH  15  16
ATOM     16  C   UNL     1      -2.816  12.203  22.775  0.00  0.00    +0.000 C 
ATOM     17  C   UNL     1      -3.199  13.615  22.366  0.00  0.00    +0.000 C 
ATOM     18  C   UNL     1      -4.669  13.628  22.704  0.00  0.00    +0.000 C 
ATOM     19  C   UNL     1      -4.731  12.783  23.962  0.00  0.00    +0.000 C 
ATOM     20  O   UNL     1      -3.573  11.931  23.968  0.00  0.00    +0.000 OA
ENDBRANCH  15  16
ENDBRANCH  13  15
ENDBRANCH   7  11
BRANCH   1  21
ATOM     21  S   UNL     1       2.474   4.191  19.176  0.00  0.00    +0.000 S 
ATOM     22  O   UNL     1       1.786   3.583  18.057  0.00  0.00    +0.000 OA
ATOM     23  O   UNL     1       2.029   3.969  20.532  0.00  0.00    +0.000 OA
BRANCH  21  24
ATOM     24  N   UNL     1       4.141   3.858  19.079  0.00  0.00    +0.000 N 
ATOM     25  C   UNL     1       4.660   2.751  19.894  0.00  0.00    +0.000 C 
BRANCH  24  32
ATOM     26  C   UNL     1       6.511   5.600  19.396  0.00  0.00    +0.000 C 
ATOM     27  C   UNL     1       6.026   5.103  18.065  0.00  0.00    +0.000 A 
ATOM     28  C   UNL     1       6.749   5.469  16.913  0.00  0.00    +0.000 A 
ATOM     29  C   UNL     1       6.364   5.023  15.651  0.00  0.00    +0.000 A 
ATOM     30  C   UNL     1       5.255   4.193  15.524  0.00  0.00    +0.000 A 
ATOM     31  C   UNL     1       4.524   3.823  16.657  0.00  0.00    +0.000 A 
ATOM     32  C   UNL     1       4.888   4.289  17.928  0.00  0.00    +0.000 A 
ENDBRANCH  24  32
ENDBRANCH  21  24
ENDBRANCH   1  21
BRANCH   8  33
ATOM     33  O   UNL     1       0.746   8.486  21.905  0.00  0.00    +0.000 OA
ATOM     34  H   UNL     1       1.021   9.107  22.608  0.00  0.00    +0.000 HD
ENDBRANCH   8  33
TORSDOF 7
ENDMDL
MODEL 8
REMARK VINA RESULT:      -7.8      3.101      9.506
REMARK  Name = 
REMARK  9 active torsions:
REMARK  status: ('A' for Active; 'I' for Inactive)
REMARK    1  A    between atoms: C_1  and  C_2
REMARK    2  A    between atoms: C_7  and  N_8
REMARK    3  A    between atoms: N_8  and  C_9
REMARK    4  A    between atoms: N_8  and  S_10
REMARK    5  A    between atoms: S_10  and  C_13
REMARK    6  A    between atoms: C_19  and  C_20
REMARK    7  A    between atoms: N_22  and  C_23
REMARK    8  A    between atoms: C_23  and  C_24
REMARK    9  A    between atoms: C_29  and  O_30
REMARK                            x       y       z     vdW  Elec       q    Type
REMARK                         _______ _______ _______ _____ _____    ______ ____
ROOT
ATOM      1  C   UNL     1       1.211   9.390  19.569  0.00  0.00    +0.000 A 
ATOM      2  C   UNL     1       0.832   8.761  20.752  0.00  0.00    +0.000 A 
ATOM      3  C   UNL     1       1.263   7.454  21.003  0.00  0.00    +0.000 A 
ATOM      4  C   UNL     1       2.066   6.757  20.105  0.00  0.00    +0.000 A 
ATOM      5  N   UNL     1       2.423   5.496  20.402  0.00  0.00    +0.000 NA
ATOM      6  C   UNL     1       3.173   4.816  19.505  0.00  0.00    +0.000 A 
ATOM      7  C   UNL     1       3.627   5.338  18.303  0.00  0.00    +0.000 A 
ATOM      8  C   UNL     1       3.256   6.649  18.007  0.00  0.00    +0.000 A 
ATOM      9  C   UNL     1       2.456   7.394  18.907  0.00  0.00    +0.000 A 
ATOM     10  C   UNL     1       2.005   8.705  18.645  0.00  0.00    +0.000 A 
ENDROOT
BRANCH   7  11
ATOM     11  C   UNL     1       4.446   4.445  17.456  0.00  0.00    +0.000 C 
ATOM     12  O   UNL     1       4.274   3.229  17.523  0.00  0.00    +0.000 OA
ATOM     13  N   UNL     1       5.399   5.016  16.649  0.00  0.00    +0.000 N 
ATOM     14  H   UNL     1       5.503   6.027  16.593  0.00  0.00    +0.000 HD
BRANCH  13  15
ATOM     15  C   UNL     1       6.269   4.199  15.811  0.00  0.00    +0.000 C 
BRANCH  15  16
ATOM     16  C   UNL     1       6.399   4.735  14.385  0.00  0.00    +0.000 C 
ATOM     17  C   UNL     1       6.349   3.675  13.299  0.00  0.00    +0.000 C 
ATOM     18  C   UNL     1       6.997   4.404  12.149  0.00  0.00    +0.000 C 
ATOM     19  C   UNL     1       8.062   5.236  12.838  0.00  0.00    +0.000 C 
ATOM     20  O   UNL     1       7.659   5.408  14.207  0.00  0.00    +0.000 OA
ENDBRANCH  15  16
ENDBRANCH  13  15
ENDBRANCH   7  11
BRANCH   1  21
ATOM     21  S   UNL     1       0.570  11.012  19.163  0.00  0.00    +0.000 S 
ATOM     22  O   UNL     1      -0.829  10.840  18.835  0.00  0.00    +0.000 OA
ATOM     23  O   UNL     1       1.499  11.558  18.200  0.00  0.00    +0.000 OA
BRANCH  21  24
ATOM     24  N   UNL     1       0.720  11.871  20.625  0.00  0.00    +0.000 N 
ATOM     25  C   UNL     1       1.902  12.730  20.789  0.00  0.00    +0.000 C 
BRANCH  24  32
ATOM     26  C   UNL     1      -1.062  14.142  19.977  0.00  0.00    +0.000 C 
ATOM     27  C   UNL     1      -1.313  13.196  21.116  0.00  0.00    +0.000 A 
ATOM     28  C   UNL     1      -2.466  13.390  21.901  0.00  0.00    +0.000 A 
ATOM     29  C   UNL     1      -2.768  12.535  22.959  0.00  0.00    +0.000 A 
ATOM     30  C   UNL     1      -1.925  11.465  23.239  0.00  0.00    +0.000 A 
ATOM     31  C   UNL     1      -0.774  11.260  22.471  0.00  0.00    +0.000 A 
ATOM     32  C   UNL     1      -0.448  12.130  21.422  0.00  0.00    +0.000 A 
ENDBRANCH  24  32
ENDBRANCH  21  24
ENDBRANCH   1  21
BRANCH   8  33
ATOM     33  O   UNL     1       3.634   7.259  16.836  0.00  0.00    +0.000 OA
ATOM     34  H   UNL     1       2.824   7.406  16.310  0.00  0.00    +0.000 HD
ENDBRANCH   8  33
TORSDOF 7
ENDMDL
MODEL 9
REMARK VINA RESULT:      -7.8      3.109      9.494
REMARK  Name = 
REMARK  9 active torsions:
REMARK  status: ('A' for Active; 'I' for Inactive)
REMARK    1  A    between atoms: C_1  and  C_2
REMARK    2  A    between atoms: C_7  and  N_8
REMARK    3  A    between atoms: N_8  and  C_9
REMARK    4  A    between atoms: N_8  and  S_10
REMARK    5  A    between atoms: S_10  and  C_13
REMARK    6  A    between atoms: C_19  and  C_20
REMARK    7  A    between atoms: N_22  and  C_23
REMARK    8  A    between atoms: C_23  and  C_24
REMARK    9  A    between atoms: C_29  and  O_30
REMARK                            x       y       z     vdW  Elec       q    Type
REMARK                         _______ _______ _______ _____ _____    ______ ____
ROOT
ATOM      1  C   UNL     1      -0.380  11.516  20.905  0.00  0.00    +0.000 A 
ATOM      2  C   UNL     1      -0.287  12.185  19.688  0.00  0.00    +0.000 A 
ATOM      3  C   UNL     1       0.395  11.582  18.624  0.00  0.00    +0.000 A 
ATOM      4  C   UNL     1       0.985  10.328  18.744  0.00  0.00    +0.000 A 
ATOM      5  N   UNL     1       1.645   9.821  17.688  0.00  0.00    +0.000 NA
ATOM      6  C   UNL     1       2.246   8.618  17.827  0.00  0.00    +0.000 A 
ATOM      7  C   UNL     1       2.209   7.849  18.980  0.00  0.00    +0.000 A 
ATOM      8  C   UNL     1       1.518   8.381  20.069  0.00  0.00    +0.000 A 
ATOM      9  C   UNL     1       0.889   9.646  19.976  0.00  0.00    +0.000 A 
ATOM     10  C   UNL     1       0.218  10.262  21.054  0.00  0.00    +0.000 A 
ENDROOT
BRANCH   7  11
ATOM     11  C   UNL     1       2.917   6.552  18.940  0.00  0.00    +0.000 C 
ATOM     12  O   UNL     1       2.853   5.803  19.914  0.00  0.00    +0.000 OA
ATOM     13  N   UNL     1       3.653   6.252  17.821  0.00  0.00    +0.000 N 
ATOM     14  H   UNL     1       3.668   6.879  17.019  0.00  0.00    +0.000 HD
BRANCH  13  15
ATOM     15  C   UNL     1       4.407   5.008  17.722  0.00  0.00    +0.000 C 
BRANCH  15  16
ATOM     16  C   UNL     1       5.919   5.221  17.771  0.00  0.00    +0.000 C 
ATOM     17  C   UNL     1       6.494   5.391  19.167  0.00  0.00    +0.000 C 
ATOM     18  C   UNL     1       7.806   6.068  18.862  0.00  0.00    +0.000 C 
ATOM     19  C   UNL     1       7.456   6.966  17.691  0.00  0.00    +0.000 C 
ATOM     20  O   UNL     1       6.290   6.414  17.056  0.00  0.00    +0.000 OA
ENDBRANCH  15  16
ENDBRANCH  13  15
ENDBRANCH   7  11
BRANCH   1  21
ATOM     21  S   UNL     1      -1.134  12.316  22.319  0.00  0.00    +0.000 S 
ATOM     22  O   UNL     1      -0.088  13.058  22.990  0.00  0.00    +0.000 OA
ATOM     23  O   UNL     1      -1.863  11.273  23.002  0.00  0.00    +0.000 OA
BRANCH  21  24
ATOM     24  N   UNL     1      -2.246  13.395  21.612  0.00  0.00    +0.000 N 
ATOM     25  C   UNL     1      -1.714  14.640  21.041  0.00  0.00    +0.000 C 
BRANCH  24  32
ATOM     26  C   UNL     1      -4.577  13.391  23.435  0.00  0.00    +0.000 C 
ATOM     27  C   UNL     1      -4.643  12.917  22.012  0.00  0.00    +0.000 A 
ATOM     28  C   UNL     1      -5.882  12.467  21.517  0.00  0.00    +0.000 A 
ATOM     29  C   UNL     1      -6.015  12.035  20.199  0.00  0.00    +0.000 A 
ATOM     30  C   UNL     1      -4.912  12.058  19.353  0.00  0.00    +0.000 A 
ATOM     31  C   UNL     1      -3.672  12.498  19.831  0.00  0.00    +0.000 A 
ATOM     32  C   UNL     1      -3.523  12.909  21.162  0.00  0.00    +0.000 A 
ENDBRANCH  24  32
ENDBRANCH  21  24
ENDBRANCH   1  21
BRANCH   8  33
ATOM     33  O   UNL     1       1.435   7.714  21.267  0.00  0.00    +0.000 OA
ATOM     34  H   UNL     1       0.644   8.049  21.732  0.00  0.00    +0.000 HD
ENDBRANCH   8  33
TORSDOF 7
ENDMDL
