MODEL 1
REMARK VINA RESULT:      -7.5      0.000      0.000
REMARK  Name = 
REMARK  6 active torsions:
REMARK  status: ('A' for Active; 'I' for Inactive)
REMARK    1  A    between atoms: C_1  and  C_2
REMARK    2  A    between atoms: C_2  and  O_3
REMARK    3  A    between atoms: O_3  and  C_4
REMARK    4  A    between atoms: C_4  and  C_6
REMARK    5  A    between atoms: C_6  and  C_7
REMARK    6  A    between atoms: N_9  and  C_10
REMARK                            x       y       z     vdW  Elec       q    Type
REMARK                         _______ _______ _______ _____ _____    ______ ____
ROOT
ATOM      1  C   UNL     1       4.314   4.228  18.387  0.00  0.00    +0.000 A 
ATOM      2  C   UNL     1       4.322   3.017  19.100  0.00  0.00    +0.000 A 
ATOM      3  C   UNL     1       3.534   2.849  20.231  0.00  0.00    +0.000 A 
ATOM      4  C   UNL     1       2.733   3.892  20.668  0.00  0.00    +0.000 A 
ATOM      5  C   UNL     1       2.728   5.128  19.997  0.00  0.00    +0.000 A 
ATOM      6  S   UNL     1       1.631   6.327  20.696  0.00  0.00    +0.000 S 
ATOM      7  C   UNL     1       1.778   7.700  19.610  0.00  0.00    +0.000 A 
ATOM      8  N   UNL     1       0.980   8.743  19.966  0.00  0.00    +0.000 NA
ATOM      9  C   UNL     1       1.017   9.860  19.212  0.00  0.00    +0.000 A 
ATOM     10  C   UNL     1       1.823   9.991  18.102  0.00  0.00    +0.000 A 
ATOM     11  C   UNL     1       2.637   8.917  17.749  0.00  0.00    +0.000 A 
ATOM     12  C   UNL     1       2.625   7.739  18.515  0.00  0.00    +0.000 A 
ATOM     13  C   UNL     1       3.513   6.614  18.127  0.00  0.00    +0.000 A 
ATOM     14  O   UNL     1       4.264   6.771  17.164  0.00  0.00    +0.000 OA
ATOM     15  C   UNL     1       3.534   5.316  18.862  0.00  0.00    +0.000 A 
ENDROOT
BRANCH   1  18
ATOM     16  C   UNL     1       6.475   4.435  17.279  0.00  0.00    +0.000 C 
ATOM     17  O   UNL     1       7.087   4.513  18.348  0.00  0.00    +0.000 OA
ATOM     18  N   UNL     1       5.089   4.295  17.190  0.00  0.00    +0.000 N 
ATOM     19  H   UNL     1       4.758   3.698  16.431  0.00  0.00    +0.000 HD
BRANCH  16  20
ATOM     20  C   UNL     1       7.234   4.455  15.971  0.00  0.00    +0.000 C 
BRANCH  20  21
ATOM     21  C   UNL     1       6.341   4.767  14.811  0.00  0.00    +0.000 C 
ATOM     22  O   UNL     1       5.881   5.886  14.575  0.00  0.00    +0.000 OA
BRANCH  21  23
ATOM     23  O   UNL     1       5.981   3.634  14.151  0.00  0.00    +0.000 OA
BRANCH  23  25
ATOM     24  C   UNL     1       5.098   3.268  11.966  0.00  0.00    +0.000 C 
ATOM     25  C   UNL     1       6.343   3.629  12.757  0.00  0.00    +0.000 C 
ENDBRANCH  23  25
ENDBRANCH  21  23
ENDBRANCH  20  21
ENDBRANCH  16  20
ENDBRANCH   1  18
TORSDOF 5
ENDMDL
MODEL 2
REMARK VINA RESULT:      -7.2      1.584      2.356
REMARK  Name = 
REMARK  6 active torsions:
REMARK  status: ('A' for Active; 'I' for Inactive)
REMARK    1  A    between atoms: C_1  and  C_2
REMARK    2  A    between atoms: C_2  and  O_3
REMARK    3  A    between atoms: O_3  and  C_4
REMARK    4  A    between atoms: C_4  and  C_6
REMARK    5  A    between atoms: C_6  and  C_7
REMARK    6  A    between atoms: N_9  and  C_10
REMARK                            x       y       z     vdW  Elec       q    Type
REMARK                         _______ _______ _______ _____ _____    ______ ____
ROOT
ATOM      1  C   UNL     1       3.377   4.656  18.743  0.00  0.00    +0.000 A 
ATOM      2  C   UNL     1       3.284   3.494  19.529  0.00  0.00    +0.000 A 
ATOM      3  C   UNL     1       2.555   3.487  20.711  0.00  0.00    +0.000 A 
ATOM      4  C   UNL     1       1.915   4.644  21.127  0.00  0.00    +0.000 A 
ATOM      5  C   UNL     1       2.017   5.833  20.382  0.00  0.00    +0.000 A 
ATOM      6  S   UNL     1       1.119   7.196  21.067  0.00  0.00    +0.000 S 
ATOM      7  C   UNL     1       1.361   8.478  19.891  0.00  0.00    +0.000 A 
ATOM      8  N   UNL     1       0.719   9.630  20.227  0.00  0.00    +0.000 NA
ATOM      9  C   UNL     1       0.843  10.691  19.404  0.00  0.00    +0.000 A 
ATOM     10  C   UNL     1       1.586  10.660  18.244  0.00  0.00    +0.000 A 
ATOM     11  C   UNL     1       2.240   9.475  17.913  0.00  0.00    +0.000 A 
ATOM     12  C   UNL     1       2.135   8.351  18.749  0.00  0.00    +0.000 A 
ATOM     13  C   UNL     1       2.854   7.106  18.382  0.00  0.00    +0.000 A 
ATOM     14  O   UNL     1       3.555   7.115  17.370  0.00  0.00    +0.000 OA
ATOM     15  C   UNL     1       2.765   5.857  19.193  0.00  0.00    +0.000 A 
ENDROOT
BRANCH   1  18
ATOM     16  C   UNL     1       5.439   4.262  17.506  0.00  0.00    +0.000 C 
ATOM     17  O   UNL     1       6.095   4.077  18.535  0.00  0.00    +0.000 OA
ATOM     18  N   UNL     1       4.075   4.561  17.503  0.00  0.00    +0.000 N 
ATOM     19  H   UNL     1       3.539   4.147  16.738  0.00  0.00    +0.000 HD
BRANCH  16  20
ATOM     20  C   UNL     1       6.103   4.135  16.153  0.00  0.00    +0.000 C 
BRANCH  20  21
ATOM     21  C   UNL     1       6.828   5.386  15.767  0.00  0.00    +0.000 C 
ATOM     22  O   UNL     1       7.757   5.424  14.958  0.00  0.00    +0.000 OA
BRANCH  21  23
ATOM     23  O   UNL     1       6.435   6.437  16.535  0.00  0.00    +0.000 OA
BRANCH  23  25
ATOM     24  C   UNL     1       7.865   6.892  18.389  0.00  0.00    +0.000 C 
ATOM     25  C   UNL     1       7.518   7.285  16.964  0.00  0.00    +0.000 C 
ENDBRANCH  23  25
ENDBRANCH  21  23
ENDBRANCH  20  21
ENDBRANCH  16  20
ENDBRANCH   1  18
TORSDOF 5
ENDMDL
MODEL 3
REMARK VINA RESULT:      -6.9      1.341      1.621
REMARK  Name = 
REMARK  6 active torsions:
REMARK  status: ('A' for Active; 'I' for Inactive)
REMARK    1  A    between atoms: C_1  and  C_2
REMARK    2  A    between atoms: C_2  and  O_3
REMARK    3  A    between atoms: O_3  and  C_4
REMARK    4  A    between atoms: C_4  and  C_6
REMARK    5  A    between atoms: C_6  and  C_7
REMARK    6  A    between atoms: N_9  and  C_10
REMARK                            x       y       z     vdW  Elec       q    Type
REMARK                         _______ _______ _______ _____ _____    ______ ____
ROOT
ATOM      1  C   UNL     1       3.191   5.392  18.575  0.00  0.00    +0.000 A 
ATOM      2  C   UNL     1       3.213   4.177  19.281  0.00  0.00    +0.000 A 
ATOM      3  C   UNL     1       2.563   4.048  20.502  0.00  0.00    +0.000 A 
ATOM      4  C   UNL     1       1.888   5.134  21.036  0.00  0.00    +0.000 A 
ATOM      5  C   UNL     1       1.876   6.373  20.371  0.00  0.00    +0.000 A 
ATOM      6  S   UNL     1       0.951   7.632  21.203  0.00  0.00    +0.000 S 
ATOM      7  C   UNL     1       1.045   9.001  20.108  0.00  0.00    +0.000 A 
ATOM      8  N   UNL     1       0.364  10.088  20.561  0.00  0.00    +0.000 NA
ATOM      9  C   UNL     1       0.375  11.208  19.809  0.00  0.00    +0.000 A 
ATOM     10  C   UNL     1       1.043  11.298  18.607  0.00  0.00    +0.000 A 
ATOM     11  C   UNL     1       1.739  10.179  18.155  0.00  0.00    +0.000 A 
ATOM     12  C   UNL     1       1.750   8.998  18.915  0.00  0.00    +0.000 A 
ATOM     13  C   UNL     1       2.512   7.824  18.419  0.00  0.00    +0.000 A 
ATOM     14  O   UNL     1       3.145   7.943  17.369  0.00  0.00    +0.000 OA
ATOM     15  C   UNL     1       2.544   6.521  19.144  0.00  0.00    +0.000 A 
ENDROOT
BRANCH   1  18
ATOM     16  C   UNL     1       5.185   5.656  17.200  0.00  0.00    +0.000 C 
ATOM     17  O   UNL     1       5.911   5.851  18.180  0.00  0.00    +0.000 OA
ATOM     18  N   UNL     1       3.813   5.421  17.291  0.00  0.00    +0.000 N 
ATOM     19  H   UNL     1       3.439   4.750  16.617  0.00  0.00    +0.000 HD
BRANCH  16  20
ATOM     20  C   UNL     1       5.782   5.630  15.811  0.00  0.00    +0.000 C 
BRANCH  20  21
ATOM     21  C   UNL     1       6.781   4.526  15.653  0.00  0.00    +0.000 C 
ATOM     22  O   UNL     1       7.895   4.523  16.178  0.00  0.00    +0.000 OA
BRANCH  21  23
ATOM     23  O   UNL     1       6.361   3.614  14.735  0.00  0.00    +0.000 OA
BRANCH  23  25
ATOM     24  C   UNL     1       5.843   3.335  12.424  0.00  0.00    +0.000 C 
ATOM     25  C   UNL     1       5.588   4.179  13.660  0.00  0.00    +0.000 C 
ENDBRANCH  23  25
ENDBRANCH  21  23
ENDBRANCH  20  21
ENDBRANCH  16  20
ENDBRANCH   1  18
TORSDOF 5
ENDMDL
MODEL 4
REMARK VINA RESULT:      -6.8      1.351      2.348
REMARK  Name = 
REMARK  6 active torsions:
REMARK  status: ('A' for Active; 'I' for Inactive)
REMARK    1  A    between atoms: C_1  and  C_2
REMARK    2  A    between atoms: C_2  and  O_3
REMARK    3  A    between atoms: O_3  and  C_4
REMARK    4  A    between atoms: C_4  and  C_6
REMARK    5  A    between atoms: C_6  and  C_7
REMARK    6  A    between atoms: N_9  and  C_10
REMARK                            x       y       z     vdW  Elec       q    Type
REMARK                         _______ _______ _______ _____ _____    ______ ____
ROOT
ATOM      1  C   UNL     1       4.098   4.074  19.224  0.00  0.00    +0.000 A 
ATOM      2  C   UNL     1       3.939   2.939  20.037  0.00  0.00    +0.000 A 
ATOM      3  C   UNL     1       2.979   2.908  21.039  0.00  0.00    +0.000 A 
ATOM      4  C   UNL     1       2.168   4.013  21.245  0.00  0.00    +0.000 A 
ATOM      5  C   UNL     1       2.325   5.177  20.471  0.00  0.00    +0.000 A 
ATOM      6  S   UNL     1       1.189   6.473  20.874  0.00  0.00    +0.000 S 
ATOM      7  C   UNL     1       1.566   7.726  19.704  0.00  0.00    +0.000 A 
ATOM      8  N   UNL     1       0.772   8.824  19.831  0.00  0.00    +0.000 NA
ATOM      9  C   UNL     1       0.977   9.860  18.993  0.00  0.00    +0.000 A 
ATOM     10  C   UNL     1       1.951   9.856  18.018  0.00  0.00    +0.000 A 
ATOM     11  C   UNL     1       2.759   8.728  17.899  0.00  0.00    +0.000 A 
ATOM     12  C   UNL     1       2.574   7.631  18.758  0.00  0.00    +0.000 A 
ATOM     13  C   UNL     1       3.458   6.447  18.621  0.00  0.00    +0.000 A 
ATOM     14  O   UNL     1       4.356   6.485  17.779  0.00  0.00    +0.000 OA
ATOM     15  C   UNL     1       3.305   5.227  19.466  0.00  0.00    +0.000 A 
ENDROOT
BRANCH   1  18
ATOM     16  C   UNL     1       4.624   3.652  16.882  0.00  0.00    +0.000 C 
ATOM     17  O   UNL     1       3.450   3.395  16.599  0.00  0.00    +0.000 OA
ATOM     18  N   UNL     1       5.052   3.999  18.164  0.00  0.00    +0.000 N 
ATOM     19  H   UNL     1       5.793   4.700  18.203  0.00  0.00    +0.000 HD
BRANCH  16  20
ATOM     20  C   UNL     1       5.682   3.634  15.801  0.00  0.00    +0.000 C 
BRANCH  20  21
ATOM     21  C   UNL     1       6.402   4.943  15.703  0.00  0.00    +0.000 C 
ATOM     22  O   UNL     1       6.223   5.763  14.801  0.00  0.00    +0.000 OA
BRANCH  21  23
ATOM     23  O   UNL     1       7.382   5.035  16.641  0.00  0.00    +0.000 OA
BRANCH  23  25
ATOM     24  C   UNL     1       7.770   6.147  18.715  0.00  0.00    +0.000 C 
ATOM     25  C   UNL     1       7.504   6.343  17.233  0.00  0.00    +0.000 C 
ENDBRANCH  23  25
ENDBRANCH  21  23
ENDBRANCH  20  21
ENDBRANCH  16  20
ENDBRANCH   1  18
TORSDOF 5
ENDMDL
MODEL 5
REMARK VINA RESULT:      -6.7      3.831      5.688
REMARK  Name = 
REMARK  6 active torsions:
REMARK  status: ('A' for Active; 'I' for Inactive)
REMARK    1  A    between atoms: C_1  and  C_2
REMARK    2  A    between atoms: C_2  and  O_3
REMARK    3  A    between atoms: O_3  and  C_4
REMARK    4  A    between atoms: C_4  and  C_6
REMARK    5  A    between atoms: C_6  and  C_7
REMARK    6  A    between atoms: N_9  and  C_10
REMARK                            x       y       z     vdW  Elec       q    Type
REMARK                         _______ _______ _______ _____ _____    ______ ____
ROOT
ATOM      1  C   UNL     1       2.200   7.074  19.679  0.00  0.00    +0.000 A 
ATOM      2  C   UNL     1       2.899   6.867  18.478  0.00  0.00    +0.000 A 
ATOM      3  C   UNL     1       2.971   7.861  17.512  0.00  0.00    +0.000 A 
ATOM      4  C   UNL     1       2.340   9.076  17.732  0.00  0.00    +0.000 A 
ATOM      5  C   UNL     1       1.604   9.303  18.909  0.00  0.00    +0.000 A 
ATOM      6  S   UNL     1       0.885  10.917  19.013  0.00  0.00    +0.000 S 
ATOM      7  C   UNL     1       0.126  10.926  20.596  0.00  0.00    +0.000 A 
ATOM      8  N   UNL     1      -0.476  12.112  20.887  0.00  0.00    +0.000 NA
ATOM      9  C   UNL     1      -1.104  12.234  22.074  0.00  0.00    +0.000 A 
ATOM     10  C   UNL     1      -1.162  11.216  23.000  0.00  0.00    +0.000 A 
ATOM     11  C   UNL     1      -0.544  10.007  22.691  0.00  0.00    +0.000 A 
ATOM     12  C   UNL     1       0.117   9.845  21.462  0.00  0.00    +0.000 A 
ATOM     13  C   UNL     1       0.755   8.542  21.149  0.00  0.00    +0.000 A 
ATOM     14  O   UNL     1       0.646   7.629  21.969  0.00  0.00    +0.000 OA
ATOM     15  C   UNL     1       1.509   8.298  19.886  0.00  0.00    +0.000 A 
ENDROOT
BRANCH   1  18
ATOM     16  C   UNL     1       1.632   4.809  20.377  0.00  0.00    +0.000 C 
ATOM     17  O   UNL     1       1.042   4.565  19.320  0.00  0.00    +0.000 OA
ATOM     18  N   UNL     1       2.241   6.034  20.655  0.00  0.00    +0.000 N 
ATOM     19  H   UNL     1       3.110   5.977  21.188  0.00  0.00    +0.000 HD
BRANCH  16  20
ATOM     20  C   UNL     1       1.752   3.740  21.439  0.00  0.00    +0.000 C 
BRANCH  20  21
ATOM     21  C   UNL     1       2.937   2.856  21.210  0.00  0.00    +0.000 C 
ATOM     22  O   UNL     1       3.288   1.959  21.979  0.00  0.00    +0.000 OA
BRANCH  21  23
ATOM     23  O   UNL     1       3.658   3.271  20.135  0.00  0.00    +0.000 OA
BRANCH  23  25
ATOM     24  C   UNL     1       3.176   1.839  18.289  0.00  0.00    +0.000 C 
ATOM     25  C   UNL     1       4.205   2.196  19.347  0.00  0.00    +0.000 C 
ENDBRANCH  23  25
ENDBRANCH  21  23
ENDBRANCH  20  21
ENDBRANCH  16  20
ENDBRANCH   1  18
TORSDOF 5
ENDMDL
MODEL 6
REMARK VINA RESULT:      -6.6      3.737      5.706
REMARK  Name = 
REMARK  6 active torsions:
REMARK  status: ('A' for Active; 'I' for Inactive)
REMARK    1  A    between atoms: C_1  and  C_2
REMARK    2  A    between atoms: C_2  and  O_3
REMARK    3  A    between atoms: O_3  and  C_4
REMARK    4  A    between atoms: C_4  and  C_6
REMARK    5  A    between atoms: C_6  and  C_7
REMARK    6  A    between atoms: N_9  and  C_10
REMARK                            x       y       z     vdW  Elec       q    Type
REMARK                         _______ _______ _______ _____ _____    ______ ____
ROOT
ATOM      1  C   UNL     1       6.703   5.121  17.120  0.00  0.00    +0.000 A 
ATOM      2  C   UNL     1       7.200   4.853  15.833  0.00  0.00    +0.000 A 
ATOM      3  C   UNL     1       6.431   4.173  14.898  0.00  0.00    +0.000 A 
ATOM      4  C   UNL     1       5.157   3.746  15.240  0.00  0.00    +0.000 A 
ATOM      5  C   UNL     1       4.644   3.967  16.530  0.00  0.00    +0.000 A 
ATOM      6  S   UNL     1       2.998   3.362  16.769  0.00  0.00    +0.000 S 
ATOM      7  C   UNL     1       2.613   3.858  18.409  0.00  0.00    +0.000 A 
ATOM      8  N   UNL     1       1.355   3.502  18.787  0.00  0.00    +0.000 NA
ATOM      9  C   UNL     1       0.950   3.819  20.034  0.00  0.00    +0.000 A 
ATOM     10  C   UNL     1       1.750   4.485  20.936  0.00  0.00    +0.000 A 
ATOM     11  C   UNL     1       3.036   4.843  20.538  0.00  0.00    +0.000 A 
ATOM     12  C   UNL     1       3.491   4.526  19.247  0.00  0.00    +0.000 A 
ATOM     13  C   UNL     1       4.871   4.904  18.852  0.00  0.00    +0.000 A 
ATOM     14  O   UNL     1       5.587   5.452  19.691  0.00  0.00    +0.000 OA
ATOM     15  C   UNL     1       5.419   4.639  17.491  0.00  0.00    +0.000 A 
ENDROOT
BRANCH   1  18
ATOM     16  C   UNL     1       7.663   7.265  17.769  0.00  0.00    +0.000 C 
ATOM     17  O   UNL     1       7.119   7.862  16.836  0.00  0.00    +0.000 OA
ATOM     18  N   UNL     1       7.522   5.895  17.996  0.00  0.00    +0.000 N 
ATOM     19  H   UNL     1       7.484   5.617  18.978  0.00  0.00    +0.000 HD
BRANCH  16  20
ATOM     20  C   UNL     1       8.511   8.028  18.762  0.00  0.00    +0.000 C 
BRANCH  20  21
ATOM     21  C   UNL     1       8.562   9.490  18.446  0.00  0.00    +0.000 C 
ATOM     22  O   UNL     1       7.871  10.034  17.583  0.00  0.00    +0.000 OA
BRANCH  21  23
ATOM     23  O   UNL     1       9.572  10.102  19.119  0.00  0.00    +0.000 OA
BRANCH  23  25
ATOM     24  C   UNL     1      10.979  11.645  17.968  0.00  0.00    +0.000 C 
ATOM     25  C   UNL     1       9.721  11.500  18.806  0.00  0.00    +0.000 C 
ENDBRANCH  23  25
ENDBRANCH  21  23
ENDBRANCH  20  21
ENDBRANCH  16  20
ENDBRANCH   1  18
TORSDOF 5
ENDMDL
MODEL 7
REMARK VINA RESULT:      -6.5      2.571      6.580
REMARK  Name = 
REMARK  6 active torsions:
REMARK  status: ('A' for Active; 'I' for Inactive)
REMARK    1  A    between atoms: C_1  and  C_2
REMARK    2  A    between atoms: C_2  and  O_3
REMARK    3  A    between atoms: O_3  and  C_4
REMARK    4  A    between atoms: C_4  and  C_6
REMARK    5  A    between atoms: C_6  and  C_7
REMARK    6  A    between atoms: N_9  and  C_10
REMARK                            x       y       z     vdW  Elec       q    Type
REMARK                         _______ _______ _______ _____ _____    ______ ____
ROOT
ATOM      1  C   UNL     1       2.280   6.347  19.733  0.00  0.00    +0.000 A 
ATOM      2  C   UNL     1       1.635   5.720  20.813  0.00  0.00    +0.000 A 
ATOM      3  C   UNL     1       1.777   4.357  21.037  0.00  0.00    +0.000 A 
ATOM      4  C   UNL     1       2.560   3.601  20.179  0.00  0.00    +0.000 A 
ATOM      5  C   UNL     1       3.191   4.191  19.069  0.00  0.00    +0.000 A 
ATOM      6  S   UNL     1       4.158   3.067  18.103  0.00  0.00    +0.000 S 
ATOM      7  C   UNL     1       4.875   4.095  16.874  0.00  0.00    +0.000 A 
ATOM      8  N   UNL     1       5.691   3.413  16.025  0.00  0.00    +0.000 NA
ATOM      9  C   UNL     1       6.289   4.097  15.028  0.00  0.00    +0.000 A 
ATOM     10  C   UNL     1       6.112   5.449  14.834  0.00  0.00    +0.000 A 
ATOM     11  C   UNL     1       5.274   6.136  15.709  0.00  0.00    +0.000 A 
ATOM     12  C   UNL     1       4.632   5.454  16.756  0.00  0.00    +0.000 A 
ATOM     13  C   UNL     1       3.731   6.205  17.665  0.00  0.00    +0.000 A 
ATOM     14  O   UNL     1       3.545   7.402  17.442  0.00  0.00    +0.000 OA
ATOM     15  C   UNL     1       3.041   5.566  18.823  0.00  0.00    +0.000 A 
ENDROOT
BRANCH   1  18
ATOM     16  C   UNL     1       1.239   8.436  20.434  0.00  0.00    +0.000 C 
ATOM     17  O   UNL     1       0.518   7.872  21.263  0.00  0.00    +0.000 OA
ATOM     18  N   UNL     1       2.151   7.764  19.619  0.00  0.00    +0.000 N 
ATOM     19  H   UNL     1       3.023   8.261  19.436  0.00  0.00    +0.000 HD
BRANCH  16  20
ATOM     20  C   UNL     1       1.188   9.940  20.288  0.00  0.00    +0.000 C 
BRANCH  20  21
ATOM     21  C   UNL     1       1.063  10.358  18.855  0.00  0.00    +0.000 C 
ATOM     22  O   UNL     1       1.938  10.181  18.006  0.00  0.00    +0.000 OA
BRANCH  21  23
ATOM     23  O   UNL     1      -0.065  11.092  18.655  0.00  0.00    +0.000 OA
BRANCH  23  25
ATOM     24  C   UNL     1      -1.742  10.066  17.306  0.00  0.00    +0.000 C 
ATOM     25  C   UNL     1      -1.282  10.325  18.729  0.00  0.00    +0.000 C 
ENDBRANCH  23  25
ENDBRANCH  21  23
ENDBRANCH  20  21
ENDBRANCH  16  20
ENDBRANCH   1  18
TORSDOF 5
ENDMDL
MODEL 8
REMARK VINA RESULT:      -6.4      1.268      1.475
REMARK  Name = 
REMARK  6 active torsions:
REMARK  status: ('A' for Active; 'I' for Inactive)
REMARK    1  A    between atoms: C_1  and  C_2
REMARK    2  A    between atoms: C_2  and  O_3
REMARK    3  A    between atoms: O_3  and  C_4
REMARK    4  A    between atoms: C_4  and  C_6
REMARK    5  A    between atoms: C_6  and  C_7
REMARK    6  A    between atoms: N_9  and  C_10
REMARK                            x       y       z     vdW  Elec       q    Type
REMARK                         _______ _______ _______ _____ _____    ______ ____
ROOT
ATOM      1  C   UNL     1       3.920   4.216  17.499  0.00  0.00    +0.000 A 
ATOM      2  C   UNL     1       4.129   2.831  17.620  0.00  0.00    +0.000 A 
ATOM      3  C   UNL     1       3.618   2.123  18.699  0.00  0.00    +0.000 A 
ATOM      4  C   UNL     1       2.896   2.790  19.675  0.00  0.00    +0.000 A 
ATOM      5  C   UNL     1       2.698   4.181  19.602  0.00  0.00    +0.000 A 
ATOM      6  S   UNL     1       1.740   4.847  20.932  0.00  0.00    +0.000 S 
ATOM      7  C   UNL     1       1.592   6.548  20.520  0.00  0.00    +0.000 A 
ATOM      8  N   UNL     1       0.856   7.249  21.424  0.00  0.00    +0.000 NA
ATOM      9  C   UNL     1       0.684   8.570  21.219  0.00  0.00    +0.000 A 
ATOM     10  C   UNL     1       1.219   9.238  20.139  0.00  0.00    +0.000 A 
ATOM     11  C   UNL     1       1.973   8.511  19.222  0.00  0.00    +0.000 A 
ATOM     12  C   UNL     1       2.173   7.132  19.406  0.00  0.00    +0.000 A 
ATOM     13  C   UNL     1       2.994   6.382  18.423  0.00  0.00    +0.000 A 
ATOM     14  O   UNL     1       3.506   7.007  17.495  0.00  0.00    +0.000 OA
ATOM     15  C   UNL     1       3.225   4.912  18.523  0.00  0.00    +0.000 A 
ENDROOT
BRANCH   1  18
ATOM     16  C   UNL     1       5.737   5.276  16.269  0.00  0.00    +0.000 C 
ATOM     17  O   UNL     1       6.535   5.130  17.200  0.00  0.00    +0.000 OA
ATOM     18  N   UNL     1       4.407   4.857  16.320  0.00  0.00    +0.000 N 
ATOM     19  H   UNL     1       4.030   4.491  15.445  0.00  0.00    +0.000 HD
BRANCH  16  20
ATOM     20  C   UNL     1       6.194   5.909  14.974  0.00  0.00    +0.000 C 
BRANCH  20  21
ATOM     21  C   UNL     1       6.983   4.954  14.134  0.00  0.00    +0.000 C 
ATOM     22  O   UNL     1       8.083   5.213  13.644  0.00  0.00    +0.000 OA
BRANCH  21  23
ATOM     23  O   UNL     1       6.263   3.835  13.855  0.00  0.00    +0.000 OA
BRANCH  23  25
ATOM     24  C   UNL     1       4.882   3.322  11.979  0.00  0.00    +0.000 C 
ATOM     25  C   UNL     1       6.313   3.437  12.472  0.00  0.00    +0.000 C 
ENDBRANCH  23  25
ENDBRANCH  21  23
ENDBRANCH  20  21
ENDBRANCH  16  20
ENDBRANCH   1  18
TORSDOF 5
ENDMDL
MODEL 9
REMARK VINA RESULT:      -6.4      3.358      7.615
REMARK  Name = 
REMARK  6 active torsions:
REMARK  status: ('A' for Active; 'I' for Inactive)
REMARK    1  A    between atoms: C_1  and  C_2
REMARK    2  A    between atoms: C_2  and  O_3
REMARK    3  A    between atoms: O_3  and  C_4
REMARK    4  A    between atoms: C_4  and  C_6
REMARK    5  A    between atoms: C_6  and  C_7
REMARK    6  A    between atoms: N_9  and  C_10
REMARK                            x       y       z     vdW  Elec       q    Type
REMARK                         _______ _______ _______ _____ _____    ______ ____
ROOT
ATOM      1  C   UNL     1       2.229   5.962  20.043  0.00  0.00    +0.000 A 
ATOM      2  C   UNL     1       1.533   5.205  21.000  0.00  0.00    +0.000 A 
ATOM      3  C   UNL     1       1.557   3.817  20.968  0.00  0.00    +0.000 A 
ATOM      4  C   UNL     1       2.273   3.167  19.974  0.00  0.00    +0.000 A 
ATOM      5  C   UNL     1       2.952   3.896  18.982  0.00  0.00    +0.000 A 
ATOM      6  S   UNL     1       3.819   2.891  17.811  0.00  0.00    +0.000 S 
ATOM      7  C   UNL     1       4.622   4.063  16.780  0.00  0.00    +0.000 A 
ATOM      8  N   UNL     1       5.377   3.482  15.808  0.00  0.00    +0.000 NA
ATOM      9  C   UNL     1       6.032   4.284  14.944  0.00  0.00    +0.000 A 
ATOM     10  C   UNL     1       5.972   5.659  15.003  0.00  0.00    +0.000 A 
ATOM     11  C   UNL     1       5.195   6.242  16.002  0.00  0.00    +0.000 A 
ATOM     12  C   UNL     1       4.497   5.436  16.916  0.00  0.00    +0.000 A 
ATOM     13  C   UNL     1       3.663   6.081  17.961  0.00  0.00    +0.000 A 
ATOM     14  O   UNL     1       3.581   7.310  17.964  0.00  0.00    +0.000 OA
ATOM     15  C   UNL     1       2.921   5.301  18.993  0.00  0.00    +0.000 A 
ENDROOT
BRANCH   1  18
ATOM     16  C   UNL     1       1.123   8.002  20.786  0.00  0.00    +0.000 C 
ATOM     17  O   UNL     1       0.132   7.390  21.197  0.00  0.00    +0.000 OA
ATOM     18  N   UNL     1       2.222   7.382  20.191  0.00  0.00    +0.000 N 
ATOM     19  H   UNL     1       3.129   7.795  20.411  0.00  0.00    +0.000 HD
BRANCH  16  20
ATOM     20  C   UNL     1       1.204   9.503  20.949  0.00  0.00    +0.000 C 
BRANCH  20  21
ATOM     21  C   UNL     1       0.514   9.969  22.193  0.00  0.00    +0.000 C 
ATOM     22  O   UNL     1       0.878   9.678  23.334  0.00  0.00    +0.000 OA
BRANCH  21  23
ATOM     23  O   UNL     1      -0.645  10.615  21.898  0.00  0.00    +0.000 OA
BRANCH  23  25
ATOM     24  C   UNL     1      -1.305  12.627  22.996  0.00  0.00    +0.000 C 
ATOM     25  C   UNL     1      -1.349  11.111  23.053  0.00  0.00    +0.000 C 
ENDBRANCH  23  25
ENDBRANCH  21  23
ENDBRANCH  20  21
ENDBRANCH  16  20
ENDBRANCH   1  18
TORSDOF 5
ENDMDL
