MODEL 1
REMARK VINA RESULT:      -8.1      0.000      0.000
REMARK  Name = 
REMARK  10 active torsions:
REMARK  status: ('A' for Active; 'I' for Inactive)
REMARK    1  A    between atoms: C_1  and  N_2
REMARK    2  A    between atoms: N_2  and  C_3
REMARK    3  A    between atoms: N_2  and  C_4
REMARK    4  A    between atoms: C_4  and  C_5
REMARK    5  A    between atoms: C_5  and  N_6
REMARK    6  A    between atoms: C_7  and  C_9
REMARK    7  A    between atoms: C_10  and  N_11
REMARK    8  A    between atoms: C_12  and  C_14
REMARK    9  A    between atoms: C_14  and  N_15
REMARK   10  A    between atoms: C_17  and  C_18
REMARK                            x       y       z     vdW  Elec       q    Type
REMARK                         _______ _______ _______ _____ _____    ______ ____
ROOT
ATOM      1  C   UNL     1      -0.767  11.433  19.202  0.00  0.00    +0.000 A 
ATOM      2  C   UNL     1      -0.608  10.376  18.296  0.00  0.00    +0.000 A 
ATOM      3  S   UNL     1      -2.079   9.876  17.588  0.00  0.00    +0.000 S 
ATOM      4  C   UNL     1      -2.978  11.073  18.351  0.00  0.00    +0.000 A 
ATOM      5  C   UNL     1      -2.204  11.835  19.213  0.00  0.00    +0.000 A 
ATOM      6  C   UNL     1      -2.867  12.942  20.005  0.00  0.00    +0.000 C 
ATOM      7  C   UNL     1      -4.397  12.745  20.110  0.00  0.00    +0.000 C 
ATOM      8  C   UNL     1      -5.030  12.460  18.742  0.00  0.00    +0.000 C 
ATOM      9  C   UNL     1      -4.457  11.180  18.121  0.00  0.00    +0.000 C 
ENDROOT
BRANCH   1  11
ATOM     10  N   UNL     1       1.262  12.911  19.382  0.00  0.00    +0.000 N 
ATOM     11  C   UNL     1       0.284  12.124  20.023  0.00  0.00    +0.000 C 
ATOM     12  O   UNL     1       0.338  11.930  21.233  0.00  0.00    +0.000 OA
ATOM     13  H   UNL     1       1.335  12.815  18.380  0.00  0.00    +0.000 HD
BRANCH  10  14
ATOM     14  C   UNL     1       2.425  13.420  20.145  0.00  0.00    +0.000 C 
BRANCH  14  15
ATOM     15  C   UNL     1       2.737  14.964  20.158  0.00  0.00    +0.000 C 
BRANCH  15  17
ATOM     16  C   UNL     1       3.746  15.287  17.819  0.00  0.00    +0.000 C 
ATOM     17  N   UNL     1       3.049  15.849  19.007  0.00  0.00    +0.000 NA
ATOM     18  C   UNL     1       1.812  16.508  18.537  0.00  0.00    +0.000 C 
ENDBRANCH  15  17
ENDBRANCH  14  15
ENDBRANCH  10  14
ENDBRANCH   1  11
BRANCH   2  19
ATOM     19  N   UNL     1       0.557   9.740  17.886  0.00  0.00    +0.000 N 
ATOM     20  C   UNL     1       1.471   9.011  18.647  0.00  0.00    +0.000 C 
ATOM     21  O   UNL     1       1.423   8.837  19.869  0.00  0.00    +0.000 OA
ATOM     22  H   UNL     1       0.632   9.598  16.875  0.00  0.00    +0.000 HD
BRANCH  20  23
ATOM     23  C   UNL     1       2.711   8.436  17.923  0.00  0.00    +0.000 C 
BRANCH  23  24
ATOM     24  N   UNL     1       2.917   7.014  17.978  0.00  0.00    +0.000 N 
ATOM     25  N   UNL     1       2.176   6.313  18.834  0.00  0.00    +0.000 NA
ATOM     26  C   UNL     1       2.549   5.032  18.812  0.00  0.00    +0.000 A 
ATOM     27  C   UNL     1       3.657   4.925  17.834  0.00  0.00    +0.000 A 
ATOM     28  C   UNL     1       3.832   6.226  17.377  0.00  0.00    +0.000 A 
ATOM     29  C   UNL     1       4.874   6.716  16.404  0.00  0.00    +0.000 C 
ATOM     30  C   UNL     1       5.489   5.579  15.587  0.00  0.00    +0.000 C 
ATOM     31  C   UNL     1       5.804   4.365  16.477  0.00  0.00    +0.000 C 
ATOM     32  C   UNL     1       4.540   3.843  17.209  0.00  0.00    +0.000 C 
BRANCH  26  33
ATOM     33  C   UNL     1       1.719   4.201  19.893  0.00  0.00    +0.000 C 
ATOM     34  F   UNL     1       1.071   5.082  20.728  0.00  0.00    +0.000 F 
ATOM     35  F   UNL     1       0.729   3.382  19.466  0.00  0.00    +0.000 F 
ATOM     36  F   UNL     1       2.531   3.478  20.695  0.00  0.00    +0.000 F 
ENDBRANCH  26  33
ENDBRANCH  23  24
ENDBRANCH  20  23
ENDBRANCH   2  19
TORSDOF 8
ENDMDL
MODEL 2
REMARK VINA RESULT:      -8.1      3.010      5.016
REMARK  Name = 
REMARK  10 active torsions:
REMARK  status: ('A' for Active; 'I' for Inactive)
REMARK    1  A    between atoms: C_1  and  N_2
REMARK    2  A    between atoms: N_2  and  C_3
REMARK    3  A    between atoms: N_2  and  C_4
REMARK    4  A    between atoms: C_4  and  C_5
REMARK    5  A    between atoms: C_5  and  N_6
REMARK    6  A    between atoms: C_7  and  C_9
REMARK    7  A    between atoms: C_10  and  N_11
REMARK    8  A    between atoms: C_12  and  C_14
REMARK    9  A    between atoms: C_14  and  N_15
REMARK   10  A    between atoms: C_17  and  C_18
REMARK                            x       y       z     vdW  Elec       q    Type
REMARK                         _______ _______ _______ _____ _____    ______ ____
ROOT
ATOM      1  C   UNL     1      -0.520  11.245  18.683  0.00  0.00    +0.000 A 
ATOM      2  C   UNL     1       0.836  10.892  18.689  0.00  0.00    +0.000 A 
ATOM      3  S   UNL     1       1.754  11.782  19.819  0.00  0.00    +0.000 S 
ATOM      4  C   UNL     1       0.416  12.601  20.423  0.00  0.00    +0.000 A 
ATOM      5  C   UNL     1      -0.745  12.274  19.740  0.00  0.00    +0.000 A 
ATOM      6  C   UNL     1      -2.041  12.948  20.139  0.00  0.00    +0.000 C 
ATOM      7  C   UNL     1      -1.798  14.260  20.919  0.00  0.00    +0.000 C 
ATOM      8  C   UNL     1      -0.790  14.067  22.060  0.00  0.00    +0.000 C 
ATOM      9  C   UNL     1       0.571  13.606  21.526  0.00  0.00    +0.000 C 
ENDROOT
BRANCH   1  11
ATOM     10  N   UNL     1      -2.147  11.483  16.777  0.00  0.00    +0.000 N 
ATOM     11  C   UNL     1      -1.623  10.697  17.824  0.00  0.00    +0.000 C 
ATOM     12  O   UNL     1      -2.123   9.610  18.092  0.00  0.00    +0.000 OA
ATOM     13  H   UNL     1      -1.894  12.460  16.776  0.00  0.00    +0.000 HD
BRANCH  10  14
ATOM     14  C   UNL     1      -3.371  11.053  16.064  0.00  0.00    +0.000 C 
BRANCH  14  15
ATOM     15  C   UNL     1      -4.746  11.757  16.374  0.00  0.00    +0.000 C 
BRANCH  15  17
ATOM     16  C   UNL     1      -5.144  11.504  18.899  0.00  0.00    +0.000 C 
ATOM     17  N   UNL     1      -5.672  11.506  17.508  0.00  0.00    +0.000 NA
ATOM     18  C   UNL     1      -6.797  12.464  17.451  0.00  0.00    +0.000 C 
ENDBRANCH  15  17
ENDBRANCH  14  15
ENDBRANCH  10  14
ENDBRANCH   1  11
BRANCH   2  19
ATOM     19  N   UNL     1       1.490   9.914  17.950  0.00  0.00    +0.000 N 
ATOM     20  C   UNL     1       1.956   8.666  18.368  0.00  0.00    +0.000 C 
ATOM     21  O   UNL     1       1.904   8.220  19.518  0.00  0.00    +0.000 OA
ATOM     22  H   UNL     1       1.419  10.026  16.936  0.00  0.00    +0.000 HD
BRANCH  20  23
ATOM     23  C   UNL     1       2.685   7.787  17.325  0.00  0.00    +0.000 C 
BRANCH  23  24
ATOM     24  N   UNL     1       3.406   6.639  17.806  0.00  0.00    +0.000 N 
ATOM     25  N   UNL     1       4.716   6.771  18.004  0.00  0.00    +0.000 NA
ATOM     26  C   UNL     1       5.238   5.598  18.372  0.00  0.00    +0.000 A 
ATOM     27  C   UNL     1       4.124   4.622  18.396  0.00  0.00    +0.000 A 
ATOM     28  C   UNL     1       3.015   5.364  18.006  0.00  0.00    +0.000 A 
ATOM     29  C   UNL     1       1.610   4.860  17.797  0.00  0.00    +0.000 C 
ATOM     30  C   UNL     1       1.368   3.512  18.477  0.00  0.00    +0.000 C 
ATOM     31  C   UNL     1       2.551   2.556  18.248  0.00  0.00    +0.000 C 
ATOM     32  C   UNL     1       3.886   3.157  18.764  0.00  0.00    +0.000 C 
BRANCH  26  33
ATOM     33  C   UNL     1       6.821   5.729  18.535  0.00  0.00    +0.000 C 
ATOM     34  F   UNL     1       7.418   4.629  17.964  0.00  0.00    +0.000 F 
ATOM     35  F   UNL     1       7.452   6.774  17.947  0.00  0.00    +0.000 F 
ATOM     36  F   UNL     1       7.192   5.705  19.833  0.00  0.00    +0.000 F 
ENDBRANCH  26  33
ENDBRANCH  23  24
ENDBRANCH  20  23
ENDBRANCH   2  19
TORSDOF 8
ENDMDL
MODEL 3
REMARK VINA RESULT:      -7.9      3.061      3.672
REMARK  Name = 
REMARK  10 active torsions:
REMARK  status: ('A' for Active; 'I' for Inactive)
REMARK    1  A    between atoms: C_1  and  N_2
REMARK    2  A    between atoms: N_2  and  C_3
REMARK    3  A    between atoms: N_2  and  C_4
REMARK    4  A    between atoms: C_4  and  C_5
REMARK    5  A    between atoms: C_5  and  N_6
REMARK    6  A    between atoms: C_7  and  C_9
REMARK    7  A    between atoms: C_10  and  N_11
REMARK    8  A    between atoms: C_12  and  C_14
REMARK    9  A    between atoms: C_14  and  N_15
REMARK   10  A    between atoms: C_17  and  C_18
REMARK                            x       y       z     vdW  Elec       q    Type
REMARK                         _______ _______ _______ _____ _____    ______ ____
ROOT
ATOM      1  C   UNL     1       0.714  11.624  19.883  0.00  0.00    +0.000 A 
ATOM      2  C   UNL     1       0.854  10.232  19.806  0.00  0.00    +0.000 A 
ATOM      3  S   UNL     1       0.117   9.412  21.109  0.00  0.00    +0.000 S 
ATOM      4  C   UNL     1      -0.503  10.820  21.784  0.00  0.00    +0.000 A 
ATOM      5  C   UNL     1      -0.112  11.950  21.083  0.00  0.00    +0.000 A 
ATOM      6  C   UNL     1      -0.561  13.309  21.577  0.00  0.00    +0.000 C 
ATOM      7  C   UNL     1      -0.979  13.276  23.065  0.00  0.00    +0.000 C 
ATOM      8  C   UNL     1      -1.952  12.127  23.358  0.00  0.00    +0.000 C 
ATOM      9  C   UNL     1      -1.316  10.768  23.045  0.00  0.00    +0.000 C 
ENDROOT
BRANCH   1  11
ATOM     10  N   UNL     1       2.503  13.243  19.166  0.00  0.00    +0.000 N 
ATOM     11  C   UNL     1       1.235  12.669  18.939  0.00  0.00    +0.000 C 
ATOM     12  O   UNL     1       0.523  13.080  18.029  0.00  0.00    +0.000 OA
ATOM     13  H   UNL     1       2.922  13.071  20.068  0.00  0.00    +0.000 HD
BRANCH  10  14
ATOM     14  C   UNL     1       2.940  14.419  18.379  0.00  0.00    +0.000 C 
BRANCH  14  15
ATOM     15  C   UNL     1       2.339  15.840  18.698  0.00  0.00    +0.000 C 
BRANCH  15  17
ATOM     16  C   UNL     1       1.565  17.340  20.634  0.00  0.00    +0.000 C 
ATOM     17  N   UNL     1       1.315  16.199  19.711  0.00  0.00    +0.000 NA
ATOM     18  C   UNL     1       0.016  16.434  19.044  0.00  0.00    +0.000 C 
ENDBRANCH  15  17
ENDBRANCH  14  15
ENDBRANCH  10  14
ENDBRANCH   1  11
BRANCH   2  19
ATOM     19  N   UNL     1       1.456   9.465  18.816  0.00  0.00    +0.000 N 
ATOM     20  C   UNL     1       2.091   8.228  18.931  0.00  0.00    +0.000 C 
ATOM     21  O   UNL     1       2.273   7.601  19.979  0.00  0.00    +0.000 OA
ATOM     22  H   UNL     1       1.205   9.729  17.859  0.00  0.00    +0.000 HD
BRANCH  20  23
ATOM     23  C   UNL     1       2.706   7.615  17.651  0.00  0.00    +0.000 C 
BRANCH  23  24
ATOM     24  N   UNL     1       3.469   6.404  17.790  0.00  0.00    +0.000 N 
ATOM     25  N   UNL     1       4.797   6.500  17.751  0.00  0.00    +0.000 NA
ATOM     26  C   UNL     1       5.341   5.283  17.815  0.00  0.00    +0.000 A 
ATOM     27  C   UNL     1       4.220   4.317  17.894  0.00  0.00    +0.000 A 
ATOM     28  C   UNL     1       3.082   5.114  17.851  0.00  0.00    +0.000 A 
ATOM     29  C   UNL     1       1.647   4.651  17.838  0.00  0.00    +0.000 C 
ATOM     30  C   UNL     1       1.496   3.209  18.324  0.00  0.00    +0.000 C 
ATOM     31  C   UNL     1       2.583   2.304  17.718  0.00  0.00    +0.000 C 
ATOM     32  C   UNL     1       4.010   2.810  18.057  0.00  0.00    +0.000 C 
BRANCH  26  33
ATOM     33  C   UNL     1       6.929   5.385  17.688  0.00  0.00    +0.000 C 
ATOM     34  F   UNL     1       7.402   6.203  18.689  0.00  0.00    +0.000 F 
ATOM     35  F   UNL     1       7.667   4.258  17.825  0.00  0.00    +0.000 F 
ATOM     36  F   UNL     1       7.299   5.980  16.534  0.00  0.00    +0.000 F 
ENDBRANCH  26  33
ENDBRANCH  23  24
ENDBRANCH  20  23
ENDBRANCH   2  19
TORSDOF 8
ENDMDL
MODEL 4
REMARK VINA RESULT:      -7.9      1.082      1.542
REMARK  Name = 
REMARK  10 active torsions:
REMARK  status: ('A' for Active; 'I' for Inactive)
REMARK    1  A    between atoms: C_1  and  N_2
REMARK    2  A    between atoms: N_2  and  C_3
REMARK    3  A    between atoms: N_2  and  C_4
REMARK    4  A    between atoms: C_4  and  C_5
REMARK    5  A    between atoms: C_5  and  N_6
REMARK    6  A    between atoms: C_7  and  C_9
REMARK    7  A    between atoms: C_10  and  N_11
REMARK    8  A    between atoms: C_12  and  C_14
REMARK    9  A    between atoms: C_14  and  N_15
REMARK   10  A    between atoms: C_17  and  C_18
REMARK                            x       y       z     vdW  Elec       q    Type
REMARK                         _______ _______ _______ _____ _____    ______ ____
ROOT
ATOM      1  C   UNL     1      -0.562  11.373  19.366  0.00  0.00    +0.000 A 
ATOM      2  C   UNL     1      -0.441  10.390  18.375  0.00  0.00    +0.000 A 
ATOM      3  S   UNL     1      -1.926  10.016  17.619  0.00  0.00    +0.000 S 
ATOM      4  C   UNL     1      -2.779  11.183  18.477  0.00  0.00    +0.000 A 
ATOM      5  C   UNL     1      -1.981  11.836  19.403  0.00  0.00    +0.000 A 
ATOM      6  C   UNL     1      -2.603  12.900  20.283  0.00  0.00    +0.000 C 
ATOM      7  C   UNL     1      -4.140  12.761  20.363  0.00  0.00    +0.000 C 
ATOM      8  C   UNL     1      -4.772  12.620  18.972  0.00  0.00    +0.000 C 
ATOM      9  C   UNL     1      -4.250  11.373  18.248  0.00  0.00    +0.000 C 
ENDROOT
BRANCH   1  11
ATOM     10  N   UNL     1       1.367  12.945  19.743  0.00  0.00    +0.000 N 
ATOM     11  C   UNL     1       0.510  11.946  20.248  0.00  0.00    +0.000 C 
ATOM     12  O   UNL     1       0.691  11.482  21.369  0.00  0.00    +0.000 OA
ATOM     13  H   UNL     1       1.352  13.092  18.745  0.00  0.00    +0.000 HD
BRANCH  10  14
ATOM     14  C   UNL     1       2.558  13.366  20.517  0.00  0.00    +0.000 C 
BRANCH  14  15
ATOM     15  C   UNL     1       2.601  14.798  21.170  0.00  0.00    +0.000 C 
BRANCH  15  17
ATOM     16  C   UNL     1       4.375  15.219  22.980  0.00  0.00    +0.000 C 
ATOM     17  N   UNL     1       2.945  15.162  22.568  0.00  0.00    +0.000 NA
ATOM     18  C   UNL     1       2.323  16.458  22.912  0.00  0.00    +0.000 C 
ENDBRANCH  15  17
ENDBRANCH  14  15
ENDBRANCH  10  14
ENDBRANCH   1  11
BRANCH   2  19
ATOM     19  N   UNL     1       0.699   9.741  17.918  0.00  0.00    +0.000 N 
ATOM     20  C   UNL     1       1.576   8.913  18.621  0.00  0.00    +0.000 C 
ATOM     21  O   UNL     1       1.511   8.642  19.824  0.00  0.00    +0.000 OA
ATOM     22  H   UNL     1       0.776   9.679  16.900  0.00  0.00    +0.000 HD
BRANCH  20  23
ATOM     23  C   UNL     1       2.795   8.347  17.857  0.00  0.00    +0.000 C 
BRANCH  23  24
ATOM     24  N   UNL     1       3.039   6.932  17.940  0.00  0.00    +0.000 N 
ATOM     25  N   UNL     1       2.358   6.240  18.851  0.00  0.00    +0.000 NA
ATOM     26  C   UNL     1       2.760   4.967  18.845  0.00  0.00    +0.000 A 
ATOM     27  C   UNL     1       3.820   4.857  17.816  0.00  0.00    +0.000 A 
ATOM     28  C   UNL     1       3.941   6.148  17.316  0.00  0.00    +0.000 A 
ATOM     29  C   UNL     1       4.921   6.634  16.278  0.00  0.00    +0.000 C 
ATOM     30  C   UNL     1       5.521   5.489  15.462  0.00  0.00    +0.000 C 
ATOM     31  C   UNL     1       5.910   4.308  16.368  0.00  0.00    +0.000 C 
ATOM     32  C   UNL     1       4.696   3.778  17.177  0.00  0.00    +0.000 C 
BRANCH  26  33
ATOM     33  C   UNL     1       2.006   4.148  19.989  0.00  0.00    +0.000 C 
ATOM     34  F   UNL     1       2.654   2.949  20.179  0.00  0.00    +0.000 F 
ATOM     35  F   UNL     1       1.945   4.675  21.236  0.00  0.00    +0.000 F 
ATOM     36  F   UNL     1       0.748   3.821  19.621  0.00  0.00    +0.000 F 
ENDBRANCH  26  33
ENDBRANCH  23  24
ENDBRANCH  20  23
ENDBRANCH   2  19
TORSDOF 8
ENDMDL
MODEL 5
REMARK VINA RESULT:      -7.8      3.077      3.732
REMARK  Name = 
REMARK  10 active torsions:
REMARK  status: ('A' for Active; 'I' for Inactive)
REMARK    1  A    between atoms: C_1  and  N_2
REMARK    2  A    between atoms: N_2  and  C_3
REMARK    3  A    between atoms: N_2  and  C_4
REMARK    4  A    between atoms: C_4  and  C_5
REMARK    5  A    between atoms: C_5  and  N_6
REMARK    6  A    between atoms: C_7  and  C_9
REMARK    7  A    between atoms: C_10  and  N_11
REMARK    8  A    between atoms: C_12  and  C_14
REMARK    9  A    between atoms: C_14  and  N_15
REMARK   10  A    between atoms: C_17  and  C_18
REMARK                            x       y       z     vdW  Elec       q    Type
REMARK                         _______ _______ _______ _____ _____    ______ ____
ROOT
ATOM      1  C   UNL     1       0.622  11.672  19.923  0.00  0.00    +0.000 A 
ATOM      2  C   UNL     1       0.881  10.299  19.836  0.00  0.00    +0.000 A 
ATOM      3  S   UNL     1       0.246   9.412  21.149  0.00  0.00    +0.000 S 
ATOM      4  C   UNL     1      -0.481  10.759  21.844  0.00  0.00    +0.000 A 
ATOM      5  C   UNL     1      -0.204  11.921  21.141  0.00  0.00    +0.000 A 
ATOM      6  C   UNL     1      -0.760  13.233  21.652  0.00  0.00    +0.000 C 
ATOM      7  C   UNL     1      -1.143  13.159  23.148  0.00  0.00    +0.000 C 
ATOM      8  C   UNL     1      -2.005  11.928  23.454  0.00  0.00    +0.000 C 
ATOM      9  C   UNL     1      -1.260  10.631  23.121  0.00  0.00    +0.000 C 
ENDROOT
BRANCH   1  11
ATOM     10  N   UNL     1       2.157  13.557  19.269  0.00  0.00    +0.000 N 
ATOM     11  C   UNL     1       1.030  12.762  18.974  0.00  0.00    +0.000 C 
ATOM     12  O   UNL     1       0.334  13.012  17.996  0.00  0.00    +0.000 OA
ATOM     13  H   UNL     1       2.524  13.490  20.207  0.00  0.00    +0.000 HD
BRANCH  10  14
ATOM     14  C   UNL     1       2.446  14.766  18.465  0.00  0.00    +0.000 C 
BRANCH  14  15
ATOM     15  C   UNL     1       3.897  14.999  17.897  0.00  0.00    +0.000 C 
BRANCH  15  17
ATOM     16  C   UNL     1       6.435  14.626  17.775  0.00  0.00    +0.000 C 
ATOM     17  N   UNL     1       5.197  14.793  18.584  0.00  0.00    +0.000 NA
ATOM     18  C   UNL     1       5.430  15.892  19.546  0.00  0.00    +0.000 C 
ENDBRANCH  15  17
ENDBRANCH  14  15
ENDBRANCH  10  14
ENDBRANCH   1  11
BRANCH   2  19
ATOM     19  N   UNL     1       1.527   9.591  18.829  0.00  0.00    +0.000 N 
ATOM     20  C   UNL     1       2.124   8.331  18.890  0.00  0.00    +0.000 C 
ATOM     21  O   UNL     1       2.224   7.622  19.896  0.00  0.00    +0.000 OA
ATOM     22  H   UNL     1       1.344   9.932  17.882  0.00  0.00    +0.000 HD
BRANCH  20  23
ATOM     23  C   UNL     1       2.806   7.798  17.608  0.00  0.00    +0.000 C 
BRANCH  23  24
ATOM     24  N   UNL     1       3.548   6.570  17.706  0.00  0.00    +0.000 N 
ATOM     25  N   UNL     1       4.874   6.639  17.605  0.00  0.00    +0.000 NA
ATOM     26  C   UNL     1       5.395   5.411  17.640  0.00  0.00    +0.000 A 
ATOM     27  C   UNL     1       4.260   4.467  17.768  0.00  0.00    +0.000 A 
ATOM     28  C   UNL     1       3.138   5.288  17.781  0.00  0.00    +0.000 A 
ATOM     29  C   UNL     1       1.694   4.855  17.834  0.00  0.00    +0.000 C 
ATOM     30  C   UNL     1       1.536   3.414  18.321  0.00  0.00    +0.000 C 
ATOM     31  C   UNL     1       2.574   2.490  17.662  0.00  0.00    +0.000 C 
ATOM     32  C   UNL     1       4.025   2.965  17.936  0.00  0.00    +0.000 C 
BRANCH  26  33
ATOM     33  C   UNL     1       6.977   5.480  17.439  0.00  0.00    +0.000 C 
ATOM     34  F   UNL     1       7.470   6.545  18.158  0.00  0.00    +0.000 F 
ATOM     35  F   UNL     1       7.734   4.438  17.859  0.00  0.00    +0.000 F 
ATOM     36  F   UNL     1       7.305   5.733  16.153  0.00  0.00    +0.000 F 
ENDBRANCH  26  33
ENDBRANCH  23  24
ENDBRANCH  20  23
ENDBRANCH   2  19
TORSDOF 8
ENDMDL
MODEL 6
REMARK VINA RESULT:      -7.8      3.551      9.063
REMARK  Name = 
REMARK  10 active torsions:
REMARK  status: ('A' for Active; 'I' for Inactive)
REMARK    1  A    between atoms: C_1  and  N_2
REMARK    2  A    between atoms: N_2  and  C_3
REMARK    3  A    between atoms: N_2  and  C_4
REMARK    4  A    between atoms: C_4  and  C_5
REMARK    5  A    between atoms: C_5  and  N_6
REMARK    6  A    between atoms: C_7  and  C_9
REMARK    7  A    between atoms: C_10  and  N_11
REMARK    8  A    between atoms: C_12  and  C_14
REMARK    9  A    between atoms: C_14  and  N_15
REMARK   10  A    between atoms: C_17  and  C_18
REMARK                            x       y       z     vdW  Elec       q    Type
REMARK                         _______ _______ _______ _____ _____    ______ ____
ROOT
ATOM      1  C   UNL     1       3.128   5.978  18.719  0.00  0.00    +0.000 A 
ATOM      2  C   UNL     1       2.200   6.797  19.375  0.00  0.00    +0.000 A 
ATOM      3  S   UNL     1       1.453   6.031  20.705  0.00  0.00    +0.000 S 
ATOM      4  C   UNL     1       2.370   4.631  20.551  0.00  0.00    +0.000 A 
ATOM      5  C   UNL     1       3.213   4.679  19.451  0.00  0.00    +0.000 A 
ATOM      6  C   UNL     1       4.090   3.483  19.150  0.00  0.00    +0.000 C 
ATOM      7  C   UNL     1       3.564   2.194  19.822  0.00  0.00    +0.000 C 
ATOM      8  C   UNL     1       3.254   2.411  21.308  0.00  0.00    +0.000 C 
ATOM      9  C   UNL     1       2.176   3.485  21.500  0.00  0.00    +0.000 C 
ENDROOT
BRANCH   1  11
ATOM     10  N   UNL     1       4.403   5.246  16.676  0.00  0.00    +0.000 N 
ATOM     11  C   UNL     1       3.963   6.293  17.512  0.00  0.00    +0.000 C 
ATOM     12  O   UNL     1       4.332   7.445  17.309  0.00  0.00    +0.000 OA
ATOM     13  H   UNL     1       4.304   4.308  17.036  0.00  0.00    +0.000 HD
BRANCH  10  14
ATOM     14  C   UNL     1       5.399   5.510  15.612  0.00  0.00    +0.000 C 
BRANCH  14  15
ATOM     15  C   UNL     1       6.932   5.308  15.910  0.00  0.00    +0.000 C 
BRANCH  15  17
ATOM     16  C   UNL     1       7.563   7.227  17.495  0.00  0.00    +0.000 C 
ATOM     17  N   UNL     1       7.720   5.812  17.063  0.00  0.00    +0.000 NA
ATOM     18  C   UNL     1       7.483   4.950  18.241  0.00  0.00    +0.000 C 
ENDBRANCH  15  17
ENDBRANCH  14  15
ENDBRANCH  10  14
ENDBRANCH   1  11
BRANCH   2  19
ATOM     19  N   UNL     1       1.860   8.119  19.114  0.00  0.00    +0.000 N 
ATOM     20  C   UNL     1       1.290   9.061  19.971  0.00  0.00    +0.000 C 
ATOM     21  O   UNL     1       0.935   8.862  21.136  0.00  0.00    +0.000 OA
ATOM     22  H   UNL     1       2.286   8.510  18.270  0.00  0.00    +0.000 HD
BRANCH  20  23
ATOM     23  C   UNL     1       0.987  10.464  19.394  0.00  0.00    +0.000 C 
BRANCH  23  24
ATOM     24  N   UNL     1      -0.388  10.799  19.137  0.00  0.00    +0.000 N 
ATOM     25  N   UNL     1      -0.920  10.390  17.987  0.00  0.00    +0.000 NA
ATOM     26  C   UNL     1      -2.168  10.850  17.877  0.00  0.00    +0.000 A 
ATOM     27  C   UNL     1      -2.441  11.644  19.097  0.00  0.00    +0.000 A 
ATOM     28  C   UNL     1      -1.256  11.572  19.820  0.00  0.00    +0.000 A 
ATOM     29  C   UNL     1      -0.946  12.253  21.129  0.00  0.00    +0.000 C 
ATOM     30  C   UNL     1      -2.208  12.709  21.863  0.00  0.00    +0.000 C 
ATOM     31  C   UNL     1      -3.206  13.364  20.893  0.00  0.00    +0.000 C 
ATOM     32  C   UNL     1      -3.603  12.405  19.740  0.00  0.00    +0.000 C 
BRANCH  26  33
ATOM     33  C   UNL     1      -2.785  10.431  16.465  0.00  0.00    +0.000 C 
ATOM     34  F   UNL     1      -2.428  11.374  15.528  0.00  0.00    +0.000 F 
ATOM     35  F   UNL     1      -2.393   9.263  15.903  0.00  0.00    +0.000 F 
ATOM     36  F   UNL     1      -4.135  10.443  16.488  0.00  0.00    +0.000 F 
ENDBRANCH  26  33
ENDBRANCH  23  24
ENDBRANCH  20  23
ENDBRANCH   2  19
TORSDOF 8
ENDMDL
MODEL 7
REMARK VINA RESULT:      -7.8      3.024      3.683
REMARK  Name = 
REMARK  10 active torsions:
REMARK  status: ('A' for Active; 'I' for Inactive)
REMARK    1  A    between atoms: C_1  and  N_2
REMARK    2  A    between atoms: N_2  and  C_3
REMARK    3  A    between atoms: N_2  and  C_4
REMARK    4  A    between atoms: C_4  and  C_5
REMARK    5  A    between atoms: C_5  and  N_6
REMARK    6  A    between atoms: C_7  and  C_9
REMARK    7  A    between atoms: C_10  and  N_11
REMARK    8  A    between atoms: C_12  and  C_14
REMARK    9  A    between atoms: C_14  and  N_15
REMARK   10  A    between atoms: C_17  and  C_18
REMARK                            x       y       z     vdW  Elec       q    Type
REMARK                         _______ _______ _______ _____ _____    ______ ____
ROOT
ATOM      1  C   UNL     1       0.619  11.580  19.892  0.00  0.00    +0.000 A 
ATOM      2  C   UNL     1       0.788  10.191  19.831  0.00  0.00    +0.000 A 
ATOM      3  S   UNL     1       0.087   9.372  21.156  0.00  0.00    +0.000 S 
ATOM      4  C   UNL     1      -0.552  10.777  21.822  0.00  0.00    +0.000 A 
ATOM      5  C   UNL     1      -0.195  11.905  21.101  0.00  0.00    +0.000 A 
ATOM      6  C   UNL     1      -0.665  13.261  21.584  0.00  0.00    +0.000 C 
ATOM      7  C   UNL     1      -1.061  13.240  23.078  0.00  0.00    +0.000 C 
ATOM      8  C   UNL     1      -2.004  12.074  23.401  0.00  0.00    +0.000 C 
ATOM      9  C   UNL     1      -1.345  10.724  23.096  0.00  0.00    +0.000 C 
ENDROOT
BRANCH   1  11
ATOM     10  N   UNL     1       2.472  12.963  18.898  0.00  0.00    +0.000 N 
ATOM     11  C   UNL     1       1.105  12.623  18.927  0.00  0.00    +0.000 C 
ATOM     12  O   UNL     1       0.299  13.234  18.233  0.00  0.00    +0.000 OA
ATOM     13  H   UNL     1       3.036  12.634  19.668  0.00  0.00    +0.000 HD
BRANCH  10  14
ATOM     14  C   UNL     1       2.933  14.132  18.114  0.00  0.00    +0.000 C 
BRANCH  14  15
ATOM     15  C   UNL     1       3.563  15.371  18.854  0.00  0.00    +0.000 C 
BRANCH  15  17
ATOM     16  C   UNL     1       1.900  15.901  20.738  0.00  0.00    +0.000 C 
ATOM     17  N   UNL     1       3.299  15.850  20.235  0.00  0.00    +0.000 NA
ATOM     18  C   UNL     1       4.098  15.060  21.195  0.00  0.00    +0.000 C 
ENDBRANCH  15  17
ENDBRANCH  14  15
ENDBRANCH  10  14
ENDBRANCH   1  11
BRANCH   2  19
ATOM     19  N   UNL     1       1.391   9.424  18.842  0.00  0.00    +0.000 N 
ATOM     20  C   UNL     1       2.049   8.199  18.964  0.00  0.00    +0.000 C 
ATOM     21  O   UNL     1       2.254   7.587  20.016  0.00  0.00    +0.000 OA
ATOM     22  H   UNL     1       1.123   9.672  17.887  0.00  0.00    +0.000 HD
BRANCH  20  23
ATOM     23  C   UNL     1       2.659   7.583  17.683  0.00  0.00    +0.000 C 
BRANCH  23  24
ATOM     24  N   UNL     1       3.453   6.392  17.827  0.00  0.00    +0.000 N 
ATOM     25  N   UNL     1       4.778   6.527  17.820  0.00  0.00    +0.000 NA
ATOM     26  C   UNL     1       5.355   5.325  17.884  0.00  0.00    +0.000 A 
ATOM     27  C   UNL     1       4.262   4.326  17.927  0.00  0.00    +0.000 A 
ATOM     28  C   UNL     1       3.102   5.091  17.865  0.00  0.00    +0.000 A 
ATOM     29  C   UNL     1       1.682   4.587  17.813  0.00  0.00    +0.000 C 
ATOM     30  C   UNL     1       1.561   3.136  18.280  0.00  0.00    +0.000 C 
ATOM     31  C   UNL     1       2.687   2.269  17.691  0.00  0.00    +0.000 C 
ATOM     32  C   UNL     1       4.091   2.813  18.069  0.00  0.00    +0.000 C 
BRANCH  26  33
ATOM     33  C   UNL     1       6.942   5.474  17.796  0.00  0.00    +0.000 C 
ATOM     34  F   UNL     1       7.507   4.219  17.809  0.00  0.00    +0.000 F 
ATOM     35  F   UNL     1       7.482   6.053  16.696  0.00  0.00    +0.000 F 
ATOM     36  F   UNL     1       7.444   6.105  18.879  0.00  0.00    +0.000 F 
ENDBRANCH  26  33
ENDBRANCH  23  24
ENDBRANCH  20  23
ENDBRANCH   2  19
TORSDOF 8
ENDMDL
MODEL 8
REMARK VINA RESULT:      -7.8      2.494      4.309
REMARK  Name = 
REMARK  10 active torsions:
REMARK  status: ('A' for Active; 'I' for Inactive)
REMARK    1  A    between atoms: C_1  and  N_2
REMARK    2  A    between atoms: N_2  and  C_3
REMARK    3  A    between atoms: N_2  and  C_4
REMARK    4  A    between atoms: C_4  and  C_5
REMARK    5  A    between atoms: C_5  and  N_6
REMARK    6  A    between atoms: C_7  and  C_9
REMARK    7  A    between atoms: C_10  and  N_11
REMARK    8  A    between atoms: C_12  and  C_14
REMARK    9  A    between atoms: C_14  and  N_15
REMARK   10  A    between atoms: C_17  and  C_18
REMARK                            x       y       z     vdW  Elec       q    Type
REMARK                         _______ _______ _______ _____ _____    ______ ____
ROOT
ATOM      1  C   UNL     1      -1.205  11.185  19.168  0.00  0.00    +0.000 A 
ATOM      2  C   UNL     1       0.147  10.842  19.302  0.00  0.00    +0.000 A 
ATOM      3  S   UNL     1       0.876  11.525  20.687  0.00  0.00    +0.000 S 
ATOM      4  C   UNL     1      -0.555  12.219  21.229  0.00  0.00    +0.000 A 
ATOM      5  C   UNL     1      -1.602  12.013  20.345  0.00  0.00    +0.000 A 
ATOM      6  C   UNL     1      -2.960  12.600  20.669  0.00  0.00    +0.000 C 
ATOM      7  C   UNL     1      -2.863  13.756  21.690  0.00  0.00    +0.000 C 
ATOM      8  C   UNL     1      -2.017  13.370  22.910  0.00  0.00    +0.000 C 
ATOM      9  C   UNL     1      -0.582  13.016  22.501  0.00  0.00    +0.000 C 
ENDROOT
BRANCH   1  11
ATOM     10  N   UNL     1      -2.878  11.790  17.387  0.00  0.00    +0.000 N 
ATOM     11  C   UNL     1      -2.164  10.792  18.082  0.00  0.00    +0.000 C 
ATOM     12  O   UNL     1      -2.388   9.605  17.865  0.00  0.00    +0.000 OA
ATOM     13  H   UNL     1      -2.863  12.717  17.786  0.00  0.00    +0.000 HD
BRANCH  10  14
ATOM     14  C   UNL     1      -3.980  11.416  16.470  0.00  0.00    +0.000 C 
BRANCH  14  15
ATOM     15  C   UNL     1      -5.474  11.652  16.907  0.00  0.00    +0.000 C 
BRANCH  15  17
ATOM     16  C   UNL     1      -6.681  13.920  16.872  0.00  0.00    +0.000 C 
ATOM     17  N   UNL     1      -6.047  12.812  17.637  0.00  0.00    +0.000 NA
ATOM     18  C   UNL     1      -7.027  12.334  18.637  0.00  0.00    +0.000 C 
ENDBRANCH  15  17
ENDBRANCH  14  15
ENDBRANCH  10  14
ENDBRANCH   1  11
BRANCH   2  19
ATOM     19  N   UNL     1       0.924  10.012  18.505  0.00  0.00    +0.000 N 
ATOM     20  C   UNL     1       1.642   8.871  18.867  0.00  0.00    +0.000 C 
ATOM     21  O   UNL     1       1.750   8.414  20.009  0.00  0.00    +0.000 OA
ATOM     22  H   UNL     1       0.767  10.116  17.499  0.00  0.00    +0.000 HD
BRANCH  20  23
ATOM     23  C   UNL     1       2.454   8.154  17.763  0.00  0.00    +0.000 C 
BRANCH  23  24
ATOM     24  N   UNL     1       2.887   6.807  18.020  0.00  0.00    +0.000 N 
ATOM     25  N   UNL     1       2.008   5.968  18.565  0.00  0.00    +0.000 NA
ATOM     26  C   UNL     1       2.593   4.793  18.805  0.00  0.00    +0.000 A 
ATOM     27  C   UNL     1       4.003   4.918  18.366  0.00  0.00    +0.000 A 
ATOM     28  C   UNL     1       4.098   6.226  17.906  0.00  0.00    +0.000 A 
ATOM     29  C   UNL     1       5.334   6.923  17.393  0.00  0.00    +0.000 C 
ATOM     30  C   UNL     1       6.433   5.938  16.991  0.00  0.00    +0.000 C 
ATOM     31  C   UNL     1       6.581   4.818  18.035  0.00  0.00    +0.000 C 
ATOM     32  C   UNL     1       5.252   4.044  18.242  0.00  0.00    +0.000 C 
BRANCH  26  33
ATOM     33  C   UNL     1       1.568   3.808  19.532  0.00  0.00    +0.000 C 
ATOM     34  F   UNL     1       0.746   4.548  20.351  0.00  0.00    +0.000 F 
ATOM     35  F   UNL     1       0.701   3.095  18.774  0.00  0.00    +0.000 F 
ATOM     36  F   UNL     1       2.205   2.943  20.350  0.00  0.00    +0.000 F 
ENDBRANCH  26  33
ENDBRANCH  23  24
ENDBRANCH  20  23
ENDBRANCH   2  19
TORSDOF 8
ENDMDL
MODEL 9
REMARK VINA RESULT:      -7.8      2.292      2.802
REMARK  Name = 
REMARK  10 active torsions:
REMARK  status: ('A' for Active; 'I' for Inactive)
REMARK    1  A    between atoms: C_1  and  N_2
REMARK    2  A    between atoms: N_2  and  C_3
REMARK    3  A    between atoms: N_2  and  C_4
REMARK    4  A    between atoms: C_4  and  C_5
REMARK    5  A    between atoms: C_5  and  N_6
REMARK    6  A    between atoms: C_7  and  C_9
REMARK    7  A    between atoms: C_10  and  N_11
REMARK    8  A    between atoms: C_12  and  C_14
REMARK    9  A    between atoms: C_14  and  N_15
REMARK   10  A    between atoms: C_17  and  C_18
REMARK                            x       y       z     vdW  Elec       q    Type
REMARK                         _______ _______ _______ _____ _____    ______ ____
ROOT
ATOM      1  C   UNL     1      -1.425  11.078  18.829  0.00  0.00    +0.000 A 
ATOM      2  C   UNL     1      -0.947  10.234  17.819  0.00  0.00    +0.000 A 
ATOM      3  S   UNL     1      -2.114   9.896  16.620  0.00  0.00    +0.000 S 
ATOM      4  C   UNL     1      -3.267  10.908  17.306  0.00  0.00    +0.000 A 
ATOM      5  C   UNL     1      -2.825  11.472  18.493  0.00  0.00    +0.000 A 
ATOM      6  C   UNL     1      -3.756  12.389  19.257  0.00  0.00    +0.000 C 
ATOM      7  C   UNL     1      -5.235  12.177  18.862  0.00  0.00    +0.000 C 
ATOM      8  C   UNL     1      -5.424  12.185  17.339  0.00  0.00    +0.000 C 
ATOM      9  C   UNL     1      -4.619  11.063  16.673  0.00  0.00    +0.000 C 
ENDROOT
BRANCH   1  11
ATOM     10  N   UNL     1      -1.068  11.099  21.320  0.00  0.00    +0.000 N 
ATOM     11  C   UNL     1      -0.703  11.580  20.046  0.00  0.00    +0.000 C 
ATOM     12  O   UNL     1       0.136  12.467  19.935  0.00  0.00    +0.000 OA
ATOM     13  H   UNL     1      -1.935  10.586  21.379  0.00  0.00    +0.000 HD
BRANCH  10  14
ATOM     14  C   UNL     1      -0.522  11.736  22.541  0.00  0.00    +0.000 C 
BRANCH  14  15
ATOM     15  C   UNL     1      -1.199  13.038  23.113  0.00  0.00    +0.000 C 
BRANCH  15  17
ATOM     16  C   UNL     1      -3.452  13.880  24.014  0.00  0.00    +0.000 C 
ATOM     17  N   UNL     1      -2.570  13.548  22.862  0.00  0.00    +0.000 NA
ATOM     18  C   UNL     1      -2.504  14.738  21.985  0.00  0.00    +0.000 C 
ENDBRANCH  15  17
ENDBRANCH  14  15
ENDBRANCH  10  14
ENDBRANCH   1  11
BRANCH   2  19
ATOM     19  N   UNL     1       0.324   9.697  17.654  0.00  0.00    +0.000 N 
ATOM     20  C   UNL     1       1.183   9.167  18.619  0.00  0.00    +0.000 C 
ATOM     21  O   UNL     1       0.970   9.125  19.834  0.00  0.00    +0.000 OA
ATOM     22  H   UNL     1       0.563   9.453  16.689  0.00  0.00    +0.000 HD
BRANCH  20  23
ATOM     23  C   UNL     1       2.567   8.664  18.148  0.00  0.00    +0.000 C 
BRANCH  23  24
ATOM     24  N   UNL     1       2.785   7.242  18.114  0.00  0.00    +0.000 N 
ATOM     25  N   UNL     1       2.059   6.485  18.934  0.00  0.00    +0.000 NA
ATOM     26  C   UNL     1       2.441   5.210  18.829  0.00  0.00    +0.000 A 
ATOM     27  C   UNL     1       3.539   5.172  17.834  0.00  0.00    +0.000 A 
ATOM     28  C   UNL     1       3.698   6.500  17.456  0.00  0.00    +0.000 A 
ATOM     29  C   UNL     1       4.726   7.058  16.503  0.00  0.00    +0.000 C 
ATOM     30  C   UNL     1       5.339   5.978  15.610  0.00  0.00    +0.000 C 
ATOM     31  C   UNL     1       5.674   4.714  16.421  0.00  0.00    +0.000 C 
ATOM     32  C   UNL     1       4.422   4.138  17.134  0.00  0.00    +0.000 C 
BRANCH  26  33
ATOM     33  C   UNL     1       1.631   4.308  19.867  0.00  0.00    +0.000 C 
ATOM     34  F   UNL     1       2.519   3.505  20.545  0.00  0.00    +0.000 F 
ATOM     35  F   UNL     1       0.936   4.917  20.857  0.00  0.00    +0.000 F 
ATOM     36  F   UNL     1       0.789   3.459  19.237  0.00  0.00    +0.000 F 
ENDBRANCH  26  33
ENDBRANCH  23  24
ENDBRANCH  20  23
ENDBRANCH   2  19
TORSDOF 8
ENDMDL
