MODEL 1
REMARK VINA RESULT:      -8.3      0.000      0.000
REMARK  Name = 
REMARK  6 active torsions:
REMARK  status: ('A' for Active; 'I' for Inactive)
REMARK    1  A    between atoms: C_1  and  C_2
REMARK    2  A    between atoms: C_2  and  C_3
REMARK    3  A    between atoms: C_3  and  N_4
REMARK    4  A    between atoms: C_12  and  C_13
REMARK    5  A    between atoms: N_14  and  O_15
REMARK    6  A    between atoms: N_16  and  C_17
REMARK                            x       y       z     vdW  Elec       q    Type
REMARK                         _______ _______ _______ _____ _____    ______ ____
ROOT
ATOM      1  N   UNL     1       6.750   4.030  18.169  0.00  0.00    +0.000 N 
ATOM      2  C   UNL     1       5.775   4.189  19.126  0.00  0.00    +0.000 C 
ATOM      3  O   UNL     1       5.615   5.221  19.766  0.00  0.00    +0.000 OA
ATOM      4  N   UNL     1       5.050   3.029  19.312  0.00  0.00    +0.000 N 
ATOM      5  C   UNL     1       4.000   3.054  20.216  0.00  0.00    +0.000 A 
ATOM      6  N   UNL     1       3.913   2.132  21.176  0.00  0.00    +0.000 NA
ATOM      7  O   UNL     1       2.854   2.545  21.974  0.00  0.00    +0.000 OA
ATOM      8  N   UNL     1       2.230   3.672  21.451  0.00  0.00    +0.000 NA
ATOM      9  C   UNL     1       2.898   3.946  20.318  0.00  0.00    +0.000 A 
ATOM     10  H   UNL     1       6.601   3.301  17.487  0.00  0.00    +0.000 HD
ATOM     11  H   UNL     1       5.619   2.197  19.377  0.00  0.00    +0.000 HD
ENDROOT
BRANCH   9  12
ATOM     12  C   UNL     1       2.407   4.949  19.367  0.00  0.00    +0.000 C 
ATOM     13  N   UNL     1       1.606   4.507  18.444  0.00  0.00    +0.000 NA
ATOM     14  N   UNL     1       2.878   6.220  19.647  0.00  0.00    +0.000 N 
ATOM     15  H   UNL     1       3.672   6.286  20.274  0.00  0.00    +0.000 HD
BRANCH  14  16
ATOM     16  C   UNL     1       2.238   7.450  19.389  0.00  0.00    +0.000 A 
ATOM     17  C   UNL     1       2.424   8.157  18.188  0.00  0.00    +0.000 A 
ATOM     18  C   UNL     1       1.862   9.426  18.012  0.00  0.00    +0.000 A 
ATOM     19  C   UNL     1       1.114   9.995  19.034  0.00  0.00    +0.000 A 
ATOM     20  F   UNL     1       0.622  11.232  18.862  0.00  0.00    +0.000 F 
ATOM     21  C   UNL     1       0.894   9.298  20.215  0.00  0.00    +0.000 A 
ATOM     22 BR   UNL     1      -0.112  10.071  21.618  0.00  0.00    +0.000 Br
ATOM     23  C   UNL     1       1.443   8.018  20.388  0.00  0.00    +0.000 A 
ENDBRANCH  14  16
BRANCH  13  24
ATOM     24  O   UNL     1       1.257   5.503  17.523  0.00  0.00    +0.000 OA
ATOM     25  H   UNL     1       1.731   5.232  16.718  0.00  0.00    +0.000 HD
ENDBRANCH  13  24
ENDBRANCH   9  12
BRANCH   1  26
ATOM     26  C   UNL     1       7.630   5.127  17.807  0.00  0.00    +0.000 C 
BRANCH  26  28
ATOM     27  C   UNL     1       7.493   7.632  17.439  0.00  0.00    +0.000 C 
ATOM     28  C   UNL     1       6.878   6.273  17.133  0.00  0.00    +0.000 C 
ENDBRANCH  26  28
ENDBRANCH   1  26
TORSDOF 5
ENDMDL
MODEL 2
REMARK VINA RESULT:      -7.8      4.950      7.352
REMARK  Name = 
REMARK  6 active torsions:
REMARK  status: ('A' for Active; 'I' for Inactive)
REMARK    1  A    between atoms: C_1  and  C_2
REMARK    2  A    between atoms: C_2  and  C_3
REMARK    3  A    between atoms: C_3  and  N_4
REMARK    4  A    between atoms: C_12  and  C_13
REMARK    5  A    between atoms: N_14  and  O_15
REMARK    6  A    between atoms: N_16  and  C_17
REMARK                            x       y       z     vdW  Elec       q    Type
REMARK                         _______ _______ _______ _____ _____    ______ ____
ROOT
ATOM      1  N   UNL     1       2.607   4.503  19.188  0.00  0.00    +0.000 N 
ATOM      2  C   UNL     1       3.943   4.335  18.906  0.00  0.00    +0.000 C 
ATOM      3  O   UNL     1       4.381   3.424  18.213  0.00  0.00    +0.000 OA
ATOM      4  N   UNL     1       4.721   5.277  19.546  0.00  0.00    +0.000 N 
ATOM      5  C   UNL     1       6.088   5.260  19.318  0.00  0.00    +0.000 A 
ATOM      6  N   UNL     1       6.944   5.248  20.341  0.00  0.00    +0.000 NA
ATOM      7  O   UNL     1       8.194   5.076  19.760  0.00  0.00    +0.000 OA
ATOM      8  N   UNL     1       8.115   5.074  18.373  0.00  0.00    +0.000 NA
ATOM      9  C   UNL     1       6.814   5.262  18.096  0.00  0.00    +0.000 A 
ATOM     10  H   UNL     1       2.316   5.427  19.471  0.00  0.00    +0.000 HD
ATOM     11  H   UNL     1       4.476   5.419  20.516  0.00  0.00    +0.000 HD
ENDROOT
BRANCH   9  12
ATOM     12  C   UNL     1       6.356   5.527  16.729  0.00  0.00    +0.000 C 
ATOM     13  N   UNL     1       5.917   6.729  16.503  0.00  0.00    +0.000 NA
ATOM     14  N   UNL     1       6.499   4.429  15.899  0.00  0.00    +0.000 N 
ATOM     15  H   UNL     1       6.645   3.531  16.349  0.00  0.00    +0.000 HD
BRANCH  14  16
ATOM     16  C   UNL     1       6.735   4.426  14.508  0.00  0.00    +0.000 A 
ATOM     17  C   UNL     1       7.769   5.175  13.920  0.00  0.00    +0.000 A 
ATOM     18  C   UNL     1       7.905   5.237  12.529  0.00  0.00    +0.000 A 
ATOM     19  C   UNL     1       7.007   4.553  11.720  0.00  0.00    +0.000 A 
ATOM     20  F   UNL     1       7.126   4.662  10.387  0.00  0.00    +0.000 F 
ATOM     21  C   UNL     1       5.997   3.783  12.284  0.00  0.00    +0.000 A 
ATOM     22 BR   UNL     1       4.761   2.861  11.190  0.00  0.00    +0.000 Br
ATOM     23  C   UNL     1       5.869   3.707  13.680  0.00  0.00    +0.000 A 
ENDBRANCH  14  16
BRANCH  13  24
ATOM     24  O   UNL     1       5.412   6.875  15.205  0.00  0.00    +0.000 OA
ATOM     25  H   UNL     1       4.611   6.322  15.218  0.00  0.00    +0.000 HD
ENDBRANCH  13  24
ENDBRANCH   9  12
BRANCH   1  26
ATOM     26  C   UNL     1       1.604   3.623  18.613  0.00  0.00    +0.000 C 
BRANCH  26  28
ATOM     27  C   UNL     1       1.279   3.192  21.090  0.00  0.00    +0.000 C 
ATOM     28  C   UNL     1       0.884   2.795  19.674  0.00  0.00    +0.000 C 
ENDBRANCH  26  28
ENDBRANCH   1  26
TORSDOF 5
ENDMDL
MODEL 3
REMARK VINA RESULT:      -7.7      0.989      1.191
REMARK  Name = 
REMARK  6 active torsions:
REMARK  status: ('A' for Active; 'I' for Inactive)
REMARK    1  A    between atoms: C_1  and  C_2
REMARK    2  A    between atoms: C_2  and  C_3
REMARK    3  A    between atoms: C_3  and  N_4
REMARK    4  A    between atoms: C_12  and  C_13
REMARK    5  A    between atoms: N_14  and  O_15
REMARK    6  A    between atoms: N_16  and  C_17
REMARK                            x       y       z     vdW  Elec       q    Type
REMARK                         _______ _______ _______ _____ _____    ______ ____
ROOT
ATOM      1  N   UNL     1       6.435   3.895  17.264  0.00  0.00    +0.000 N 
ATOM      2  C   UNL     1       5.677   4.063  18.400  0.00  0.00    +0.000 C 
ATOM      3  O   UNL     1       5.694   5.081  19.081  0.00  0.00    +0.000 OA
ATOM      4  N   UNL     1       4.952   2.929  18.700  0.00  0.00    +0.000 N 
ATOM      5  C   UNL     1       4.103   2.968  19.795  0.00  0.00    +0.000 A 
ATOM      6  N   UNL     1       4.167   2.022  20.733  0.00  0.00    +0.000 NA
ATOM      7  O   UNL     1       3.306   2.452  21.736  0.00  0.00    +0.000 OA
ATOM      8  N   UNL     1       2.643   3.618  21.372  0.00  0.00    +0.000 NA
ATOM      9  C   UNL     1       3.085   3.900  20.134  0.00  0.00    +0.000 A 
ATOM     10  H   UNL     1       6.121   3.193  16.609  0.00  0.00    +0.000 HD
ATOM     11  H   UNL     1       5.484   2.073  18.633  0.00  0.00    +0.000 HD
ENDROOT
BRANCH   9  12
ATOM     12  C   UNL     1       2.461   4.950  19.323  0.00  0.00    +0.000 C 
ATOM     13  N   UNL     1       1.612   4.542  18.428  0.00  0.00    +0.000 NA
ATOM     14  N   UNL     1       2.882   6.218  19.682  0.00  0.00    +0.000 N 
ATOM     15  H   UNL     1       3.721   6.279  20.249  0.00  0.00    +0.000 HD
BRANCH  14  16
ATOM     16  C   UNL     1       2.154   7.424  19.591  0.00  0.00    +0.000 A 
ATOM     17  C   UNL     1       2.226   8.261  18.464  0.00  0.00    +0.000 A 
ATOM     18  C   UNL     1       1.579   9.502  18.453  0.00  0.00    +0.000 A 
ATOM     19  C   UNL     1       0.861   9.911  19.568  0.00  0.00    +0.000 A 
ATOM     20  F   UNL     1       0.286  11.125  19.556  0.00  0.00    +0.000 F 
ATOM     21  C   UNL     1       0.754   9.084  20.679  0.00  0.00    +0.000 A 
ATOM     22 BR   UNL     1      -0.211   9.641  22.208  0.00  0.00    +0.000 Br
ATOM     23  C   UNL     1       1.389   7.833  20.686  0.00  0.00    +0.000 A 
ENDBRANCH  14  16
BRANCH  13  24
ATOM     24  O   UNL     1       1.133   5.591  17.633  0.00  0.00    +0.000 OA
ATOM     25  H   UNL     1       0.247   5.758  18.002  0.00  0.00    +0.000 HD
ENDBRANCH  13  24
ENDBRANCH   9  12
BRANCH   1  26
ATOM     26  C   UNL     1       7.274   4.966  16.758  0.00  0.00    +0.000 C 
BRANCH  26  28
ATOM     27  C   UNL     1       6.250   4.082  14.613  0.00  0.00    +0.000 C 
ATOM     28  C   UNL     1       7.137   5.145  15.247  0.00  0.00    +0.000 C 
ENDBRANCH  26  28
ENDBRANCH   1  26
TORSDOF 5
ENDMDL
MODEL 4
REMARK VINA RESULT:      -7.6      4.174      5.981
REMARK  Name = 
REMARK  6 active torsions:
REMARK  status: ('A' for Active; 'I' for Inactive)
REMARK    1  A    between atoms: C_1  and  C_2
REMARK    2  A    between atoms: C_2  and  C_3
REMARK    3  A    between atoms: C_3  and  N_4
REMARK    4  A    between atoms: C_12  and  C_13
REMARK    5  A    between atoms: N_14  and  O_15
REMARK    6  A    between atoms: N_16  and  C_17
REMARK                            x       y       z     vdW  Elec       q    Type
REMARK                         _______ _______ _______ _____ _____    ______ ____
ROOT
ATOM      1  N   UNL     1       6.301   3.793  14.467  0.00  0.00    +0.000 N 
ATOM      2  C   UNL     1       6.206   5.044  15.032  0.00  0.00    +0.000 C 
ATOM      3  O   UNL     1       5.387   5.885  14.682  0.00  0.00    +0.000 OA
ATOM      4  N   UNL     1       7.180   5.245  15.988  0.00  0.00    +0.000 N 
ATOM      5  C   UNL     1       7.179   6.447  16.678  0.00  0.00    +0.000 A 
ATOM      6  N   UNL     1       8.291   7.179  16.761  0.00  0.00    +0.000 NA
ATOM      7  O   UNL     1       7.896   8.363  17.371  0.00  0.00    +0.000 OA
ATOM      8  N   UNL     1       6.558   8.321  17.747  0.00  0.00    +0.000 NA
ATOM      9  C   UNL     1       6.131   7.101  17.381  0.00  0.00    +0.000 A 
ATOM     10  H   UNL     1       6.756   3.080  15.018  0.00  0.00    +0.000 HD
ATOM     11  H   UNL     1       8.101   4.944  15.704  0.00  0.00    +0.000 HD
ENDROOT
BRANCH   9  12
ATOM     12  C   UNL     1       4.818   6.596  17.797  0.00  0.00    +0.000 C 
ATOM     13  N   UNL     1       3.799   7.326  17.456  0.00  0.00    +0.000 NA
ATOM     14  N   UNL     1       4.903   5.392  18.473  0.00  0.00    +0.000 N 
ATOM     15  H   UNL     1       5.817   5.128  18.825  0.00  0.00    +0.000 HD
BRANCH  14  16
ATOM     16  C   UNL     1       3.947   4.356  18.509  0.00  0.00    +0.000 A 
ATOM     17  C   UNL     1       3.514   3.692  17.347  0.00  0.00    +0.000 A 
ATOM     18  C   UNL     1       2.483   2.748  17.406  0.00  0.00    +0.000 A 
ATOM     19  C   UNL     1       1.881   2.463  18.624  0.00  0.00    +0.000 A 
ATOM     20  F   UNL     1       0.863   1.588  18.651  0.00  0.00    +0.000 F 
ATOM     21  C   UNL     1       2.316   3.087  19.786  0.00  0.00    +0.000 A 
ATOM     22 BR   UNL     1       1.490   2.716  21.447  0.00  0.00    +0.000 Br
ATOM     23  C   UNL     1       3.360   4.023  19.732  0.00  0.00    +0.000 A 
ENDBRANCH  14  16
BRANCH  13  24
ATOM     24  O   UNL     1       2.594   6.829  17.969  0.00  0.00    +0.000 OA
ATOM     25  H   UNL     1       2.117   7.636  18.230  0.00  0.00    +0.000 HD
ENDBRANCH  13  24
ENDBRANCH   9  12
BRANCH   1  26
ATOM     26  C   UNL     1       5.369   3.363  13.439  0.00  0.00    +0.000 C 
BRANCH  26  28
ATOM     27  C   UNL     1       5.777   1.899  11.409  0.00  0.00    +0.000 C 
ATOM     28  C   UNL     1       6.032   3.248  12.068  0.00  0.00    +0.000 C 
ENDBRANCH  26  28
ENDBRANCH   1  26
TORSDOF 5
ENDMDL
MODEL 5
REMARK VINA RESULT:      -7.6      4.002      6.401
REMARK  Name = 
REMARK  6 active torsions:
REMARK  status: ('A' for Active; 'I' for Inactive)
REMARK    1  A    between atoms: C_1  and  C_2
REMARK    2  A    between atoms: C_2  and  C_3
REMARK    3  A    between atoms: C_3  and  N_4
REMARK    4  A    between atoms: C_12  and  C_13
REMARK    5  A    between atoms: N_14  and  O_15
REMARK    6  A    between atoms: N_16  and  C_17
REMARK                            x       y       z     vdW  Elec       q    Type
REMARK                         _______ _______ _______ _____ _____    ______ ____
ROOT
ATOM      1  N   UNL     1       1.960   6.779  20.879  0.00  0.00    +0.000 N 
ATOM      2  C   UNL     1       2.015   5.719  20.003  0.00  0.00    +0.000 C 
ATOM      3  O   UNL     1       1.974   5.845  18.785  0.00  0.00    +0.000 OA
ATOM      4  N   UNL     1       2.060   4.511  20.667  0.00  0.00    +0.000 N 
ATOM      5  C   UNL     1       2.165   3.354  19.911  0.00  0.00    +0.000 A 
ATOM      6  N   UNL     1       1.316   2.343  20.101  0.00  0.00    +0.000 NA
ATOM      7  O   UNL     1       1.607   1.436  19.090  0.00  0.00    +0.000 OA
ATOM      8  N   UNL     1       2.698   1.849  18.334  0.00  0.00    +0.000 NA
ATOM      9  C   UNL     1       3.091   3.007  18.890  0.00  0.00    +0.000 A 
ATOM     10  H   UNL     1       2.323   6.618  21.807  0.00  0.00    +0.000 HD
ATOM     11  H   UNL     1       1.399   4.437  21.428  0.00  0.00    +0.000 HD
ENDROOT
BRANCH   9  12
ATOM     12  C   UNL     1       4.348   3.652  18.499  0.00  0.00    +0.000 C 
ATOM     13  N   UNL     1       5.349   3.477  19.310  0.00  0.00    +0.000 NA
ATOM     14  N   UNL     1       4.246   4.327  17.296  0.00  0.00    +0.000 N 
ATOM     15  H   UNL     1       3.310   4.522  16.958  0.00  0.00    +0.000 HD
BRANCH  14  16
ATOM     16  C   UNL     1       5.264   4.546  16.343  0.00  0.00    +0.000 A 
ATOM     17  C   UNL     1       6.303   5.470  16.553  0.00  0.00    +0.000 A 
ATOM     18  C   UNL     1       7.231   5.743  15.543  0.00  0.00    +0.000 A 
ATOM     19  C   UNL     1       7.124   5.097  14.319  0.00  0.00    +0.000 A 
ATOM     20  F   UNL     1       7.997   5.407  13.347  0.00  0.00    +0.000 F 
ATOM     21  C   UNL     1       6.122   4.159  14.104  0.00  0.00    +0.000 A 
ATOM     22 BR   UNL     1       5.961   3.285  12.435  0.00  0.00    +0.000 Br
ATOM     23  C   UNL     1       5.200   3.872  15.121  0.00  0.00    +0.000 A 
ENDBRANCH  14  16
BRANCH  13  24
ATOM     24  O   UNL     1       6.483   4.199  18.918  0.00  0.00    +0.000 OA
ATOM     25  H   UNL     1       6.548   4.005  17.966  0.00  0.00    +0.000 HD
ENDBRANCH  13  24
ENDBRANCH   9  12
BRANCH   1  26
ATOM     26  C   UNL     1       1.912   8.148  20.397  0.00  0.00    +0.000 C 
BRANCH  26  28
ATOM     27  C   UNL     1       0.830   9.420  22.305  0.00  0.00    +0.000 C 
ATOM     28  C   UNL     1       0.671   8.891  20.886  0.00  0.00    +0.000 C 
ENDBRANCH  26  28
ENDBRANCH   1  26
TORSDOF 5
ENDMDL
MODEL 6
REMARK VINA RESULT:      -7.6      2.964      3.902
REMARK  Name = 
REMARK  6 active torsions:
REMARK  status: ('A' for Active; 'I' for Inactive)
REMARK    1  A    between atoms: C_1  and  C_2
REMARK    2  A    between atoms: C_2  and  C_3
REMARK    3  A    between atoms: C_3  and  N_4
REMARK    4  A    between atoms: C_12  and  C_13
REMARK    5  A    between atoms: N_14  and  O_15
REMARK    6  A    between atoms: N_16  and  C_17
REMARK                            x       y       z     vdW  Elec       q    Type
REMARK                         _______ _______ _______ _____ _____    ______ ____
ROOT
ATOM      1  N   UNL     1       5.807   3.605  14.190  0.00  0.00    +0.000 N 
ATOM      2  C   UNL     1       6.023   4.454  15.251  0.00  0.00    +0.000 C 
ATOM      3  O   UNL     1       5.934   5.673  15.173  0.00  0.00    +0.000 OA
ATOM      4  N   UNL     1       6.407   3.765  16.383  0.00  0.00    +0.000 N 
ATOM      5  C   UNL     1       6.616   4.486  17.548  0.00  0.00    +0.000 A 
ATOM      6  N   UNL     1       7.750   4.348  18.235  0.00  0.00    +0.000 NA
ATOM      7  O   UNL     1       7.687   5.314  19.231  0.00  0.00    +0.000 OA
ATOM      8  N   UNL     1       6.470   5.985  19.212  0.00  0.00    +0.000 NA
ATOM      9  C   UNL     1       5.775   5.421  18.210  0.00  0.00    +0.000 A 
ATOM     10  H   UNL     1       5.580   2.648  14.414  0.00  0.00    +0.000 HD
ATOM     11  H   UNL     1       7.112   3.060  16.214  0.00  0.00    +0.000 HD
ENDROOT
BRANCH   9  12
ATOM     12  C   UNL     1       4.353   5.719  18.007  0.00  0.00    +0.000 C 
ATOM     13  N   UNL     1       3.558   4.691  17.984  0.00  0.00    +0.000 NA
ATOM     14  N   UNL     1       4.107   7.076  17.896  0.00  0.00    +0.000 N 
ATOM     15  H   UNL     1       4.905   7.673  17.711  0.00  0.00    +0.000 HD
BRANCH  14  16
ATOM     16  C   UNL     1       2.937   7.771  18.269  0.00  0.00    +0.000 A 
ATOM     17  C   UNL     1       2.242   8.605  17.377  0.00  0.00    +0.000 A 
ATOM     18  C   UNL     1       1.151   9.366  17.812  0.00  0.00    +0.000 A 
ATOM     19  C   UNL     1       0.751   9.296  19.140  0.00  0.00    +0.000 A 
ATOM     20  F   UNL     1      -0.269  10.068  19.548  0.00  0.00    +0.000 F 
ATOM     21  C   UNL     1       1.407   8.454  20.029  0.00  0.00    +0.000 A 
ATOM     22 BR   UNL     1       0.878   8.364  21.842  0.00  0.00    +0.000 Br
ATOM     23  C   UNL     1       2.492   7.679  19.591  0.00  0.00    +0.000 A 
ENDBRANCH  14  16
BRANCH  13  24
ATOM     24  O   UNL     1       2.236   5.049  17.692  0.00  0.00    +0.000 OA
ATOM     25  H   UNL     1       1.930   4.315  17.130  0.00  0.00    +0.000 HD
ENDBRANCH  13  24
ENDBRANCH   9  12
BRANCH   1  26
ATOM     26  C   UNL     1       5.387   4.116  12.897  0.00  0.00    +0.000 C 
BRANCH  26  28
ATOM     27  C   UNL     1       3.929   3.175  11.048  0.00  0.00    +0.000 C 
ATOM     28  C   UNL     1       5.201   3.003  11.867  0.00  0.00    +0.000 C 
ENDBRANCH  26  28
ENDBRANCH   1  26
TORSDOF 5
ENDMDL
MODEL 7
REMARK VINA RESULT:      -7.2      2.770      4.611
REMARK  Name = 
REMARK  6 active torsions:
REMARK  status: ('A' for Active; 'I' for Inactive)
REMARK    1  A    between atoms: C_1  and  C_2
REMARK    2  A    between atoms: C_2  and  C_3
REMARK    3  A    between atoms: C_3  and  N_4
REMARK    4  A    between atoms: C_12  and  C_13
REMARK    5  A    between atoms: N_14  and  O_15
REMARK    6  A    between atoms: N_16  and  C_17
REMARK                            x       y       z     vdW  Elec       q    Type
REMARK                         _______ _______ _______ _____ _____    ______ ____
ROOT
ATOM      1  N   UNL     1       7.609   8.286  17.373  0.00  0.00    +0.000 N 
ATOM      2  C   UNL     1       7.425   6.949  17.102  0.00  0.00    +0.000 C 
ATOM      3  O   UNL     1       7.935   6.048  17.758  0.00  0.00    +0.000 OA
ATOM      4  N   UNL     1       6.652   6.760  15.975  0.00  0.00    +0.000 N 
ATOM      5  C   UNL     1       6.344   5.460  15.606  0.00  0.00    +0.000 A 
ATOM      6  N   UNL     1       6.569   5.040  14.361  0.00  0.00    +0.000 NA
ATOM      7  O   UNL     1       6.298   3.677  14.387  0.00  0.00    +0.000 OA
ATOM      8  N   UNL     1       5.817   3.278  15.629  0.00  0.00    +0.000 NA
ATOM      9  C   UNL     1       5.777   4.401  16.366  0.00  0.00    +0.000 A 
ATOM     10  H   UNL     1       6.915   8.921  17.009  0.00  0.00    +0.000 HD
ATOM     11  H   UNL     1       6.913   7.349  15.197  0.00  0.00    +0.000 HD
ENDROOT
BRANCH   9  12
ATOM     12  C   UNL     1       5.126   4.427  17.679  0.00  0.00    +0.000 C 
ATOM     13  N   UNL     1       5.857   4.041  18.681  0.00  0.00    +0.000 NA
ATOM     14  N   UNL     1       3.824   4.894  17.616  0.00  0.00    +0.000 N 
ATOM     15  H   UNL     1       3.390   4.916  16.700  0.00  0.00    +0.000 HD
BRANCH  14  16
ATOM     16  C   UNL     1       3.111   5.591  18.613  0.00  0.00    +0.000 A 
ATOM     17  C   UNL     1       2.608   4.955  19.762  0.00  0.00    +0.000 A 
ATOM     18  C   UNL     1       1.810   5.654  20.674  0.00  0.00    +0.000 A 
ATOM     19  C   UNL     1       1.511   6.990  20.443  0.00  0.00    +0.000 A 
ATOM     20  F   UNL     1       0.707   7.630  21.307  0.00  0.00    +0.000 F 
ATOM     21  C   UNL     1       2.024   7.643  19.330  0.00  0.00    +0.000 A 
ATOM     22 BR   UNL     1       1.609   9.458  18.999  0.00  0.00    +0.000 Br
ATOM     23  C   UNL     1       2.837   6.948  18.421  0.00  0.00    +0.000 A 
ENDBRANCH  14  16
BRANCH  13  24
ATOM     24  O   UNL     1       5.138   4.005  19.882  0.00  0.00    +0.000 OA
ATOM     25  H   UNL     1       5.738   4.443  20.510  0.00  0.00    +0.000 HD
ENDBRANCH  13  24
ENDBRANCH   9  12
BRANCH   1  26
ATOM     26  C   UNL     1       8.387   8.717  18.521  0.00  0.00    +0.000 C 
BRANCH  26  28
ATOM     27  C   UNL     1       9.548  10.670  19.646  0.00  0.00    +0.000 C 
ATOM     28  C   UNL     1       8.877  10.157  18.380  0.00  0.00    +0.000 C 
ENDBRANCH  26  28
ENDBRANCH   1  26
TORSDOF 5
ENDMDL
MODEL 8
REMARK VINA RESULT:      -7.2      4.092      5.948
REMARK  Name = 
REMARK  6 active torsions:
REMARK  status: ('A' for Active; 'I' for Inactive)
REMARK    1  A    between atoms: C_1  and  C_2
REMARK    2  A    between atoms: C_2  and  C_3
REMARK    3  A    between atoms: C_3  and  N_4
REMARK    4  A    between atoms: C_12  and  C_13
REMARK    5  A    between atoms: N_14  and  O_15
REMARK    6  A    between atoms: N_16  and  C_17
REMARK                            x       y       z     vdW  Elec       q    Type
REMARK                         _______ _______ _______ _____ _____    ______ ____
ROOT
ATOM      1  N   UNL     1       6.809   4.147  13.870  0.00  0.00    +0.000 N 
ATOM      2  C   UNL     1       6.465   5.073  14.829  0.00  0.00    +0.000 C 
ATOM      3  O   UNL     1       5.324   5.486  14.994  0.00  0.00    +0.000 OA
ATOM      4  N   UNL     1       7.569   5.514  15.528  0.00  0.00    +0.000 N 
ATOM      5  C   UNL     1       7.370   6.417  16.560  0.00  0.00    +0.000 A 
ATOM      6  N   UNL     1       8.070   7.551  16.611  0.00  0.00    +0.000 NA
ATOM      7  O   UNL     1       7.514   8.270  17.661  0.00  0.00    +0.000 OA
ATOM      8  N   UNL     1       6.530   7.537  18.315  0.00  0.00    +0.000 NA
ATOM      9  C   UNL     1       6.490   6.356  17.676  0.00  0.00    +0.000 A 
ATOM     10  H   UNL     1       7.666   3.637  14.020  0.00  0.00    +0.000 HD
ATOM     11  H   UNL     1       8.361   5.739  14.943  0.00  0.00    +0.000 HD
ENDROOT
BRANCH   9  12
ATOM     12  C   UNL     1       5.717   5.229  18.204  0.00  0.00    +0.000 C 
ATOM     13  N   UNL     1       6.410   4.268  18.736  0.00  0.00    +0.000 NA
ATOM     14  N   UNL     1       4.352   5.408  18.059  0.00  0.00    +0.000 N 
ATOM     15  H   UNL     1       4.051   6.125  17.407  0.00  0.00    +0.000 HD
BRANCH  14  16
ATOM     16  C   UNL     1       3.326   4.912  18.890  0.00  0.00    +0.000 A 
ATOM     17  C   UNL     1       3.112   5.398  20.191  0.00  0.00    +0.000 A 
ATOM     18  C   UNL     1       2.158   4.807  21.027  0.00  0.00    +0.000 A 
ATOM     19  C   UNL     1       1.416   3.727  20.567  0.00  0.00    +0.000 A 
ATOM     20  F   UNL     1       0.539   3.145  21.400  0.00  0.00    +0.000 F 
ATOM     21  C   UNL     1       1.593   3.253  19.274  0.00  0.00    +0.000 A 
ATOM     22 BR   UNL     1       0.597   1.773  18.644  0.00  0.00    +0.000 Br
ATOM     23  C   UNL     1       2.538   3.854  18.428  0.00  0.00    +0.000 A 
ENDBRANCH  14  16
BRANCH  13  24
ATOM     24  O   UNL     1       5.609   3.189  19.131  0.00  0.00    +0.000 OA
ATOM     25  H   UNL     1       6.040   2.883  19.948  0.00  0.00    +0.000 HD
ENDBRANCH  13  24
ENDBRANCH   9  12
BRANCH   1  26
ATOM     26  C   UNL     1       5.800   3.543  13.018  0.00  0.00    +0.000 C 
BRANCH  26  28
ATOM     27  C   UNL     1       5.799   1.627  11.357  0.00  0.00    +0.000 C 
ATOM     28  C   UNL     1       6.394   2.978  11.729  0.00  0.00    +0.000 C 
ENDBRANCH  26  28
ENDBRANCH   1  26
TORSDOF 5
ENDMDL
MODEL 9
REMARK VINA RESULT:      -7.1      4.027      6.486
REMARK  Name = 
REMARK  6 active torsions:
REMARK  status: ('A' for Active; 'I' for Inactive)
REMARK    1  A    between atoms: C_1  and  C_2
REMARK    2  A    between atoms: C_2  and  C_3
REMARK    3  A    between atoms: C_3  and  N_4
REMARK    4  A    between atoms: C_12  and  C_13
REMARK    5  A    between atoms: N_14  and  O_15
REMARK    6  A    between atoms: N_16  and  C_17
REMARK                            x       y       z     vdW  Elec       q    Type
REMARK                         _______ _______ _______ _____ _____    ______ ____
ROOT
ATOM      1  N   UNL     1       2.278   7.822  19.117  0.00  0.00    +0.000 N 
ATOM      2  C   UNL     1       2.516   6.486  18.888  0.00  0.00    +0.000 C 
ATOM      3  O   UNL     1       2.469   5.971  17.778  0.00  0.00    +0.000 OA
ATOM      4  N   UNL     1       2.749   5.803  20.063  0.00  0.00    +0.000 N 
ATOM      5  C   UNL     1       3.051   4.452  19.983  0.00  0.00    +0.000 A 
ATOM      6  N   UNL     1       2.375   3.565  20.715  0.00  0.00    +0.000 NA
ATOM      7  O   UNL     1       2.822   2.324  20.277  0.00  0.00    +0.000 OA
ATOM      8  N   UNL     1       3.840   2.452  19.339  0.00  0.00    +0.000 NA
ATOM      9  C   UNL     1       4.032   3.775  19.210  0.00  0.00    +0.000 A 
ATOM     10  H   UNL     1       2.651   8.209  19.971  0.00  0.00    +0.000 HD
ATOM     11  H   UNL     1       2.100   6.028  20.803  0.00  0.00    +0.000 HD
ENDROOT
BRANCH   9  12
ATOM     12  C   UNL     1       5.173   4.310  18.459  0.00  0.00    +0.000 C 
ATOM     13  N   UNL     1       6.306   4.334  19.094  0.00  0.00    +0.000 NA
ATOM     14  N   UNL     1       4.832   4.680  17.170  0.00  0.00    +0.000 N 
ATOM     15  H   UNL     1       3.843   4.788  16.971  0.00  0.00    +0.000 HD
BRANCH  14  16
ATOM     16  C   UNL     1       5.656   4.668  16.025  0.00  0.00    +0.000 A 
ATOM     17  C   UNL     1       6.838   5.425  15.942  0.00  0.00    +0.000 A 
ATOM     18  C   UNL     1       7.572   5.476  14.751  0.00  0.00    +0.000 A 
ATOM     19  C   UNL     1       7.128   4.773  13.640  0.00  0.00    +0.000 A 
ATOM     20  F   UNL     1       7.821   4.871  12.494  0.00  0.00    +0.000 F 
ATOM     21  C   UNL     1       5.979   3.995  13.713  0.00  0.00    +0.000 A 
ATOM     22 BR   UNL     1       5.359   3.046  12.199  0.00  0.00    +0.000 Br
ATOM     23  C   UNL     1       5.250   3.930  14.910  0.00  0.00    +0.000 A 
ENDBRANCH  14  16
BRANCH  13  24
ATOM     24  O   UNL     1       7.321   4.943  18.346  0.00  0.00    +0.000 OA
ATOM     25  H   UNL     1       7.170   4.597  17.449  0.00  0.00    +0.000 HD
ENDBRANCH  13  24
ENDBRANCH   9  12
BRANCH   1  26
ATOM     26  C   UNL     1       2.014   8.735  18.018  0.00  0.00    +0.000 C 
BRANCH  26  28
ATOM     27  C   UNL     1      -0.075  10.145  18.289  0.00  0.00    +0.000 C 
ATOM     28  C   UNL     1       1.431  10.063  18.496  0.00  0.00    +0.000 C 
ENDBRANCH  26  28
ENDBRANCH   1  26
TORSDOF 5
ENDMDL
