MODEL 1
REMARK VINA RESULT:      -8.4      0.000      0.000
REMARK  Name = 
REMARK  9 active torsions:
REMARK  status: ('A' for Active; 'I' for Inactive)
REMARK    1  A    between atoms: C_1  and  C_2
REMARK    2  A    between atoms: C_2  and  C_3
REMARK    3  A    between atoms: C_2  and  C_4
REMARK    4  A    between atoms: C_7  and  C_8
REMARK    5  A    between atoms: C_8  and  C_16
REMARK    6  A    between atoms: C_9  and  C_10
REMARK    7  A    between atoms: C_10  and  CA_11
REMARK    8  A    between atoms: CA_11  and  N_12
REMARK    9  A    between atoms: CA_11  and  C_13
REMARK                            x       y       z     vdW  Elec       q    Type
REMARK                         _______ _______ _______ _____ _____    ______ ____
ROOT
ATOM      1  C   UNL     1       3.562   5.851  18.207  0.00  0.00    +0.000 C 
ATOM      2  C   UNL     1       3.027   4.693  17.767  0.00  0.00    +0.000 C 
ENDROOT
BRANCH   1   3
ATOM      3  C   UNL     1       5.038   5.930  18.185  0.00  0.00    +0.000 A 
ATOM      4  C   UNL     1       5.794   5.448  19.261  0.00  0.00    +0.000 A 
ATOM      5  C   UNL     1       7.188   5.582  19.262  0.00  0.00    +0.000 A 
ATOM      6  C   UNL     1       7.836   6.199  18.192  0.00  0.00    +0.000 A 
ATOM      7  C   UNL     1       7.093   6.675  17.111  0.00  0.00    +0.000 A 
ATOM      8  C   UNL     1       5.699   6.533  17.112  0.00  0.00    +0.000 A 
ATOM      9  F   UNL     1       5.016   7.010  16.065  0.00  0.00    +0.000 F 
ENDBRANCH   1   3
BRANCH   1  13
ATOM     10  C   UNL     1       1.112   9.171  19.424  0.00  0.00    +0.000 A 
ATOM     11  C   UNL     1       1.476   8.178  20.349  0.00  0.00    +0.000 A 
ATOM     12  C   UNL     1       2.260   7.086  19.958  0.00  0.00    +0.000 A 
ATOM     13  C   UNL     1       2.698   6.969  18.635  0.00  0.00    +0.000 A 
ATOM     14  C   UNL     1       2.325   7.944  17.709  0.00  0.00    +0.000 A 
ATOM     15  C   UNL     1       1.546   9.037  18.097  0.00  0.00    +0.000 A 
BRANCH  10  17
ATOM     16  C   UNL     1      -0.690  10.787  18.851  0.00  0.00    +0.000 C 
ATOM     17  C   UNL     1       0.363  10.406  19.892  0.00  0.00    +0.000 C 
ATOM     18  C   UNL     1      -0.275  10.271  21.280  0.00  0.00    +0.000 C 
ENDBRANCH  10  17
ENDBRANCH   1  13
BRANCH   2  19
ATOM     19  C   UNL     1       1.572   4.296  17.770  0.00  0.00    +0.000 C 
BRANCH  19  20
ATOM     20  CA  UNL     1       1.265   2.931  18.403  0.00  0.00    +0.000 C 
BRANCH  20  21
ATOM     21  N   UNL     1       2.194   1.846  17.985  0.00  0.00    +0.000 NA
ATOM     22  H1  UNL     1       1.628   1.242  17.372  0.00  0.00    +0.000 HD
ATOM     23  H2  UNL     1       2.450   1.291  18.795  0.00  0.00    +0.000 HD
ENDBRANCH  20  21
BRANCH  20  24
ATOM     24  C   UNL     1       1.430   3.274  19.932  0.00  0.00    +0.000 C 
ATOM     25  O   UNL     1       0.647   4.149  20.384  0.00  0.00    +0.000 OA
ATOM     26  OXT UNL     1       2.287   2.551  20.541  0.00  0.00    +0.000 OA
ENDBRANCH  20  24
ENDBRANCH  19  20
ENDBRANCH   2  19
TORSDOF 7
ENDMDL
MODEL 2
REMARK VINA RESULT:      -8.4      0.178      1.199
REMARK  Name = 
REMARK  9 active torsions:
REMARK  status: ('A' for Active; 'I' for Inactive)
REMARK    1  A    between atoms: C_1  and  C_2
REMARK    2  A    between atoms: C_2  and  C_3
REMARK    3  A    between atoms: C_2  and  C_4
REMARK    4  A    between atoms: C_7  and  C_8
REMARK    5  A    between atoms: C_8  and  C_16
REMARK    6  A    between atoms: C_9  and  C_10
REMARK    7  A    between atoms: C_10  and  CA_11
REMARK    8  A    between atoms: CA_11  and  N_12
REMARK    9  A    between atoms: CA_11  and  C_13
REMARK                            x       y       z     vdW  Elec       q    Type
REMARK                         _______ _______ _______ _____ _____    ______ ____
ROOT
ATOM      1  C   UNL     1       3.540   5.908  18.209  0.00  0.00    +0.000 C 
ATOM      2  C   UNL     1       2.963   4.765  17.784  0.00  0.00    +0.000 C 
ENDROOT
BRANCH   1   3
ATOM      3  C   UNL     1       5.018   5.936  18.180  0.00  0.00    +0.000 A 
ATOM      4  C   UNL     1       5.762   5.455  19.264  0.00  0.00    +0.000 A 
ATOM      5  C   UNL     1       7.159   5.541  19.257  0.00  0.00    +0.000 A 
ATOM      6  C   UNL     1       7.823   6.109  18.170  0.00  0.00    +0.000 A 
ATOM      7  C   UNL     1       7.092   6.584  17.081  0.00  0.00    +0.000 A 
ATOM      8  C   UNL     1       5.694   6.490  17.090  0.00  0.00    +0.000 A 
ATOM      9  F   UNL     1       5.023   6.964  16.034  0.00  0.00    +0.000 F 
ENDBRANCH   1   3
BRANCH   1  13
ATOM     10  C   UNL     1       1.074   9.204  19.460  0.00  0.00    +0.000 A 
ATOM     11  C   UNL     1       1.518   9.112  18.130  0.00  0.00    +0.000 A 
ATOM     12  C   UNL     1       2.334   8.051  17.718  0.00  0.00    +0.000 A 
ATOM     13  C   UNL     1       2.717   7.060  18.627  0.00  0.00    +0.000 A 
ATOM     14  C   UNL     1       2.291   7.156  19.954  0.00  0.00    +0.000 A 
ATOM     15  C   UNL     1       1.474   8.212  20.367  0.00  0.00    +0.000 A 
BRANCH  10  17
ATOM     16  C   UNL     1      -1.087  10.295  18.889  0.00  0.00    +0.000 C 
ATOM     17  C   UNL     1       0.095  10.294  19.859  0.00  0.00    +0.000 C 
ATOM     18  C   UNL     1      -0.398  10.203  21.308  0.00  0.00    +0.000 C 
ENDBRANCH  10  17
ENDBRANCH   1  13
BRANCH   2  19
ATOM     19  C   UNL     1       1.495   4.418  17.798  0.00  0.00    +0.000 C 
BRANCH  19  20
ATOM     20  CA  UNL     1       1.157   3.013  18.318  0.00  0.00    +0.000 C 
BRANCH  20  21
ATOM     21  N   UNL     1       2.028   1.938  17.771  0.00  0.00    +0.000 NA
ATOM     22  H1  UNL     1       2.834   1.907  18.412  0.00  0.00    +0.000 HD
ATOM     23  H2  UNL     1       2.382   2.218  16.863  0.00  0.00    +0.000 HD
ENDBRANCH  20  21
BRANCH  20  24
ATOM     24  C   UNL     1       1.387   3.211  19.864  0.00  0.00    +0.000 C 
ATOM     25  O   UNL     1       2.286   2.496  20.379  0.00  0.00    +0.000 OA
ATOM     26  OXT UNL     1       0.685   4.141  20.384  0.00  0.00    +0.000 OA
ENDBRANCH  20  24
ENDBRANCH  19  20
ENDBRANCH   2  19
TORSDOF 7
ENDMDL
MODEL 3
REMARK VINA RESULT:      -8.3      0.331      1.206
REMARK  Name = 
REMARK  9 active torsions:
REMARK  status: ('A' for Active; 'I' for Inactive)
REMARK    1  A    between atoms: C_1  and  C_2
REMARK    2  A    between atoms: C_2  and  C_3
REMARK    3  A    between atoms: C_2  and  C_4
REMARK    4  A    between atoms: C_7  and  C_8
REMARK    5  A    between atoms: C_8  and  C_16
REMARK    6  A    between atoms: C_9  and  C_10
REMARK    7  A    between atoms: C_10  and  CA_11
REMARK    8  A    between atoms: CA_11  and  N_12
REMARK    9  A    between atoms: CA_11  and  C_13
REMARK                            x       y       z     vdW  Elec       q    Type
REMARK                         _______ _______ _______ _____ _____    ______ ____
ROOT
ATOM      1  C   UNL     1       3.564   5.881  18.220  0.00  0.00    +0.000 C 
ATOM      2  C   UNL     1       3.007   4.727  17.802  0.00  0.00    +0.000 C 
ENDROOT
BRANCH   1   3
ATOM      3  C   UNL     1       5.041   5.933  18.194  0.00  0.00    +0.000 A 
ATOM      4  C   UNL     1       5.791   5.452  19.275  0.00  0.00    +0.000 A 
ATOM      5  C   UNL     1       7.187   5.560  19.271  0.00  0.00    +0.000 A 
ATOM      6  C   UNL     1       7.843   6.149  18.191  0.00  0.00    +0.000 A 
ATOM      7  C   UNL     1       7.106   6.623  17.105  0.00  0.00    +0.000 A 
ATOM      8  C   UNL     1       5.710   6.508  17.111  0.00  0.00    +0.000 A 
ATOM      9  F   UNL     1       5.034   6.982  16.059  0.00  0.00    +0.000 F 
ENDBRANCH   1   3
BRANCH   1  13
ATOM     10  C   UNL     1       1.043   9.144  19.448  0.00  0.00    +0.000 A 
ATOM     11  C   UNL     1       1.498   9.056  18.121  0.00  0.00    +0.000 A 
ATOM     12  C   UNL     1       2.331   8.006  17.717  0.00  0.00    +0.000 A 
ATOM     13  C   UNL     1       2.722   7.022  18.631  0.00  0.00    +0.000 A 
ATOM     14  C   UNL     1       2.285   7.115  19.954  0.00  0.00    +0.000 A 
ATOM     15  C   UNL     1       1.451   8.160  20.359  0.00  0.00    +0.000 A 
BRANCH  10  17
ATOM     16  C   UNL     1       0.798  11.502  20.200  0.00  0.00    +0.000 C 
ATOM     17  C   UNL     1       0.046  10.221  19.837  0.00  0.00    +0.000 C 
ATOM     18  C   UNL     1      -1.025  10.507  18.777  0.00  0.00    +0.000 C 
ENDBRANCH  10  17
ENDBRANCH   1  13
BRANCH   2  19
ATOM     19  C   UNL     1       1.544   4.356  17.815  0.00  0.00    +0.000 C 
BRANCH  19  20
ATOM     20  CA  UNL     1       1.222   2.968  18.387  0.00  0.00    +0.000 C 
BRANCH  20  21
ATOM     21  N   UNL     1       2.162   1.899  17.952  0.00  0.00    +0.000 NA
ATOM     22  H1  UNL     1       2.284   2.058  16.942  0.00  0.00    +0.000 HD
ATOM     23  H2  UNL     1       1.717   0.995  18.059  0.00  0.00    +0.000 HD
ENDBRANCH  20  21
BRANCH  20  24
ATOM     24  C   UNL     1       1.351   3.253  19.932  0.00  0.00    +0.000 C 
ATOM     25  O   UNL     1       0.638   4.190  20.376  0.00  0.00    +0.000 OA
ATOM     26  OXT UNL     1       2.103   2.432  20.555  0.00  0.00    +0.000 OA
ENDBRANCH  20  24
ENDBRANCH  19  20
ENDBRANCH   2  19
TORSDOF 7
ENDMDL
MODEL 4
REMARK VINA RESULT:      -8.1      2.928      4.735
REMARK  Name = 
REMARK  9 active torsions:
REMARK  status: ('A' for Active; 'I' for Inactive)
REMARK    1  A    between atoms: C_1  and  C_2
REMARK    2  A    between atoms: C_2  and  C_3
REMARK    3  A    between atoms: C_2  and  C_4
REMARK    4  A    between atoms: C_7  and  C_8
REMARK    5  A    between atoms: C_8  and  C_16
REMARK    6  A    between atoms: C_9  and  C_10
REMARK    7  A    between atoms: C_10  and  CA_11
REMARK    8  A    between atoms: CA_11  and  N_12
REMARK    9  A    between atoms: CA_11  and  C_13
REMARK                            x       y       z     vdW  Elec       q    Type
REMARK                         _______ _______ _______ _____ _____    ______ ____
ROOT
ATOM      1  C   UNL     1       2.980   5.882  19.050  0.00  0.00    +0.000 C 
ATOM      2  C   UNL     1       4.192   5.631  18.515  0.00  0.00    +0.000 C 
ENDROOT
BRANCH   1   3
ATOM      3  C   UNL     1       2.323   4.744  19.727  0.00  0.00    +0.000 A 
ATOM      4  C   UNL     1       2.630   4.432  21.058  0.00  0.00    +0.000 A 
ATOM      5  C   UNL     1       2.051   3.316  21.674  0.00  0.00    +0.000 A 
ATOM      6  C   UNL     1       1.165   2.503  20.967  0.00  0.00    +0.000 A 
ATOM      7  C   UNL     1       0.847   2.810  19.644  0.00  0.00    +0.000 A 
ATOM      8  C   UNL     1       1.424   3.931  19.033  0.00  0.00    +0.000 A 
ATOM      9  F   UNL     1       1.104   4.190  17.760  0.00  0.00    +0.000 F 
ENDBRANCH   1   3
BRANCH   1  13
ATOM     10  C   UNL     1       1.181   9.787  18.901  0.00  0.00    +0.000 A 
ATOM     11  C   UNL     1       1.741   9.217  17.746  0.00  0.00    +0.000 A 
ATOM     12  C   UNL     1       2.342   7.953  17.789  0.00  0.00    +0.000 A 
ATOM     13  C   UNL     1       2.391   7.235  18.987  0.00  0.00    +0.000 A 
ATOM     14  C   UNL     1       1.851   7.805  20.142  0.00  0.00    +0.000 A 
ATOM     15  C   UNL     1       1.247   9.064  20.101  0.00  0.00    +0.000 A 
BRANCH  10  17
ATOM     16  C   UNL     1      -1.037  10.829  18.472  0.00  0.00    +0.000 C 
ATOM     17  C   UNL     1       0.429  11.104  18.810  0.00  0.00    +0.000 C 
ATOM     18  C   UNL     1       0.539  11.984  20.061  0.00  0.00    +0.000 C 
ENDBRANCH  10  17
ENDBRANCH   1  13
BRANCH   2  19
ATOM     19  C   UNL     1       5.040   6.563  17.686  0.00  0.00    +0.000 C 
BRANCH  19  20
ATOM     20  CA  UNL     1       5.582   5.971  16.377  0.00  0.00    +0.000 C 
BRANCH  20  21
ATOM     21  N   UNL     1       5.284   6.791  15.171  0.00  0.00    +0.000 NA
ATOM     22  H1  UNL     1       4.440   6.362  14.768  0.00  0.00    +0.000 HD
ATOM     23  H2  UNL     1       6.029   6.676  14.493  0.00  0.00    +0.000 HD
ENDBRANCH  20  21
BRANCH  20  24
ATOM     24  C   UNL     1       7.127   5.944  16.687  0.00  0.00    +0.000 C 
ATOM     25  O   UNL     1       7.695   7.065  16.737  0.00  0.00    +0.000 OA
ATOM     26  OXT UNL     1       7.590   4.781  16.935  0.00  0.00    +0.000 OA
ENDBRANCH  20  24
ENDBRANCH  19  20
ENDBRANCH   2  19
TORSDOF 7
ENDMDL
MODEL 5
REMARK VINA RESULT:      -8.0      0.967      1.519
REMARK  Name = 
REMARK  9 active torsions:
REMARK  status: ('A' for Active; 'I' for Inactive)
REMARK    1  A    between atoms: C_1  and  C_2
REMARK    2  A    between atoms: C_2  and  C_3
REMARK    3  A    between atoms: C_2  and  C_4
REMARK    4  A    between atoms: C_7  and  C_8
REMARK    5  A    between atoms: C_8  and  C_16
REMARK    6  A    between atoms: C_9  and  C_10
REMARK    7  A    between atoms: C_10  and  CA_11
REMARK    8  A    between atoms: CA_11  and  N_12
REMARK    9  A    between atoms: CA_11  and  C_13
REMARK                            x       y       z     vdW  Elec       q    Type
REMARK                         _______ _______ _______ _____ _____    ______ ____
ROOT
ATOM      1  C   UNL     1       3.531   5.997  18.184  0.00  0.00    +0.000 C 
ATOM      2  C   UNL     1       3.022   4.827  17.746  0.00  0.00    +0.000 C 
ENDROOT
BRANCH   1   3
ATOM      3  C   UNL     1       5.005   6.110  18.163  0.00  0.00    +0.000 A 
ATOM      4  C   UNL     1       5.643   6.954  17.245  0.00  0.00    +0.000 A 
ATOM      5  C   UNL     1       7.040   7.009  17.189  0.00  0.00    +0.000 A 
ATOM      6  C   UNL     1       7.810   6.223  18.045  0.00  0.00    +0.000 A 
ATOM      7  C   UNL     1       7.185   5.385  18.969  0.00  0.00    +0.000 A 
ATOM      8  C   UNL     1       5.786   5.337  19.026  0.00  0.00    +0.000 A 
ATOM      9  F   UNL     1       5.219   4.515  19.916  0.00  0.00    +0.000 F 
ENDBRANCH   1   3
BRANCH   1  13
ATOM     10  C   UNL     1       1.006   9.264  19.393  0.00  0.00    +0.000 A 
ATOM     11  C   UNL     1       1.399   8.286  20.323  0.00  0.00    +0.000 A 
ATOM     12  C   UNL     1       2.207   7.211  19.934  0.00  0.00    +0.000 A 
ATOM     13  C   UNL     1       2.642   7.096  18.610  0.00  0.00    +0.000 A 
ATOM     14  C   UNL     1       2.241   8.057  17.679  0.00  0.00    +0.000 A 
ATOM     15  C   UNL     1       1.437   9.133  18.065  0.00  0.00    +0.000 A 
BRANCH  10  17
ATOM     16  C   UNL     1      -1.103  10.553  19.110  0.00  0.00    +0.000 C 
ATOM     17  C   UNL     1       0.230  10.483  19.858  0.00  0.00    +0.000 C 
ATOM     18  C   UNL     1       0.001  10.549  21.373  0.00  0.00    +0.000 C 
ENDBRANCH  10  17
ENDBRANCH   1  13
BRANCH   2  19
ATOM     19  C   UNL     1       1.576   4.397  17.750  0.00  0.00    +0.000 C 
BRANCH  19  20
ATOM     20  CA  UNL     1       1.305   3.007  18.342  0.00  0.00    +0.000 C 
BRANCH  20  21
ATOM     21  N   UNL     1       2.246   1.953  17.873  0.00  0.00    +0.000 NA
ATOM     22  H1  UNL     1       2.436   1.384  18.710  0.00  0.00    +0.000 HD
ATOM     23  H2  UNL     1       3.123   2.382  17.600  0.00  0.00    +0.000 HD
ENDBRANCH  20  21
BRANCH  20  24
ATOM     24  C   UNL     1       1.493   3.303  19.879  0.00  0.00    +0.000 C 
ATOM     25  O   UNL     1       2.463   2.724  20.433  0.00  0.00    +0.000 OA
ATOM     26  OXT UNL     1       0.681   4.168  20.349  0.00  0.00    +0.000 OA
ENDBRANCH  20  24
ENDBRANCH  19  20
ENDBRANCH   2  19
TORSDOF 7
ENDMDL
MODEL 6
REMARK VINA RESULT:      -8.0      1.342      2.125
REMARK  Name = 
REMARK  9 active torsions:
REMARK  status: ('A' for Active; 'I' for Inactive)
REMARK    1  A    between atoms: C_1  and  C_2
REMARK    2  A    between atoms: C_2  and  C_3
REMARK    3  A    between atoms: C_2  and  C_4
REMARK    4  A    between atoms: C_7  and  C_8
REMARK    5  A    between atoms: C_8  and  C_16
REMARK    6  A    between atoms: C_9  and  C_10
REMARK    7  A    between atoms: C_10  and  CA_11
REMARK    8  A    between atoms: CA_11  and  N_12
REMARK    9  A    between atoms: CA_11  and  C_13
REMARK                            x       y       z     vdW  Elec       q    Type
REMARK                         _______ _______ _______ _____ _____    ______ ____
ROOT
ATOM      1  C   UNL     1       3.446   5.225  17.811  0.00  0.00    +0.000 C 
ATOM      2  C   UNL     1       2.706   4.105  17.674  0.00  0.00    +0.000 C 
ENDROOT
BRANCH   1   3
ATOM      3  C   UNL     1       4.869   5.110  17.426  0.00  0.00    +0.000 A 
ATOM      4  C   UNL     1       5.231   4.873  16.094  0.00  0.00    +0.000 A 
ATOM      5  C   UNL     1       6.577   4.705  15.746  0.00  0.00    +0.000 A 
ATOM      6  C   UNL     1       7.569   4.769  16.724  0.00  0.00    +0.000 A 
ATOM      7  C   UNL     1       7.220   5.013  18.053  0.00  0.00    +0.000 A 
ATOM      8  C   UNL     1       5.873   5.187  18.395  0.00  0.00    +0.000 A 
ATOM      9  F   UNL     1       5.572   5.409  19.680  0.00  0.00    +0.000 F 
ENDBRANCH   1   3
BRANCH   1  13
ATOM     10  C   UNL     1       1.586   8.845  19.206  0.00  0.00    +0.000 A 
ATOM     11  C   UNL     1       1.910   8.688  17.847  0.00  0.00    +0.000 A 
ATOM     12  C   UNL     1       2.529   7.520  17.388  0.00  0.00    +0.000 A 
ATOM     13  C   UNL     1       2.833   6.484  18.277  0.00  0.00    +0.000 A 
ATOM     14  C   UNL     1       2.529   6.642  19.630  0.00  0.00    +0.000 A 
ATOM     15  C   UNL     1       1.907   7.806  20.091  0.00  0.00    +0.000 A 
BRANCH  10  17
ATOM     16  C   UNL     1       0.761  10.093  21.193  0.00  0.00    +0.000 C 
ATOM     17  C   UNL     1       0.809  10.066  19.664  0.00  0.00    +0.000 C 
ATOM     18  C   UNL     1       1.340  11.396  19.118  0.00  0.00    +0.000 C 
ENDBRANCH  10  17
ENDBRANCH   1  13
BRANCH   2  19
ATOM     19  C   UNL     1       1.268   3.902  18.080  0.00  0.00    +0.000 C 
BRANCH  19  20
ATOM     20  CA  UNL     1       0.975   2.594  18.830  0.00  0.00    +0.000 C 
BRANCH  20  21
ATOM     21  N   UNL     1       1.942   1.500  18.542  0.00  0.00    +0.000 NA
ATOM     22  H1  UNL     1       1.521   0.983  17.757  0.00  0.00    +0.000 HD
ATOM     23  H2  UNL     1       1.976   0.864  19.331  0.00  0.00    +0.000 HD
ENDBRANCH  20  21
BRANCH  20  24
ATOM     24  C   UNL     1       1.089   3.084  20.324  0.00  0.00    +0.000 C 
ATOM     25  O   UNL     1       1.679   2.301  21.113  0.00  0.00    +0.000 OA
ATOM     26  OXT UNL     1       0.641   4.261  20.525  0.00  0.00    +0.000 OA
ENDBRANCH  20  24
ENDBRANCH  19  20
ENDBRANCH   2  19
TORSDOF 7
ENDMDL
MODEL 7
REMARK VINA RESULT:      -8.0      0.978      1.693
REMARK  Name = 
REMARK  9 active torsions:
REMARK  status: ('A' for Active; 'I' for Inactive)
REMARK    1  A    between atoms: C_1  and  C_2
REMARK    2  A    between atoms: C_2  and  C_3
REMARK    3  A    between atoms: C_2  and  C_4
REMARK    4  A    between atoms: C_7  and  C_8
REMARK    5  A    between atoms: C_8  and  C_16
REMARK    6  A    between atoms: C_9  and  C_10
REMARK    7  A    between atoms: C_10  and  CA_11
REMARK    8  A    between atoms: CA_11  and  N_12
REMARK    9  A    between atoms: CA_11  and  C_13
REMARK                            x       y       z     vdW  Elec       q    Type
REMARK                         _______ _______ _______ _____ _____    ______ ____
ROOT
ATOM      1  C   UNL     1       3.512   6.070  18.170  0.00  0.00    +0.000 C 
ATOM      2  C   UNL     1       2.960   4.910  17.761  0.00  0.00    +0.000 C 
ENDROOT
BRANCH   1   3
ATOM      3  C   UNL     1       4.989   6.128  18.142  0.00  0.00    +0.000 A 
ATOM      4  C   UNL     1       5.655   6.915  17.194  0.00  0.00    +0.000 A 
ATOM      5  C   UNL     1       7.053   6.918  17.134  0.00  0.00    +0.000 A 
ATOM      6  C   UNL     1       7.797   6.135  18.017  0.00  0.00    +0.000 A 
ATOM      7  C   UNL     1       7.144   5.353  18.971  0.00  0.00    +0.000 A 
ATOM      8  C   UNL     1       5.744   5.359  19.031  0.00  0.00    +0.000 A 
ATOM      9  F   UNL     1       5.150   4.590  19.951  0.00  0.00    +0.000 F 
ENDBRANCH   1   3
BRANCH   1  13
ATOM     10  C   UNL     1       0.978   9.332  19.372  0.00  0.00    +0.000 A 
ATOM     11  C   UNL     1       1.426   9.231  18.044  0.00  0.00    +0.000 A 
ATOM     12  C   UNL     1       2.264   8.182  17.648  0.00  0.00    +0.000 A 
ATOM     13  C   UNL     1       2.665   7.211  18.571  0.00  0.00    +0.000 A 
ATOM     14  C   UNL     1       2.235   7.317  19.896  0.00  0.00    +0.000 A 
ATOM     15  C   UNL     1       1.396   8.361  20.293  0.00  0.00    +0.000 A 
BRANCH  10  17
ATOM     16  C   UNL     1      -1.238  10.324  18.828  0.00  0.00    +0.000 C 
ATOM     17  C   UNL     1      -0.024  10.408  19.754  0.00  0.00    +0.000 C 
ATOM     18  C   UNL     1      -0.464  10.370  21.223  0.00  0.00    +0.000 C 
ENDBRANCH  10  17
ENDBRANCH   1  13
BRANCH   2  19
ATOM     19  C   UNL     1       1.499   4.533  17.778  0.00  0.00    +0.000 C 
BRANCH  19  20
ATOM     20  CA  UNL     1       1.186   3.139  18.341  0.00  0.00    +0.000 C 
BRANCH  20  21
ATOM     21  N   UNL     1       2.038   2.054  17.782  0.00  0.00    +0.000 NA
ATOM     22  H1  UNL     1       2.766   2.546  17.247  0.00  0.00    +0.000 HD
ATOM     23  H2  UNL     1       1.498   1.510  17.118  0.00  0.00    +0.000 HD
ENDBRANCH  20  21
BRANCH  20  24
ATOM     24  C   UNL     1       1.479   3.370  19.872  0.00  0.00    +0.000 C 
ATOM     25  O   UNL     1       0.764   4.234  20.442  0.00  0.00    +0.000 OA
ATOM     26  OXT UNL     1       2.354   2.581  20.362  0.00  0.00    +0.000 OA
ENDBRANCH  20  24
ENDBRANCH  19  20
ENDBRANCH   2  19
TORSDOF 7
ENDMDL
MODEL 8
REMARK VINA RESULT:      -7.9      1.292      1.734
REMARK  Name = 
REMARK  9 active torsions:
REMARK  status: ('A' for Active; 'I' for Inactive)
REMARK    1  A    between atoms: C_1  and  C_2
REMARK    2  A    between atoms: C_2  and  C_3
REMARK    3  A    between atoms: C_2  and  C_4
REMARK    4  A    between atoms: C_7  and  C_8
REMARK    5  A    between atoms: C_8  and  C_16
REMARK    6  A    between atoms: C_9  and  C_10
REMARK    7  A    between atoms: C_10  and  CA_11
REMARK    8  A    between atoms: CA_11  and  N_12
REMARK    9  A    between atoms: CA_11  and  C_13
REMARK                            x       y       z     vdW  Elec       q    Type
REMARK                         _______ _______ _______ _____ _____    ______ ____
ROOT
ATOM      1  C   UNL     1       3.386   5.291  17.829  0.00  0.00    +0.000 C 
ATOM      2  C   UNL     1       2.688   4.148  17.669  0.00  0.00    +0.000 C 
ENDROOT
BRANCH   1   3
ATOM      3  C   UNL     1       4.811   5.239  17.438  0.00  0.00    +0.000 A 
ATOM      4  C   UNL     1       5.177   5.094  16.095  0.00  0.00    +0.000 A 
ATOM      5  C   UNL     1       6.526   4.984  15.738  0.00  0.00    +0.000 A 
ATOM      6  C   UNL     1       7.518   5.015  16.718  0.00  0.00    +0.000 A 
ATOM      7  C   UNL     1       7.164   5.168  18.059  0.00  0.00    +0.000 A 
ATOM      8  C   UNL     1       5.813   5.284  18.411  0.00  0.00    +0.000 A 
ATOM      9  F   UNL     1       5.508   5.419  19.706  0.00  0.00    +0.000 F 
ENDBRANCH   1   3
BRANCH   1  13
ATOM     10  C   UNL     1       1.538   8.914  19.235  0.00  0.00    +0.000 A 
ATOM     11  C   UNL     1       1.845   7.876  20.132  0.00  0.00    +0.000 A 
ATOM     12  C   UNL     1       2.432   6.688  19.680  0.00  0.00    +0.000 A 
ATOM     13  C   UNL     1       2.727   6.516  18.324  0.00  0.00    +0.000 A 
ATOM     14  C   UNL     1       2.409   7.537  17.427  0.00  0.00    +0.000 A 
ATOM     15  C   UNL     1       1.826   8.726  17.875  0.00  0.00    +0.000 A 
BRANCH  10  17
ATOM     16  C   UNL     1       1.360  11.350  18.767  0.00  0.00    +0.000 C 
ATOM     17  C   UNL     1       1.013  10.238  19.758  0.00  0.00    +0.000 C 
ATOM     18  C   UNL     1      -0.488  10.245  20.071  0.00  0.00    +0.000 C 
ENDBRANCH  10  17
ENDBRANCH   1  13
BRANCH   2  19
ATOM     19  C   UNL     1       1.259   3.881  18.073  0.00  0.00    +0.000 C 
BRANCH  19  20
ATOM     20  CA  UNL     1       1.023   2.560  18.819  0.00  0.00    +0.000 C 
BRANCH  20  21
ATOM     21  N   UNL     1       2.050   1.517  18.547  0.00  0.00    +0.000 NA
ATOM     22  H1  UNL     1       2.773   1.672  19.264  0.00  0.00    +0.000 HD
ATOM     23  H2  UNL     1       2.482   1.696  17.647  0.00  0.00    +0.000 HD
ENDBRANCH  20  21
BRANCH  20  24
ATOM     24  C   UNL     1       1.087   3.054  20.314  0.00  0.00    +0.000 C 
ATOM     25  O   UNL     1       1.678   2.288  21.119  0.00  0.00    +0.000 OA
ATOM     26  OXT UNL     1       0.602   4.219  20.502  0.00  0.00    +0.000 OA
ENDBRANCH  20  24
ENDBRANCH  19  20
ENDBRANCH   2  19
TORSDOF 7
ENDMDL
MODEL 9
REMARK VINA RESULT:      -7.9      1.137      1.794
REMARK  Name = 
REMARK  9 active torsions:
REMARK  status: ('A' for Active; 'I' for Inactive)
REMARK    1  A    between atoms: C_1  and  C_2
REMARK    2  A    between atoms: C_2  and  C_3
REMARK    3  A    between atoms: C_2  and  C_4
REMARK    4  A    between atoms: C_7  and  C_8
REMARK    5  A    between atoms: C_8  and  C_16
REMARK    6  A    between atoms: C_9  and  C_10
REMARK    7  A    between atoms: C_10  and  CA_11
REMARK    8  A    between atoms: CA_11  and  N_12
REMARK    9  A    between atoms: CA_11  and  C_13
REMARK                            x       y       z     vdW  Elec       q    Type
REMARK                         _______ _______ _______ _____ _____    ______ ____
ROOT
ATOM      1  C   UNL     1       3.405   5.534  17.850  0.00  0.00    +0.000 C 
ATOM      2  C   UNL     1       2.748   4.371  17.669  0.00  0.00    +0.000 C 
ENDROOT
BRANCH   1   3
ATOM      3  C   UNL     1       4.797   5.576  17.352  0.00  0.00    +0.000 A 
ATOM      4  C   UNL     1       5.064   5.545  15.978  0.00  0.00    +0.000 A 
ATOM      5  C   UNL     1       6.385   5.522  15.515  0.00  0.00    +0.000 A 
ATOM      6  C   UNL     1       7.447   5.528  16.419  0.00  0.00    +0.000 A 
ATOM      7  C   UNL     1       7.192   5.567  17.790  0.00  0.00    +0.000 A 
ATOM      8  C   UNL     1       5.868   5.596  18.248  0.00  0.00    +0.000 A 
ATOM      9  F   UNL     1       5.659   5.623  19.569  0.00  0.00    +0.000 F 
ENDBRANCH   1   3
BRANCH   1  13
ATOM     10  C   UNL     1       1.375   8.854  19.685  0.00  0.00    +0.000 A 
ATOM     11  C   UNL     1       1.731   8.900  18.327  0.00  0.00    +0.000 A 
ATOM     12  C   UNL     1       2.406   7.831  17.725  0.00  0.00    +0.000 A 
ATOM     13  C   UNL     1       2.734   6.693  18.470  0.00  0.00    +0.000 A 
ATOM     14  C   UNL     1       2.397   6.650  19.825  0.00  0.00    +0.000 A 
ATOM     15  C   UNL     1       1.720   7.714  20.426  0.00  0.00    +0.000 A 
BRANCH  10  17
ATOM     16  C   UNL     1      -0.536  10.396  19.291  0.00  0.00    +0.000 C 
ATOM     17  C   UNL     1       0.541   9.970  20.289  0.00  0.00    +0.000 C 
ATOM     18  C   UNL     1      -0.087   9.628  21.645  0.00  0.00    +0.000 C 
ENDBRANCH  10  17
ENDBRANCH   1  13
BRANCH   2  19
ATOM     19  C   UNL     1       1.368   4.010  18.159  0.00  0.00    +0.000 C 
BRANCH  19  20
ATOM     20  CA  UNL     1       1.249   2.637  18.836  0.00  0.00    +0.000 C 
BRANCH  20  21
ATOM     21  N   UNL     1       2.061   1.570  18.192  0.00  0.00    +0.000 NA
ATOM     22  H1  UNL     1       2.138   1.862  17.207  0.00  0.00    +0.000 HD
ATOM     23  H2  UNL     1       1.544   0.698  18.203  0.00  0.00    +0.000 HD
ENDBRANCH  20  21
BRANCH  20  24
ATOM     24  C   UNL     1       1.784   2.976  20.279  0.00  0.00    +0.000 C 
ATOM     25  O   UNL     1       0.974   3.567  21.039  0.00  0.00    +0.000 OA
ATOM     26  OXT UNL     1       2.953   2.525  20.523  0.00  0.00    +0.000 OA
ENDBRANCH  20  24
ENDBRANCH  19  20
ENDBRANCH   2  19
TORSDOF 7
ENDMDL
