MODEL 1
REMARK VINA RESULT:      -7.4      0.000      0.000
REMARK  Name = 
REMARK  3 active torsions:
REMARK  status: ('A' for Active; 'I' for Inactive)
REMARK    1  A    between atoms: C_1  and  C_2
REMARK    2  A    between atoms: C_9  and  C_10
REMARK    3  A    between atoms: C_9  and  C_11
REMARK                            x       y       z     vdW  Elec       q    Type
REMARK                         _______ _______ _______ _____ _____    ______ ____
ROOT
ATOM      1  C   UNL     1       0.509  10.109  20.546  0.00  0.00    +0.000 C 
ATOM      2  C   UNL     1       1.243   8.927  19.988  0.00  0.00    +0.000 A 
ATOM      3  C   UNL     1       1.696   8.918  18.669  0.00  0.00    +0.000 A 
ATOM      4  C   UNL     1       2.358   7.800  18.150  0.00  0.00    +0.000 A 
ATOM      5  C   UNL     1       2.595   6.659  18.933  0.00  0.00    +0.000 A 
ATOM      6  C   UNL     1       2.079   6.649  20.244  0.00  0.00    +0.000 A 
ATOM      7  C   UNL     1       1.453   7.791  20.775  0.00  0.00    +0.000 A 
ATOM      8  N   UNL     1       2.233   5.519  21.061  0.00  0.00    +0.000 N 
ATOM      9  C   UNL     1       2.193   4.218  20.361  0.00  0.00    +0.000 C 
ATOM     10  C   UNL     1       2.638   3.174  21.411  0.00  0.00    +0.000 C 
ATOM     11  C   UNL     1       0.741   3.897  19.948  0.00  0.00    +0.000 C 
ATOM     12  C   UNL     1       3.094   4.288  19.122  0.00  0.00    +0.000 A 
ATOM     13  S   UNL     1       3.847   2.824  18.550  0.00  0.00    +0.000 S 
ATOM     14  S   UNL     1       4.752   3.689  16.966  0.00  0.00    +0.000 S 
ATOM     15  C   UNL     1       4.290   5.356  17.319  0.00  0.00    +0.000 A 
ATOM     16  S   UNL     1       4.997   6.575  16.404  0.00  0.00    +0.000 S 
ATOM     17  C   UNL     1       3.318   5.447  18.459  0.00  0.00    +0.000 A 
ATOM     18  H   UNL     1       1.642   5.546  21.888  0.00  0.00    +0.000 HD
ENDROOT
TORSDOF 0
ENDMDL
MODEL 2
REMARK VINA RESULT:      -7.3      2.664      4.913
REMARK  Name = 
REMARK  3 active torsions:
REMARK  status: ('A' for Active; 'I' for Inactive)
REMARK    1  A    between atoms: C_1  and  C_2
REMARK    2  A    between atoms: C_9  and  C_10
REMARK    3  A    between atoms: C_9  and  C_11
REMARK                            x       y       z     vdW  Elec       q    Type
REMARK                         _______ _______ _______ _____ _____    ______ ____
ROOT
ATOM      1  C   UNL     1       6.472   4.189  13.976  0.00  0.00    +0.000 C 
ATOM      2  C   UNL     1       5.602   4.606  15.124  0.00  0.00    +0.000 A 
ATOM      3  C   UNL     1       5.579   5.928  15.566  0.00  0.00    +0.000 A 
ATOM      4  C   UNL     1       4.783   6.303  16.654  0.00  0.00    +0.000 A 
ATOM      5  C   UNL     1       3.980   5.370  17.330  0.00  0.00    +0.000 A 
ATOM      6  C   UNL     1       4.056   4.024  16.920  0.00  0.00    +0.000 A 
ATOM      7  C   UNL     1       4.824   3.661  15.800  0.00  0.00    +0.000 A 
ATOM      8  N   UNL     1       3.321   3.034  17.588  0.00  0.00    +0.000 N 
ATOM      9  C   UNL     1       3.154   3.238  19.043  0.00  0.00    +0.000 C 
ATOM     10  C   UNL     1       2.116   2.183  19.488  0.00  0.00    +0.000 C 
ATOM     11  C   UNL     1       4.486   2.938  19.763  0.00  0.00    +0.000 C 
ATOM     12  C   UNL     1       2.728   4.689  19.299  0.00  0.00    +0.000 A 
ATOM     13  S   UNL     1       1.757   5.041  20.703  0.00  0.00    +0.000 S 
ATOM     14  S   UNL     1       1.679   7.032  20.378  0.00  0.00    +0.000 S 
ATOM     15  C   UNL     1       2.515   7.045  18.824  0.00  0.00    +0.000 A 
ATOM     16  S   UNL     1       2.530   8.482  17.953  0.00  0.00    +0.000 S 
ATOM     17  C   UNL     1       3.086   5.701  18.474  0.00  0.00    +0.000 A 
ATOM     18  H   UNL     1       3.619   2.091  17.349  0.00  0.00    +0.000 HD
ENDROOT
TORSDOF 0
ENDMDL
MODEL 3
REMARK VINA RESULT:      -6.0      8.051     10.190
REMARK  Name = 
REMARK  3 active torsions:
REMARK  status: ('A' for Active; 'I' for Inactive)
REMARK    1  A    between atoms: C_1  and  C_2
REMARK    2  A    between atoms: C_9  and  C_10
REMARK    3  A    between atoms: C_9  and  C_11
REMARK                            x       y       z     vdW  Elec       q    Type
REMARK                         _______ _______ _______ _____ _____    ______ ____
ROOT
ATOM      1  C   UNL     1      -2.734   9.740  14.184  0.00  0.00    +0.000 C 
ATOM      2  C   UNL     1      -3.034  10.352  15.520  0.00  0.00    +0.000 A 
ATOM      3  C   UNL     1      -2.125  10.263  16.573  0.00  0.00    +0.000 A 
ATOM      4  C   UNL     1      -2.424  10.815  17.823  0.00  0.00    +0.000 A 
ATOM      5  C   UNL     1      -3.638  11.480  18.058  0.00  0.00    +0.000 A 
ATOM      6  C   UNL     1      -4.579  11.512  17.010  0.00  0.00    +0.000 A 
ATOM      7  C   UNL     1      -4.256  10.993  15.744  0.00  0.00    +0.000 A 
ATOM      8  N   UNL     1      -5.833  12.113  17.196  0.00  0.00    +0.000 N 
ATOM      9  C   UNL     1      -6.408  11.978  18.552  0.00  0.00    +0.000 C 
ATOM     10  C   UNL     1      -7.631  12.923  18.574  0.00  0.00    +0.000 C 
ATOM     11  C   UNL     1      -6.911  10.534  18.759  0.00  0.00    +0.000 C 
ATOM     12  C   UNL     1      -5.330  12.319  19.588  0.00  0.00    +0.000 A 
ATOM     13  S   UNL     1      -5.825  12.979  21.124  0.00  0.00    +0.000 S 
ATOM     14  S   UNL     1      -3.959  13.087  21.888  0.00  0.00    +0.000 S 
ATOM     15  C   UNL     1      -3.087  12.583  20.438  0.00  0.00    +0.000 A 
ATOM     16  S   UNL     1      -1.412  12.720  20.442  0.00  0.00    +0.000 S 
ATOM     17  C   UNL     1      -4.013  12.118  19.351  0.00  0.00    +0.000 A 
ATOM     18  H   UNL     1      -6.494  11.886  16.458  0.00  0.00    +0.000 HD
ENDROOT
TORSDOF 0
ENDMDL
MODEL 4
REMARK VINA RESULT:      -5.9      1.680      3.496
REMARK  Name = 
REMARK  3 active torsions:
REMARK  status: ('A' for Active; 'I' for Inactive)
REMARK    1  A    between atoms: C_1  and  C_2
REMARK    2  A    between atoms: C_9  and  C_10
REMARK    3  A    between atoms: C_9  and  C_11
REMARK                            x       y       z     vdW  Elec       q    Type
REMARK                         _______ _______ _______ _____ _____    ______ ____
ROOT
ATOM      1  C   UNL     1       0.945   9.865  20.639  0.00  0.00    +0.000 C 
ATOM      2  C   UNL     1       1.450   8.551  20.123  0.00  0.00    +0.000 A 
ATOM      3  C   UNL     1       1.261   7.374  20.845  0.00  0.00    +0.000 A 
ATOM      4  C   UNL     1       1.758   6.156  20.367  0.00  0.00    +0.000 A 
ATOM      5  C   UNL     1       2.453   6.075  19.149  0.00  0.00    +0.000 A 
ATOM      6  C   UNL     1       2.696   7.278  18.455  0.00  0.00    +0.000 A 
ATOM      7  C   UNL     1       2.157   8.491  18.918  0.00  0.00    +0.000 A 
ATOM      8  N   UNL     1       3.430   7.274  17.260  0.00  0.00    +0.000 N 
ATOM      9  C   UNL     1       4.518   6.275  17.185  0.00  0.00    +0.000 C 
ATOM     10  C   UNL     1       4.990   6.293  15.714  0.00  0.00    +0.000 C 
ATOM     11  C   UNL     1       5.696   6.725  18.075  0.00  0.00    +0.000 C 
ATOM     12  C   UNL     1       3.984   4.918  17.659  0.00  0.00    +0.000 A 
ATOM     13  S   UNL     1       4.700   3.465  17.013  0.00  0.00    +0.000 S 
ATOM     14  S   UNL     1       3.564   2.200  18.103  0.00  0.00    +0.000 S 
ATOM     15  C   UNL     1       2.525   3.413  18.854  0.00  0.00    +0.000 A 
ATOM     16  S   UNL     1       1.192   2.873  19.724  0.00  0.00    +0.000 S 
ATOM     17  C   UNL     1       2.983   4.813  18.564  0.00  0.00    +0.000 A 
ATOM     18  H   UNL     1       3.722   8.204  16.973  0.00  0.00    +0.000 HD
ENDROOT
TORSDOF 0
ENDMDL
MODEL 5
REMARK VINA RESULT:      -5.9      1.726      3.567
REMARK  Name = 
REMARK  3 active torsions:
REMARK  status: ('A' for Active; 'I' for Inactive)
REMARK    1  A    between atoms: C_1  and  C_2
REMARK    2  A    between atoms: C_9  and  C_10
REMARK    3  A    between atoms: C_9  and  C_11
REMARK                            x       y       z     vdW  Elec       q    Type
REMARK                         _______ _______ _______ _____ _____    ______ ____
ROOT
ATOM      1  C   UNL     1       0.799  10.623  19.316  0.00  0.00    +0.000 C 
ATOM      2  C   UNL     1       1.426   9.262  19.280  0.00  0.00    +0.000 A 
ATOM      3  C   UNL     1       1.382   8.419  20.389  0.00  0.00    +0.000 A 
ATOM      4  C   UNL     1       1.992   7.161  20.354  0.00  0.00    +0.000 A 
ATOM      5  C   UNL     1       2.658   6.701  19.206  0.00  0.00    +0.000 A 
ATOM      6  C   UNL     1       2.754   7.581  18.110  0.00  0.00    +0.000 A 
ATOM      7  C   UNL     1       2.102   8.827  18.136  0.00  0.00    +0.000 A 
ATOM      8  N   UNL     1       3.452   7.204  16.953  0.00  0.00    +0.000 N 
ATOM      9  C   UNL     1       4.636   6.348  17.175  0.00  0.00    +0.000 C 
ATOM     10  C   UNL     1       5.064   5.867  15.770  0.00  0.00    +0.000 C 
ATOM     11  C   UNL     1       5.784   7.196  17.764  0.00  0.00    +0.000 C 
ATOM     12  C   UNL     1       4.262   5.218  18.141  0.00  0.00    +0.000 A 
ATOM     13  S   UNL     1       5.110   3.699  18.021  0.00  0.00    +0.000 S 
ATOM     14  S   UNL     1       4.145   2.827  19.565  0.00  0.00    +0.000 S 
ATOM     15  C   UNL     1       3.004   4.133  19.891  0.00  0.00    +0.000 A 
ATOM     16  S   UNL     1       1.760   3.834  20.981  0.00  0.00    +0.000 S 
ATOM     17  C   UNL     1       3.303   5.364  19.085  0.00  0.00    +0.000 A 
ATOM     18  H   UNL     1       3.636   7.987  16.330  0.00  0.00    +0.000 HD
ENDROOT
TORSDOF 0
ENDMDL
MODEL 6
REMARK VINA RESULT:      -5.9      4.709      7.169
REMARK  Name = 
REMARK  3 active torsions:
REMARK  status: ('A' for Active; 'I' for Inactive)
REMARK    1  A    between atoms: C_1  and  C_2
REMARK    2  A    between atoms: C_9  and  C_10
REMARK    3  A    between atoms: C_9  and  C_11
REMARK                            x       y       z     vdW  Elec       q    Type
REMARK                         _______ _______ _______ _____ _____    ______ ____
ROOT
ATOM      1  C   UNL     1       3.427   6.860  17.768  0.00  0.00    +0.000 C 
ATOM      2  C   UNL     1       2.525   7.736  18.585  0.00  0.00    +0.000 A 
ATOM      3  C   UNL     1       2.036   7.313  19.820  0.00  0.00    +0.000 A 
ATOM      4  C   UNL     1       1.175   8.128  20.563  0.00  0.00    +0.000 A 
ATOM      5  C   UNL     1       0.781   9.393  20.100  0.00  0.00    +0.000 A 
ATOM      6  C   UNL     1       1.227   9.789  18.823  0.00  0.00    +0.000 A 
ATOM      7  C   UNL     1       2.126   8.985  18.100  0.00  0.00    +0.000 A 
ATOM      8  N   UNL     1       0.826  11.017  18.278  0.00  0.00    +0.000 N 
ATOM      9  C   UNL     1      -0.544  11.451  18.626  0.00  0.00    +0.000 C 
ATOM     10  C   UNL     1      -0.648  12.913  18.136  0.00  0.00    +0.000 C 
ATOM     11  C   UNL     1      -1.570  10.605  17.841  0.00  0.00    +0.000 C 
ATOM     12  C   UNL     1      -0.756  11.276  20.134  0.00  0.00    +0.000 A 
ATOM     13  S   UNL     1      -1.876  12.333  20.951  0.00  0.00    +0.000 S 
ATOM     14  S   UNL     1      -1.646  11.478  22.766  0.00  0.00    +0.000 S 
ATOM     15  C   UNL     1      -0.366  10.345  22.327  0.00  0.00    +0.000 A 
ATOM     16  S   UNL     1       0.394   9.502  23.566  0.00  0.00    +0.000 S 
ATOM     17  C   UNL     1      -0.108  10.326  20.848  0.00  0.00    +0.000 A 
ATOM     18  H   UNL     1       1.028  11.094  17.284  0.00  0.00    +0.000 HD
ENDROOT
TORSDOF 0
ENDMDL
MODEL 7
REMARK VINA RESULT:      -5.9      4.307      6.608
REMARK  Name = 
REMARK  3 active torsions:
REMARK  status: ('A' for Active; 'I' for Inactive)
REMARK    1  A    between atoms: C_1  and  C_2
REMARK    2  A    between atoms: C_9  and  C_10
REMARK    3  A    between atoms: C_9  and  C_11
REMARK                            x       y       z     vdW  Elec       q    Type
REMARK                         _______ _______ _______ _____ _____    ______ ____
ROOT
ATOM      1  C   UNL     1       7.259   4.161  11.850  0.00  0.00    +0.000 C 
ATOM      2  C   UNL     1       6.640   4.189  13.215  0.00  0.00    +0.000 A 
ATOM      3  C   UNL     1       5.300   3.854  13.406  0.00  0.00    +0.000 A 
ATOM      4  C   UNL     1       4.725   3.908  14.680  0.00  0.00    +0.000 A 
ATOM      5  C   UNL     1       5.473   4.291  15.806  0.00  0.00    +0.000 A 
ATOM      6  C   UNL     1       6.808   4.690  15.598  0.00  0.00    +0.000 A 
ATOM      7  C   UNL     1       7.392   4.592  14.323  0.00  0.00    +0.000 A 
ATOM      8  N   UNL     1       7.593   5.136  16.671  0.00  0.00    +0.000 N 
ATOM      9  C   UNL     1       6.870   5.887  17.719  0.00  0.00    +0.000 C 
ATOM     10  C   UNL     1       7.875   6.034  18.885  0.00  0.00    +0.000 C 
ATOM     11  C   UNL     1       6.525   7.299  17.199  0.00  0.00    +0.000 C 
ATOM     12  C   UNL     1       5.588   5.129  18.084  0.00  0.00    +0.000 A 
ATOM     13  S   UNL     1       4.949   5.293  19.698  0.00  0.00    +0.000 S 
ATOM     14  S   UNL     1       3.338   4.118  19.378  0.00  0.00    +0.000 S 
ATOM     15  C   UNL     1       3.747   3.607  17.739  0.00  0.00    +0.000 A 
ATOM     16  S   UNL     1       2.822   2.389  17.043  0.00  0.00    +0.000 S 
ATOM     17  C   UNL     1       4.937   4.343  17.194  0.00  0.00    +0.000 A 
ATOM     18  H   UNL     1       8.450   5.594  16.371  0.00  0.00    +0.000 HD
ENDROOT
TORSDOF 0
ENDMDL
MODEL 8
REMARK VINA RESULT:      -5.6      8.056      9.579
REMARK  Name = 
REMARK  3 active torsions:
REMARK  status: ('A' for Active; 'I' for Inactive)
REMARK    1  A    between atoms: C_1  and  C_2
REMARK    2  A    between atoms: C_9  and  C_10
REMARK    3  A    between atoms: C_9  and  C_11
REMARK                            x       y       z     vdW  Elec       q    Type
REMARK                         _______ _______ _______ _____ _____    ______ ____
ROOT
ATOM      1  C   UNL     1      -3.022   9.988  14.726  0.00  0.00    +0.000 C 
ATOM      2  C   UNL     1      -3.213  10.598  16.083  0.00  0.00    +0.000 A 
ATOM      3  C   UNL     1      -4.412  11.218  16.431  0.00  0.00    +0.000 A 
ATOM      4  C   UNL     1      -4.572  11.807  17.690  0.00  0.00    +0.000 A 
ATOM      5  C   UNL     1      -3.542  11.787  18.644  0.00  0.00    +0.000 A 
ATOM      6  C   UNL     1      -2.311  11.215  18.264  0.00  0.00    +0.000 A 
ATOM      7  C   UNL     1      -2.171  10.588  17.014  0.00  0.00    +0.000 A 
ATOM      8  N   UNL     1      -1.224  11.212  19.151  0.00  0.00    +0.000 N 
ATOM      9  C   UNL     1      -1.121  12.392  20.036  0.00  0.00    +0.000 C 
ATOM     10  C   UNL     1      -0.027  12.036  21.068  0.00  0.00    +0.000 C 
ATOM     11  C   UNL     1      -0.636  13.610  19.220  0.00  0.00    +0.000 C 
ATOM     12  C   UNL     1      -2.496  12.679  20.649  0.00  0.00    +0.000 A 
ATOM     13  S   UNL     1      -2.573  13.441  22.215  0.00  0.00    +0.000 S 
ATOM     14  S   UNL     1      -4.589  13.521  22.284  0.00  0.00    +0.000 S 
ATOM     15  C   UNL     1      -4.905  12.637  20.789  0.00  0.00    +0.000 A 
ATOM     16  S   UNL     1      -6.493  12.195  20.460  0.00  0.00    +0.000 S 
ATOM     17  C   UNL     1      -3.649  12.365  20.012  0.00  0.00    +0.000 A 
ATOM     18  H   UNL     1      -0.345  10.975  18.698  0.00  0.00    +0.000 HD
ENDROOT
TORSDOF 0
ENDMDL
MODEL 9
REMARK VINA RESULT:      -5.6      7.956      9.215
REMARK  Name = 
REMARK  3 active torsions:
REMARK  status: ('A' for Active; 'I' for Inactive)
REMARK    1  A    between atoms: C_1  and  C_2
REMARK    2  A    between atoms: C_9  and  C_10
REMARK    3  A    between atoms: C_9  and  C_11
REMARK                            x       y       z     vdW  Elec       q    Type
REMARK                         _______ _______ _______ _____ _____    ______ ____
ROOT
ATOM      1  C   UNL     1       2.132  13.080  20.111  0.00  0.00    +0.000 C 
ATOM      2  C   UNL     1       0.657  12.874  19.939  0.00  0.00    +0.000 A 
ATOM      3  C   UNL     1      -0.205  12.886  21.035  0.00  0.00    +0.000 A 
ATOM      4  C   UNL     1      -1.576  12.666  20.867  0.00  0.00    +0.000 A 
ATOM      5  C   UNL     1      -2.132  12.436  19.598  0.00  0.00    +0.000 A 
ATOM      6  C   UNL     1      -1.248  12.362  18.503  0.00  0.00    +0.000 A 
ATOM      7  C   UNL     1       0.122  12.625  18.671  0.00  0.00    +0.000 A 
ATOM      8  N   UNL     1      -1.732  12.080  17.216  0.00  0.00    +0.000 N 
ATOM      9  C   UNL     1      -2.883  11.155  17.157  0.00  0.00    +0.000 C 
ATOM     10  C   UNL     1      -3.381  11.212  15.695  0.00  0.00    +0.000 C 
ATOM     11  C   UNL     1      -2.406   9.716  17.448  0.00  0.00    +0.000 C 
ATOM     12  C   UNL     1      -3.926  11.587  18.195  0.00  0.00    +0.000 A 
ATOM     13  S   UNL     1      -5.606  11.237  17.890  0.00  0.00    +0.000 S 
ATOM     14  S   UNL     1      -6.275  12.016  19.628  0.00  0.00    +0.000 S 
ATOM     15  C   UNL     1      -4.733  12.652  20.205  0.00  0.00    +0.000 A 
ATOM     16  S   UNL     1      -4.751  13.642  21.562  0.00  0.00    +0.000 S 
ATOM     17  C   UNL     1      -3.583  12.225  19.339  0.00  0.00    +0.000 A 
ATOM     18  H   UNL     1      -0.993  11.840  16.560  0.00  0.00    +0.000 HD
ENDROOT
TORSDOF 0
ENDMDL
