MODEL 1
REMARK VINA RESULT:      -7.3      0.000      0.000
REMARK  Name = 
REMARK  6 active torsions:
REMARK  status: ('A' for Active; 'I' for Inactive)
REMARK    1  A    between atoms: C_1  and  C_2
REMARK    2  A    between atoms: C_2  and  O_3
REMARK    3  A    between atoms: O_3  and  C_4
REMARK    4  A    between atoms: C_4  and  C_5
REMARK    5  A    between atoms: N_7  and  C_8
REMARK    6  A    between atoms: C_13  and  C_14
REMARK                            x       y       z     vdW  Elec       q    Type
REMARK                         _______ _______ _______ _____ _____    ______ ____
ROOT
ATOM      1  C   UNL     1       2.589   6.490  19.742  0.00  0.00    +0.000 A 
ATOM      2  C   UNL     1       1.835   7.497  20.374  0.00  0.00    +0.000 A 
ATOM      3  C   UNL     1       1.492   8.666  19.690  0.00  0.00    +0.000 A 
ATOM      4  C   UNL     1       1.861   8.840  18.357  0.00  0.00    +0.000 A 
ATOM      5  C   UNL     1       2.569   7.833  17.705  0.00  0.00    +0.000 A 
ATOM      6  C   UNL     1       2.975   6.673  18.399  0.00  0.00    +0.000 A 
ENDROOT
BRANCH   6   7
ATOM      7  C   UNL     1       3.592   5.575  17.612  0.00  0.00    +0.000 C 
ATOM      8  O   UNL     1       2.890   4.590  17.382  0.00  0.00    +0.000 OA
ATOM      9  N   UNL     1       4.877   5.717  17.080  0.00  0.00    +0.000 N 
ATOM     10  C   UNL     1       5.297   4.793  16.042  0.00  0.00    +0.000 C 
ATOM     11  C   UNL     1       6.788   4.442  16.076  0.00  0.00    +0.000 C 
ATOM     12  O   UNL     1       7.572   5.059  17.089  0.00  0.00    +0.000 OA
ATOM     13  C   UNL     1       7.241   6.392  17.463  0.00  0.00    +0.000 C 
ATOM     14  C   UNL     1       5.785   6.831  17.288  0.00  0.00    +0.000 C 
ENDBRANCH   6   7
BRANCH   1  17
ATOM     15  C   UNL     1       2.045   4.312  20.628  0.00  0.00    +0.000 C 
ATOM     16  O   UNL     1       0.905   4.377  20.166  0.00  0.00    +0.000 OA
ATOM     17  N   UNL     1       2.962   5.346  20.509  0.00  0.00    +0.000 N 
ATOM     18  H   UNL     1       3.923   5.036  20.435  0.00  0.00    +0.000 HD
BRANCH  15  19
ATOM     19  C   UNL     1       2.510   3.012  21.340  0.00  0.00    +0.000 C 
BRANCH  19  20
ATOM     20  O   UNL     1       3.762   2.389  21.116  0.00  0.00    +0.000 OA
BRANCH  20  22
ATOM     21  C   UNL     1       3.512   1.520  18.864  0.00  0.00    +0.000 C 
ATOM     22  C   UNL     1       4.258   2.486  19.781  0.00  0.00    +0.000 C 
ENDBRANCH  20  22
ENDBRANCH  19  20
ENDBRANCH  15  19
ENDBRANCH   1  17
TORSDOF 5
ENDMDL
MODEL 2
REMARK VINA RESULT:      -7.2      2.713      6.300
REMARK  Name = 
REMARK  6 active torsions:
REMARK  status: ('A' for Active; 'I' for Inactive)
REMARK    1  A    between atoms: C_1  and  C_2
REMARK    2  A    between atoms: C_2  and  O_3
REMARK    3  A    between atoms: O_3  and  C_4
REMARK    4  A    between atoms: C_4  and  C_5
REMARK    5  A    between atoms: N_7  and  C_8
REMARK    6  A    between atoms: C_13  and  C_14
REMARK                            x       y       z     vdW  Elec       q    Type
REMARK                         _______ _______ _______ _____ _____    ______ ____
ROOT
ATOM      1  C   UNL     1       6.320   4.318  17.234  0.00  0.00    +0.000 A 
ATOM      2  C   UNL     1       7.668   4.536  17.573  0.00  0.00    +0.000 A 
ATOM      3  C   UNL     1       8.007   5.202  18.753  0.00  0.00    +0.000 A 
ATOM      4  C   UNL     1       7.014   5.633  19.633  0.00  0.00    +0.000 A 
ATOM      5  C   UNL     1       5.677   5.384  19.332  0.00  0.00    +0.000 A 
ATOM      6  C   UNL     1       5.316   4.765  18.115  0.00  0.00    +0.000 A 
ENDROOT
BRANCH   6   7
ATOM      7  C   UNL     1       3.891   4.395  17.923  0.00  0.00    +0.000 C 
ATOM      8  O   UNL     1       3.303   4.910  16.972  0.00  0.00    +0.000 OA
ATOM      9  N   UNL     1       3.292   3.429  18.736  0.00  0.00    +0.000 N 
ATOM     10  C   UNL     1       2.034   2.847  18.301  0.00  0.00    +0.000 C 
ATOM     11  C   UNL     1       1.077   2.489  19.442  0.00  0.00    +0.000 C 
ATOM     12  O   UNL     1       1.527   2.748  20.766  0.00  0.00    +0.000 OA
ATOM     13  C   UNL     1       2.912   2.571  21.042  0.00  0.00    +0.000 C 
ATOM     14  C   UNL     1       3.890   2.763  19.880  0.00  0.00    +0.000 C 
ENDBRANCH   6   7
BRANCH   1  17
ATOM     15  C   UNL     1       6.115   4.454  14.833  0.00  0.00    +0.000 C 
ATOM     16  O   UNL     1       6.349   5.664  14.853  0.00  0.00    +0.000 OA
ATOM     17  N   UNL     1       6.033   3.687  15.986  0.00  0.00    +0.000 N 
ATOM     18  H   UNL     1       6.351   2.734  15.868  0.00  0.00    +0.000 HD
BRANCH  15  19
ATOM     19  C   UNL     1       5.944   3.731  13.468  0.00  0.00    +0.000 C 
BRANCH  19  20
ATOM     20  O   UNL     1       4.740   3.721  12.722  0.00  0.00    +0.000 OA
BRANCH  20  22
ATOM     21  C   UNL     1       3.498   3.190  10.707  0.00  0.00    +0.000 C 
ATOM     22  C   UNL     1       4.797   3.009  11.486  0.00  0.00    +0.000 C 
ENDBRANCH  20  22
ENDBRANCH  19  20
ENDBRANCH  15  19
ENDBRANCH   1  17
TORSDOF 5
ENDMDL
MODEL 3
REMARK VINA RESULT:      -6.9      2.120      4.814
REMARK  Name = 
REMARK  6 active torsions:
REMARK  status: ('A' for Active; 'I' for Inactive)
REMARK    1  A    between atoms: C_1  and  C_2
REMARK    2  A    between atoms: C_2  and  O_3
REMARK    3  A    between atoms: O_3  and  C_4
REMARK    4  A    between atoms: C_4  and  C_5
REMARK    5  A    between atoms: N_7  and  C_8
REMARK    6  A    between atoms: C_13  and  C_14
REMARK                            x       y       z     vdW  Elec       q    Type
REMARK                         _______ _______ _______ _____ _____    ______ ____
ROOT
ATOM      1  C   UNL     1       2.514   4.840  18.931  0.00  0.00    +0.000 A 
ATOM      2  C   UNL     1       1.301   4.357  19.457  0.00  0.00    +0.000 A 
ATOM      3  C   UNL     1       1.271   3.187  20.220  0.00  0.00    +0.000 A 
ATOM      4  C   UNL     1       2.449   2.496  20.503  0.00  0.00    +0.000 A 
ATOM      5  C   UNL     1       3.662   2.987  20.027  0.00  0.00    +0.000 A 
ATOM      6  C   UNL     1       3.702   4.134  19.204  0.00  0.00    +0.000 A 
ENDROOT
BRANCH   6   7
ATOM      7  C   UNL     1       5.034   4.690  18.856  0.00  0.00    +0.000 C 
ATOM      8  O   UNL     1       5.654   5.260  19.754  0.00  0.00    +0.000 OA
ATOM      9  N   UNL     1       5.584   4.478  17.588  0.00  0.00    +0.000 N 
ATOM     10  C   UNL     1       7.003   4.722  17.404  0.00  0.00    +0.000 C 
ATOM     11  C   UNL     1       7.376   5.259  16.019  0.00  0.00    +0.000 C 
ATOM     12  O   UNL     1       6.315   5.437  15.090  0.00  0.00    +0.000 OA
ATOM     13  C   UNL     1       5.241   4.504  15.123  0.00  0.00    +0.000 C 
ATOM     14  C   UNL     1       4.942   3.823  16.462  0.00  0.00    +0.000 C 
ENDBRANCH   6   7
BRANCH   1  17
ATOM     15  C   UNL     1       2.454   7.244  18.730  0.00  0.00    +0.000 C 
ATOM     16  O   UNL     1       2.393   7.374  19.954  0.00  0.00    +0.000 OA
ATOM     17  N   UNL     1       2.474   6.005  18.107  0.00  0.00    +0.000 N 
ATOM     18  H   UNL     1       3.017   5.983  17.253  0.00  0.00    +0.000 HD
BRANCH  15  19
ATOM     19  C   UNL     1       2.558   8.507  17.831  0.00  0.00    +0.000 C 
BRANCH  19  20
ATOM     20  O   UNL     1       1.447   9.296  17.441  0.00  0.00    +0.000 OA
BRANCH  20  22
ATOM     21  C   UNL     1      -0.606  10.224  18.340  0.00  0.00    +0.000 C 
ATOM     22  C   UNL     1       0.913  10.139  18.461  0.00  0.00    +0.000 C 
ENDBRANCH  20  22
ENDBRANCH  19  20
ENDBRANCH  15  19
ENDBRANCH   1  17
TORSDOF 5
ENDMDL
MODEL 4
REMARK VINA RESULT:      -6.9      1.809      4.695
REMARK  Name = 
REMARK  6 active torsions:
REMARK  status: ('A' for Active; 'I' for Inactive)
REMARK    1  A    between atoms: C_1  and  C_2
REMARK    2  A    between atoms: C_2  and  O_3
REMARK    3  A    between atoms: O_3  and  C_4
REMARK    4  A    between atoms: C_4  and  C_5
REMARK    5  A    between atoms: N_7  and  C_8
REMARK    6  A    between atoms: C_13  and  C_14
REMARK                            x       y       z     vdW  Elec       q    Type
REMARK                         _______ _______ _______ _____ _____    ______ ____
ROOT
ATOM      1  C   UNL     1       3.187   5.100  19.973  0.00  0.00    +0.000 A 
ATOM      2  C   UNL     1       2.069   4.625  20.683  0.00  0.00    +0.000 A 
ATOM      3  C   UNL     1       1.943   3.269  20.990  0.00  0.00    +0.000 A 
ATOM      4  C   UNL     1       2.942   2.365  20.629  0.00  0.00    +0.000 A 
ATOM      5  C   UNL     1       4.076   2.828  19.965  0.00  0.00    +0.000 A 
ATOM      6  C   UNL     1       4.190   4.186  19.595  0.00  0.00    +0.000 A 
ENDROOT
BRANCH   6   7
ATOM      7  C   UNL     1       5.484   4.642  19.026  0.00  0.00    +0.000 C 
ATOM      8  O   UNL     1       6.311   5.098  19.816  0.00  0.00    +0.000 OA
ATOM      9  N   UNL     1       5.768   4.461  17.670  0.00  0.00    +0.000 N 
ATOM     10  C   UNL     1       7.147   4.589  17.233  0.00  0.00    +0.000 C 
ATOM     11  C   UNL     1       7.311   5.175  15.827  0.00  0.00    +0.000 C 
ATOM     12  O   UNL     1       6.120   5.503  15.123  0.00  0.00    +0.000 OA
ATOM     13  C   UNL     1       4.983   4.669  15.317  0.00  0.00    +0.000 C 
ATOM     14  C   UNL     1       4.870   3.936  16.656  0.00  0.00    +0.000 C 
ENDBRANCH   6   7
BRANCH   1  17
ATOM     15  C   UNL     1       2.659   6.881  18.433  0.00  0.00    +0.000 C 
ATOM     16  O   UNL     1       2.188   6.080  17.623  0.00  0.00    +0.000 OA
ATOM     17  N   UNL     1       3.231   6.486  19.633  0.00  0.00    +0.000 N 
ATOM     18  H   UNL     1       3.103   7.149  20.386  0.00  0.00    +0.000 HD
BRANCH  15  19
ATOM     19  C   UNL     1       2.581   8.404  18.135  0.00  0.00    +0.000 C 
BRANCH  19  20
ATOM     20  O   UNL     1       1.515   9.022  17.434  0.00  0.00    +0.000 OA
BRANCH  20  22
ATOM     21  C   UNL     1       0.875   9.612  19.699  0.00  0.00    +0.000 C 
ATOM     22  C   UNL     1       0.710   9.908  18.211  0.00  0.00    +0.000 C 
ENDBRANCH  20  22
ENDBRANCH  19  20
ENDBRANCH  15  19
ENDBRANCH   1  17
TORSDOF 5
ENDMDL
MODEL 5
REMARK VINA RESULT:      -6.7      1.988      4.543
REMARK  Name = 
REMARK  6 active torsions:
REMARK  status: ('A' for Active; 'I' for Inactive)
REMARK    1  A    between atoms: C_1  and  C_2
REMARK    2  A    between atoms: C_2  and  O_3
REMARK    3  A    between atoms: O_3  and  C_4
REMARK    4  A    between atoms: C_4  and  C_5
REMARK    5  A    between atoms: N_7  and  C_8
REMARK    6  A    between atoms: C_13  and  C_14
REMARK                            x       y       z     vdW  Elec       q    Type
REMARK                         _______ _______ _______ _____ _____    ______ ____
ROOT
ATOM      1  C   UNL     1       2.387   4.315  19.598  0.00  0.00    +0.000 A 
ATOM      2  C   UNL     1       1.183   3.586  19.612  0.00  0.00    +0.000 A 
ATOM      3  C   UNL     1       1.086   2.359  18.953  0.00  0.00    +0.000 A 
ATOM      4  C   UNL     1       2.191   1.817  18.297  0.00  0.00    +0.000 A 
ATOM      5  C   UNL     1       3.402   2.507  18.312  0.00  0.00    +0.000 A 
ATOM      6  C   UNL     1       3.500   3.776  18.923  0.00  0.00    +0.000 A 
ENDROOT
BRANCH   6   7
ATOM      7  C   UNL     1       4.849   4.387  19.035  0.00  0.00    +0.000 C 
ATOM      8  O   UNL     1       5.436   4.249  20.109  0.00  0.00    +0.000 OA
ATOM      9  N   UNL     1       5.447   4.999  17.930  0.00  0.00    +0.000 N 
ATOM     10  C   UNL     1       6.874   5.262  17.978  0.00  0.00    +0.000 C 
ATOM     11  C   UNL     1       7.305   6.536  17.246  0.00  0.00    +0.000 C 
ATOM     12  O   UNL     1       6.283   7.289  16.606  0.00  0.00    +0.000 OA
ATOM     13  C   UNL     1       5.202   6.573  16.018  0.00  0.00    +0.000 C 
ATOM     14  C   UNL     1       4.846   5.214  16.625  0.00  0.00    +0.000 C 
ENDBRANCH   6   7
BRANCH   1  17
ATOM     15  C   UNL     1       2.188   6.716  19.454  0.00  0.00    +0.000 C 
ATOM     16  O   UNL     1       2.051   6.660  18.230  0.00  0.00    +0.000 OA
ATOM     17  N   UNL     1       2.409   5.592  20.236  0.00  0.00    +0.000 N 
ATOM     18  H   UNL     1       2.006   5.651  21.162  0.00  0.00    +0.000 HD
BRANCH  15  19
ATOM     19  C   UNL     1       2.070   8.087  20.175  0.00  0.00    +0.000 C 
BRANCH  19  20
ATOM     20  O   UNL     1       1.476   8.264  21.449  0.00  0.00    +0.000 OA
BRANCH  20  22
ATOM     21  C   UNL     1      -0.261   9.348  22.750  0.00  0.00    +0.000 C 
ATOM     22  C   UNL     1       0.110   8.676  21.431  0.00  0.00    +0.000 C 
ENDBRANCH  20  22
ENDBRANCH  19  20
ENDBRANCH  15  19
ENDBRANCH   1  17
TORSDOF 5
ENDMDL
MODEL 6
REMARK VINA RESULT:      -6.5      1.906      4.631
REMARK  Name = 
REMARK  6 active torsions:
REMARK  status: ('A' for Active; 'I' for Inactive)
REMARK    1  A    between atoms: C_1  and  C_2
REMARK    2  A    between atoms: C_2  and  O_3
REMARK    3  A    between atoms: O_3  and  C_4
REMARK    4  A    between atoms: C_4  and  C_5
REMARK    5  A    between atoms: N_7  and  C_8
REMARK    6  A    between atoms: C_13  and  C_14
REMARK                            x       y       z     vdW  Elec       q    Type
REMARK                         _______ _______ _______ _____ _____    ______ ____
ROOT
ATOM      1  C   UNL     1       2.426   4.273  19.539  0.00  0.00    +0.000 A 
ATOM      2  C   UNL     1       1.220   3.548  19.549  0.00  0.00    +0.000 A 
ATOM      3  C   UNL     1       1.119   2.325  18.881  0.00  0.00    +0.000 A 
ATOM      4  C   UNL     1       2.222   1.786  18.220  0.00  0.00    +0.000 A 
ATOM      5  C   UNL     1       3.434   2.472  18.239  0.00  0.00    +0.000 A 
ATOM      6  C   UNL     1       3.537   3.736  18.859  0.00  0.00    +0.000 A 
ENDROOT
BRANCH   6   7
ATOM      7  C   UNL     1       4.888   4.343  18.974  0.00  0.00    +0.000 C 
ATOM      8  O   UNL     1       5.478   4.191  20.044  0.00  0.00    +0.000 OA
ATOM      9  N   UNL     1       5.483   4.967  17.875  0.00  0.00    +0.000 N 
ATOM     10  C   UNL     1       6.911   5.226  17.921  0.00  0.00    +0.000 C 
ATOM     11  C   UNL     1       7.343   6.508  17.203  0.00  0.00    +0.000 C 
ATOM     12  O   UNL     1       6.320   7.271  16.575  0.00  0.00    +0.000 OA
ATOM     13  C   UNL     1       5.236   6.565  15.983  0.00  0.00    +0.000 C 
ATOM     14  C   UNL     1       4.879   5.199  16.574  0.00  0.00    +0.000 C 
ENDBRANCH   6   7
BRANCH   1  17
ATOM     15  C   UNL     1       2.224   6.675  19.415  0.00  0.00    +0.000 C 
ATOM     16  O   UNL     1       2.077   6.628  18.192  0.00  0.00    +0.000 OA
ATOM     17  N   UNL     1       2.453   5.545  20.186  0.00  0.00    +0.000 N 
ATOM     18  H   UNL     1       2.057   5.597  21.116  0.00  0.00    +0.000 HD
BRANCH  15  19
ATOM     19  C   UNL     1       2.111   8.041  20.147  0.00  0.00    +0.000 C 
BRANCH  19  20
ATOM     20  O   UNL     1       0.995   8.907  20.040  0.00  0.00    +0.000 OA
BRANCH  20  22
ATOM     21  C   UNL     1      -0.221  10.076  18.296  0.00  0.00    +0.000 C 
ATOM     22  C   UNL     1       1.103   9.916  19.037  0.00  0.00    +0.000 C 
ENDBRANCH  20  22
ENDBRANCH  19  20
ENDBRANCH  15  19
ENDBRANCH   1  17
TORSDOF 5
ENDMDL
MODEL 7
REMARK VINA RESULT:      -6.5      1.915      4.957
REMARK  Name = 
REMARK  6 active torsions:
REMARK  status: ('A' for Active; 'I' for Inactive)
REMARK    1  A    between atoms: C_1  and  C_2
REMARK    2  A    between atoms: C_2  and  O_3
REMARK    3  A    between atoms: O_3  and  C_4
REMARK    4  A    between atoms: C_4  and  C_5
REMARK    5  A    between atoms: N_7  and  C_8
REMARK    6  A    between atoms: C_13  and  C_14
REMARK                            x       y       z     vdW  Elec       q    Type
REMARK                         _______ _______ _______ _____ _____    ______ ____
ROOT
ATOM      1  C   UNL     1       3.777   6.716  17.535  0.00  0.00    +0.000 A 
ATOM      2  C   UNL     1       3.198   7.942  17.161  0.00  0.00    +0.000 A 
ATOM      3  C   UNL     1       2.307   8.598  18.013  0.00  0.00    +0.000 A 
ATOM      4  C   UNL     1       2.001   8.065  19.265  0.00  0.00    +0.000 A 
ATOM      5  C   UNL     1       2.602   6.874  19.667  0.00  0.00    +0.000 A 
ATOM      6  C   UNL     1       3.458   6.169  18.794  0.00  0.00    +0.000 A 
ENDROOT
BRANCH   6   7
ATOM      7  C   UNL     1       4.180   4.990  19.336  0.00  0.00    +0.000 C 
ATOM      8  O   UNL     1       5.231   5.208  19.941  0.00  0.00    +0.000 OA
ATOM      9  N   UNL     1       3.626   3.711  19.240  0.00  0.00    +0.000 N 
ATOM     10  C   UNL     1       4.177   2.658  20.075  0.00  0.00    +0.000 C 
ATOM     11  C   UNL     1       4.163   1.269  19.430  0.00  0.00    +0.000 C 
ATOM     12  O   UNL     1       3.611   1.171  18.123  0.00  0.00    +0.000 OA
ATOM     13  C   UNL     1       2.509   2.012  17.805  0.00  0.00    +0.000 C 
ATOM     14  C   UNL     1       2.401   3.344  18.552  0.00  0.00    +0.000 C 
ENDBRANCH   6   7
BRANCH   1  17
ATOM     15  C   UNL     1       5.990   6.341  16.648  0.00  0.00    +0.000 C 
ATOM     16  O   UNL     1       6.470   7.181  17.411  0.00  0.00    +0.000 OA
ATOM     17  N   UNL     1       4.632   6.061  16.599  0.00  0.00    +0.000 N 
ATOM     18  H   UNL     1       4.420   5.096  16.378  0.00  0.00    +0.000 HD
BRANCH  15  19
ATOM     19  C   UNL     1       6.932   5.519  15.725  0.00  0.00    +0.000 C 
BRANCH  19  20
ATOM     20  O   UNL     1       6.689   5.286  14.349  0.00  0.00    +0.000 OA
BRANCH  20  22
ATOM     21  C   UNL     1       6.384   3.650  12.584  0.00  0.00    +0.000 C 
ATOM     22  C   UNL     1       6.111   4.019  14.039  0.00  0.00    +0.000 C 
ENDBRANCH  20  22
ENDBRANCH  19  20
ENDBRANCH  15  19
ENDBRANCH   1  17
TORSDOF 5
ENDMDL
MODEL 8
REMARK VINA RESULT:      -6.3      1.904      4.685
REMARK  Name = 
REMARK  6 active torsions:
REMARK  status: ('A' for Active; 'I' for Inactive)
REMARK    1  A    between atoms: C_1  and  C_2
REMARK    2  A    between atoms: C_2  and  O_3
REMARK    3  A    between atoms: O_3  and  C_4
REMARK    4  A    between atoms: C_4  and  C_5
REMARK    5  A    between atoms: N_7  and  C_8
REMARK    6  A    between atoms: C_13  and  C_14
REMARK                            x       y       z     vdW  Elec       q    Type
REMARK                         _______ _______ _______ _____ _____    ______ ____
ROOT
ATOM      1  C   UNL     1       2.395   4.253  18.641  0.00  0.00    +0.000 A 
ATOM      2  C   UNL     1       1.209   3.496  18.666  0.00  0.00    +0.000 A 
ATOM      3  C   UNL     1       1.255   2.100  18.694  0.00  0.00    +0.000 A 
ATOM      4  C   UNL     1       2.478   1.433  18.732  0.00  0.00    +0.000 A 
ATOM      5  C   UNL     1       3.660   2.170  18.753  0.00  0.00    +0.000 A 
ATOM      6  C   UNL     1       3.632   3.579  18.665  0.00  0.00    +0.000 A 
ENDROOT
BRANCH   6   7
ATOM      7  C   UNL     1       4.912   4.310  18.843  0.00  0.00    +0.000 C 
ATOM      8  O   UNL     1       5.404   4.308  19.972  0.00  0.00    +0.000 OA
ATOM      9  N   UNL     1       5.563   4.882  17.746  0.00  0.00    +0.000 N 
ATOM     10  C   UNL     1       6.955   5.268  17.897  0.00  0.00    +0.000 C 
ATOM     11  C   UNL     1       7.354   6.513  17.098  0.00  0.00    +0.000 C 
ATOM     12  O   UNL     1       6.342   7.123  16.308  0.00  0.00    +0.000 OA
ATOM     13  C   UNL     1       5.380   6.274  15.692  0.00  0.00    +0.000 C 
ATOM     14  C   UNL     1       5.075   4.941  16.380  0.00  0.00    +0.000 C 
ENDBRANCH   6   7
BRANCH   1  17
ATOM     15  C   UNL     1       2.074   6.388  19.719  0.00  0.00    +0.000 C 
ATOM     16  O   UNL     1       1.902   5.843  20.811  0.00  0.00    +0.000 OA
ATOM     17  N   UNL     1       2.286   5.673  18.550  0.00  0.00    +0.000 N 
ATOM     18  H   UNL     1       2.893   6.140  17.888  0.00  0.00    +0.000 HD
BRANCH  15  19
ATOM     19  C   UNL     1       2.101   7.939  19.635  0.00  0.00    +0.000 C 
BRANCH  19  20
ATOM     20  O   UNL     1       2.303   8.664  18.434  0.00  0.00    +0.000 OA
BRANCH  20  22
ATOM     21  C   UNL     1       1.192  10.800  18.734  0.00  0.00    +0.000 C 
ATOM     22  C   UNL     1       1.194   9.457  18.010  0.00  0.00    +0.000 C 
ENDBRANCH  20  22
ENDBRANCH  19  20
ENDBRANCH  15  19
ENDBRANCH   1  17
TORSDOF 5
ENDMDL
MODEL 9
REMARK VINA RESULT:      -6.3      2.588      6.314
REMARK  Name = 
REMARK  6 active torsions:
REMARK  status: ('A' for Active; 'I' for Inactive)
REMARK    1  A    between atoms: C_1  and  C_2
REMARK    2  A    between atoms: C_2  and  O_3
REMARK    3  A    between atoms: O_3  and  C_4
REMARK    4  A    between atoms: C_4  and  C_5
REMARK    5  A    between atoms: N_7  and  C_8
REMARK    6  A    between atoms: C_13  and  C_14
REMARK                            x       y       z     vdW  Elec       q    Type
REMARK                         _______ _______ _______ _____ _____    ______ ____
ROOT
ATOM      1  C   UNL     1       5.932   5.096  16.969  0.00  0.00    +0.000 A 
ATOM      2  C   UNL     1       7.093   5.889  17.021  0.00  0.00    +0.000 A 
ATOM      3  C   UNL     1       7.658   6.246  18.247  0.00  0.00    +0.000 A 
ATOM      4  C   UNL     1       7.101   5.792  19.442  0.00  0.00    +0.000 A 
ATOM      5  C   UNL     1       5.978   4.969  19.405  0.00  0.00    +0.000 A 
ATOM      6  C   UNL     1       5.360   4.649  18.177  0.00  0.00    +0.000 A 
ENDROOT
BRANCH   6   7
ATOM      7  C   UNL     1       4.262   3.649  18.194  0.00  0.00    +0.000 C 
ATOM      8  O   UNL     1       4.294   2.770  17.333  0.00  0.00    +0.000 OA
ATOM      9  N   UNL     1       3.301   3.666  19.209  0.00  0.00    +0.000 N 
ATOM     10  C   UNL     1       2.473   2.487  19.391  0.00  0.00    +0.000 C 
ATOM     11  C   UNL     1       1.043   2.786  19.854  0.00  0.00    +0.000 C 
ATOM     12  O   UNL     1       0.706   4.152  20.062  0.00  0.00    +0.000 OA
ATOM     13  C   UNL     1       1.716   5.014  20.575  0.00  0.00    +0.000 C 
ATOM     14  C   UNL     1       3.172   4.652  20.267  0.00  0.00    +0.000 C 
ENDBRANCH   6   7
BRANCH   1  17
ATOM     15  C   UNL     1       6.224   4.493  14.650  0.00  0.00    +0.000 C 
ATOM     16  O   UNL     1       7.450   4.515  14.769  0.00  0.00    +0.000 OA
ATOM     17  N   UNL     1       5.364   4.815  15.690  0.00  0.00    +0.000 N 
ATOM     18  H   UNL     1       4.493   4.300  15.676  0.00  0.00    +0.000 HD
BRANCH  15  19
ATOM     19  C   UNL     1       5.594   4.049  13.301  0.00  0.00    +0.000 C 
BRANCH  19  20
ATOM     20  O   UNL     1       6.244   3.213  12.360  0.00  0.00    +0.000 OA
BRANCH  20  22
ATOM     21  C   UNL     1       4.104   3.176  11.219  0.00  0.00    +0.000 C 
ATOM     22  C   UNL     1       5.378   2.409  11.561  0.00  0.00    +0.000 C 
ENDBRANCH  20  22
ENDBRANCH  19  20
ENDBRANCH  15  19
ENDBRANCH   1  17
TORSDOF 5
ENDMDL
