MODEL 1
REMARK VINA RESULT:      -8.0      0.000      0.000
REMARK  Name = 
REMARK  6 active torsions:
REMARK  status: ('A' for Active; 'I' for Inactive)
REMARK    1  A    between atoms: N_1  and  C_2
REMARK    2  A    between atoms: C_2  and  C_3
REMARK    3  A    between atoms: C_6  and  C_7
REMARK    4  A    between atoms: C_7  and  O_8
REMARK    5  A    between atoms: O_8  and  C_9
REMARK    6  A    between atoms: N_11  and  C_12
REMARK                            x       y       z     vdW  Elec       q    Type
REMARK                         _______ _______ _______ _____ _____    ______ ____
ROOT
ATOM      1  C   UNL     1       4.908   4.237  19.251  0.00  0.00    +0.000 C 
ATOM      2  O   UNL     1       5.014   5.302  19.844  0.00  0.00    +0.000 OA
ATOM      3  N   UNL     1       5.273   4.064  17.946  0.00  0.00    +0.000 N 
ATOM      4  H   UNL     1       5.378   3.094  17.668  0.00  0.00    +0.000 HD
ENDROOT
BRANCH   3   5
ATOM      5  C   UNL     1       6.020   5.131  17.304  0.00  0.00    +0.000 C 
ATOM      6  C   UNL     1       5.238   5.787  16.174  0.00  0.00    +0.000 C 
ATOM      7  C   UNL     1       5.361   5.018  14.876  0.00  0.00    +0.000 C 
ATOM      8  C   UNL     1       6.800   4.784  14.503  0.00  0.00    +0.000 C 
ATOM      9  O   UNL     1       7.149   4.568  13.345  0.00  0.00    +0.000 OA
ATOM     10  N   UNL     1       7.699   4.708  15.534  0.00  0.00    +0.000 N 
ATOM     11  C   UNL     1       7.406   4.629  16.869  0.00  0.00    +0.000 C 
ATOM     12  O   UNL     1       8.207   4.102  17.639  0.00  0.00    +0.000 OA
ATOM     13  H   UNL     1       8.624   4.385  15.275  0.00  0.00    +0.000 HD
ENDBRANCH   3   5
BRANCH   1  14
ATOM     14  O   UNL     1       4.451   3.078  19.783  0.00  0.00    +0.000 OA
BRANCH  14  15
ATOM     15  C   UNL     1       3.725   2.253  18.856  0.00  0.00    +0.000 C 
BRANCH  15  19
ATOM     16  C   UNL     1       1.317   4.653  20.466  0.00  0.00    +0.000 C 
ATOM     17  C   UNL     1       1.404   4.467  18.943  0.00  0.00    +0.000 C 
ATOM     18  C   UNL     1       1.266   3.014  18.506  0.00  0.00    +0.000 C 
ATOM     19  C   UNL     1       2.241   2.073  19.226  0.00  0.00    +0.000 C 
ATOM     20  C   UNL     1       2.064   2.230  20.745  0.00  0.00    +0.000 C 
ATOM     21  C   UNL     1       2.250   3.680  21.211  0.00  0.00    +0.000 C 
BRANCH  16  22
ATOM     22  C   UNL     1       1.598   6.135  20.790  0.00  0.00    +0.000 C 
BRANCH  22  23
ATOM     23  N   UNL     1       2.509   6.772  19.845  0.00  0.00    +0.000 NA
ATOM     24  H   UNL     1       2.492   7.779  20.007  0.00  0.00    +0.000 HD
ATOM     25  H   UNL     1       2.156   6.644  18.898  0.00  0.00    +0.000 HD
ENDBRANCH  22  23
ENDBRANCH  16  22
ENDBRANCH  15  19
ENDBRANCH  14  15
ENDBRANCH   1  14
TORSDOF 6
ENDMDL
MODEL 2
REMARK VINA RESULT:      -7.8      1.733      3.053
REMARK  Name = 
REMARK  6 active torsions:
REMARK  status: ('A' for Active; 'I' for Inactive)
REMARK    1  A    between atoms: N_1  and  C_2
REMARK    2  A    between atoms: C_2  and  C_3
REMARK    3  A    between atoms: C_6  and  C_7
REMARK    4  A    between atoms: C_7  and  O_8
REMARK    5  A    between atoms: O_8  and  C_9
REMARK    6  A    between atoms: N_11  and  C_12
REMARK                            x       y       z     vdW  Elec       q    Type
REMARK                         _______ _______ _______ _____ _____    ______ ____
ROOT
ATOM      1  C   UNL     1       2.677   6.289  18.659  0.00  0.00    +0.000 C 
ATOM      2  O   UNL     1       2.566   7.499  18.512  0.00  0.00    +0.000 OA
ATOM      3  N   UNL     1       3.805   5.593  18.327  0.00  0.00    +0.000 N 
ATOM      4  H   UNL     1       3.858   4.667  18.736  0.00  0.00    +0.000 HD
ENDROOT
BRANCH   3   5
ATOM      5  C   UNL     1       4.996   6.353  17.992  0.00  0.00    +0.000 C 
ATOM      6  C   UNL     1       5.061   6.705  16.512  0.00  0.00    +0.000 C 
ATOM      7  C   UNL     1       5.635   5.576  15.682  0.00  0.00    +0.000 C 
ATOM      8  C   UNL     1       6.969   5.120  16.212  0.00  0.00    +0.000 C 
ATOM      9  O   UNL     1       7.789   4.540  15.506  0.00  0.00    +0.000 OA
ATOM     10  N   UNL     1       7.185   5.281  17.555  0.00  0.00    +0.000 N 
ATOM     11  C   UNL     1       6.254   5.629  18.497  0.00  0.00    +0.000 C 
ATOM     12  O   UNL     1       6.415   5.290  19.668  0.00  0.00    +0.000 OA
ATOM     13  H   UNL     1       8.012   4.819  17.915  0.00  0.00    +0.000 HD
ENDBRANCH   3   5
BRANCH   1  14
ATOM     14  O   UNL     1       1.738   5.467  19.186  0.00  0.00    +0.000 OA
BRANCH  14  15
ATOM     15  C   UNL     1       1.898   5.222  20.594  0.00  0.00    +0.000 C 
BRANCH  15  19
ATOM     16  C   UNL     1       2.676   1.838  19.146  0.00  0.00    +0.000 C 
ATOM     17  C   UNL     1       3.446   2.422  20.342  0.00  0.00    +0.000 C 
ATOM     18  C   UNL     1       2.538   2.866  21.482  0.00  0.00    +0.000 C 
ATOM     19  C   UNL     1       1.426   3.822  21.030  0.00  0.00    +0.000 C 
ATOM     20  C   UNL     1       0.630   3.166  19.890  0.00  0.00    +0.000 C 
ATOM     21  C   UNL     1       1.521   2.758  18.710  0.00  0.00    +0.000 C 
BRANCH  16  22
ATOM     22  C   UNL     1       3.685   1.549  18.015  0.00  0.00    +0.000 C 
BRANCH  22  23
ATOM     23  N   UNL     1       4.378   2.741  17.538  0.00  0.00    +0.000 NA
ATOM     24  H   UNL     1       4.497   2.665  16.527  0.00  0.00    +0.000 HD
ATOM     25  H   UNL     1       5.322   2.758  17.921  0.00  0.00    +0.000 HD
ENDBRANCH  22  23
ENDBRANCH  16  22
ENDBRANCH  15  19
ENDBRANCH  14  15
ENDBRANCH   1  14
TORSDOF 6
ENDMDL
MODEL 3
REMARK VINA RESULT:      -7.5      1.757      3.045
REMARK  Name = 
REMARK  6 active torsions:
REMARK  status: ('A' for Active; 'I' for Inactive)
REMARK    1  A    between atoms: N_1  and  C_2
REMARK    2  A    between atoms: C_2  and  C_3
REMARK    3  A    between atoms: C_6  and  C_7
REMARK    4  A    between atoms: C_7  and  O_8
REMARK    5  A    between atoms: O_8  and  C_9
REMARK    6  A    between atoms: N_11  and  C_12
REMARK                            x       y       z     vdW  Elec       q    Type
REMARK                         _______ _______ _______ _____ _____    ______ ____
ROOT
ATOM      1  C   UNL     1       3.101   6.847  18.316  0.00  0.00    +0.000 C 
ATOM      2  O   UNL     1       3.383   7.991  17.988  0.00  0.00    +0.000 OA
ATOM      3  N   UNL     1       3.921   5.777  18.093  0.00  0.00    +0.000 N 
ATOM      4  H   UNL     1       3.689   4.954  18.637  0.00  0.00    +0.000 HD
ENDROOT
BRANCH   3   5
ATOM      5  C   UNL     1       5.276   6.044  17.644  0.00  0.00    +0.000 C 
ATOM      6  C   UNL     1       5.318   6.594  16.224  0.00  0.00    +0.000 C 
ATOM      7  C   UNL     1       5.267   5.493  15.185  0.00  0.00    +0.000 C 
ATOM      8  C   UNL     1       6.335   4.458  15.421  0.00  0.00    +0.000 C 
ATOM      9  O   UNL     1       6.751   3.732  14.522  0.00  0.00    +0.000 OA
ATOM     10  N   UNL     1       6.747   4.282  16.715  0.00  0.00    +0.000 N 
ATOM     11  C   UNL     1       6.160   4.802  17.838  0.00  0.00    +0.000 C 
ATOM     12  O   UNL     1       6.292   4.228  18.917  0.00  0.00    +0.000 OA
ATOM     13  H   UNL     1       7.337   3.473  16.872  0.00  0.00    +0.000 HD
ENDBRANCH   3   5
BRANCH   1  14
ATOM     14  O   UNL     1       1.974   6.465  18.964  0.00  0.00    +0.000 OA
BRANCH  14  15
ATOM     15  C   UNL     1       2.214   5.716  20.167  0.00  0.00    +0.000 C 
BRANCH  15  19
ATOM     16  C   UNL     1       2.639   2.051  19.432  0.00  0.00    +0.000 C 
ATOM     17  C   UNL     1       2.880   2.647  20.828  0.00  0.00    +0.000 C 
ATOM     18  C   UNL     1       1.700   3.459  21.347  0.00  0.00    +0.000 C 
ATOM     19  C   UNL     1       1.235   4.543  20.365  0.00  0.00    +0.000 C 
ATOM     20  C   UNL     1       0.926   3.892  19.007  0.00  0.00    +0.000 C 
ATOM     21  C   UNL     1       2.121   3.112  18.444  0.00  0.00    +0.000 C 
BRANCH  16  22
ATOM     22  C   UNL     1       3.941   1.367  18.965  0.00  0.00    +0.000 C 
BRANCH  22  23
ATOM     23  N   UNL     1       5.081   1.638  19.834  0.00  0.00    +0.000 NA
ATOM     24  H   UNL     1       5.916   1.732  19.255  0.00  0.00    +0.000 HD
ATOM     25  H   UNL     1       5.253   0.828  20.428  0.00  0.00    +0.000 HD
ENDBRANCH  22  23
ENDBRANCH  16  22
ENDBRANCH  15  19
ENDBRANCH  14  15
ENDBRANCH   1  14
TORSDOF 6
ENDMDL
MODEL 4
REMARK VINA RESULT:      -7.4      0.798      1.275
REMARK  Name = 
REMARK  6 active torsions:
REMARK  status: ('A' for Active; 'I' for Inactive)
REMARK    1  A    between atoms: N_1  and  C_2
REMARK    2  A    between atoms: C_2  and  C_3
REMARK    3  A    between atoms: C_6  and  C_7
REMARK    4  A    between atoms: C_7  and  O_8
REMARK    5  A    between atoms: O_8  and  C_9
REMARK    6  A    between atoms: N_11  and  C_12
REMARK                            x       y       z     vdW  Elec       q    Type
REMARK                         _______ _______ _______ _____ _____    ______ ____
ROOT
ATOM      1  C   UNL     1       4.891   3.775  19.240  0.00  0.00    +0.000 C 
ATOM      2  O   UNL     1       4.689   4.852  19.785  0.00  0.00    +0.000 OA
ATOM      3  N   UNL     1       5.443   3.656  17.995  0.00  0.00    +0.000 N 
ATOM      4  H   UNL     1       5.789   2.727  17.781  0.00  0.00    +0.000 HD
ENDROOT
BRANCH   3   5
ATOM      5  C   UNL     1       6.012   4.846  17.389  0.00  0.00    +0.000 C 
ATOM      6  C   UNL     1       5.121   5.424  16.299  0.00  0.00    +0.000 C 
ATOM      7  C   UNL     1       5.330   4.733  14.967  0.00  0.00    +0.000 C 
ATOM      8  C   UNL     1       6.781   4.729  14.566  0.00  0.00    +0.000 C 
ATOM      9  O   UNL     1       7.135   4.613  13.395  0.00  0.00    +0.000 OA
ATOM     10  N   UNL     1       7.700   4.746  15.580  0.00  0.00    +0.000 N 
ATOM     11  C   UNL     1       7.448   4.572  16.915  0.00  0.00    +0.000 C 
ATOM     12  O   UNL     1       8.332   4.138  17.651  0.00  0.00    +0.000 OA
ATOM     13  H   UNL     1       8.658   4.574  15.296  0.00  0.00    +0.000 HD
ENDBRANCH   3   5
BRANCH   1  14
ATOM     14  O   UNL     1       4.635   2.558  19.775  0.00  0.00    +0.000 OA
BRANCH  14  15
ATOM     15  C   UNL     1       3.717   2.585  20.881  0.00  0.00    +0.000 C 
BRANCH  15  19
ATOM     16  C   UNL     1       1.189   4.155  18.578  0.00  0.00    +0.000 C 
ATOM     17  C   UNL     1       2.133   3.029  18.125  0.00  0.00    +0.000 C 
ATOM     18  C   UNL     1       2.077   1.800  19.025  0.00  0.00    +0.000 C 
ATOM     19  C   UNL     1       2.294   2.128  20.508  0.00  0.00    +0.000 C 
ATOM     20  C   UNL     1       1.278   3.197  20.941  0.00  0.00    +0.000 C 
ATOM     21  C   UNL     1       1.354   4.464  20.078  0.00  0.00    +0.000 C 
BRANCH  16  22
ATOM     22  C   UNL     1       1.429   5.381  17.674  0.00  0.00    +0.000 C 
BRANCH  22  23
ATOM     23  N   UNL     1       2.368   6.344  18.240  0.00  0.00    +0.000 NA
ATOM     24  H   UNL     1       3.144   6.463  17.589  0.00  0.00    +0.000 HD
ATOM     25  H   UNL     1       2.780   5.955  19.087  0.00  0.00    +0.000 HD
ENDBRANCH  22  23
ENDBRANCH  16  22
ENDBRANCH  15  19
ENDBRANCH  14  15
ENDBRANCH   1  14
TORSDOF 6
ENDMDL
MODEL 5
REMARK VINA RESULT:      -7.2      1.677      2.818
REMARK  Name = 
REMARK  6 active torsions:
REMARK  status: ('A' for Active; 'I' for Inactive)
REMARK    1  A    between atoms: N_1  and  C_2
REMARK    2  A    between atoms: C_2  and  C_3
REMARK    3  A    between atoms: C_6  and  C_7
REMARK    4  A    between atoms: C_7  and  O_8
REMARK    5  A    between atoms: O_8  and  C_9
REMARK    6  A    between atoms: N_11  and  C_12
REMARK                            x       y       z     vdW  Elec       q    Type
REMARK                         _______ _______ _______ _____ _____    ______ ____
ROOT
ATOM      1  C   UNL     1       3.142   6.238  19.062  0.00  0.00    +0.000 C 
ATOM      2  O   UNL     1       2.885   7.400  18.779  0.00  0.00    +0.000 OA
ATOM      3  N   UNL     1       4.268   5.592  18.635  0.00  0.00    +0.000 N 
ATOM      4  H   UNL     1       4.480   4.743  19.147  0.00  0.00    +0.000 HD
ENDROOT
BRANCH   3   5
ATOM      5  C   UNL     1       5.306   6.386  18.002  0.00  0.00    +0.000 C 
ATOM      6  C   UNL     1       5.001   6.678  16.539  0.00  0.00    +0.000 C 
ATOM      7  C   UNL     1       5.419   5.539  15.633  0.00  0.00    +0.000 C 
ATOM      8  C   UNL     1       6.862   5.163  15.843  0.00  0.00    +0.000 C 
ATOM      9  O   UNL     1       7.520   4.588  14.981  0.00  0.00    +0.000 OA
ATOM     10  N   UNL     1       7.381   5.389  17.090  0.00  0.00    +0.000 N 
ATOM     11  C   UNL     1       6.683   5.737  18.216  0.00  0.00    +0.000 C 
ATOM     12  O   UNL     1       7.133   5.456  19.325  0.00  0.00    +0.000 OA
ATOM     13  H   UNL     1       8.292   4.977  17.258  0.00  0.00    +0.000 HD
ENDBRANCH   3   5
BRANCH   1  14
ATOM     14  O   UNL     1       2.389   5.430  19.847  0.00  0.00    +0.000 OA
BRANCH  14  15
ATOM     15  C   UNL     1       1.198   4.938  19.209  0.00  0.00    +0.000 C 
BRANCH  15  19
ATOM     16  C   UNL     1       3.136   1.809  19.988  0.00  0.00    +0.000 C 
ATOM     17  C   UNL     1       2.795   2.858  21.059  0.00  0.00    +0.000 C 
ATOM     18  C   UNL     1       1.309   3.187  21.125  0.00  0.00    +0.000 C 
ATOM     19  C   UNL     1       0.718   3.585  19.766  0.00  0.00    +0.000 C 
ATOM     20  C   UNL     1       1.010   2.473  18.746  0.00  0.00    +0.000 C 
ATOM     21  C   UNL     1       2.507   2.162  18.627  0.00  0.00    +0.000 C 
BRANCH  16  22
ATOM     22  C   UNL     1       4.670   1.658  19.929  0.00  0.00    +0.000 C 
BRANCH  22  23
ATOM     23  N   UNL     1       5.349   2.833  19.394  0.00  0.00    +0.000 NA
ATOM     24  H   UNL     1       6.194   2.997  19.941  0.00  0.00    +0.000 HD
ATOM     25  H   UNL     1       4.766   3.656  19.542  0.00  0.00    +0.000 HD
ENDBRANCH  22  23
ENDBRANCH  16  22
ENDBRANCH  15  19
ENDBRANCH  14  15
ENDBRANCH   1  14
TORSDOF 6
ENDMDL
MODEL 6
REMARK VINA RESULT:      -7.1      1.966      3.084
REMARK  Name = 
REMARK  6 active torsions:
REMARK  status: ('A' for Active; 'I' for Inactive)
REMARK    1  A    between atoms: N_1  and  C_2
REMARK    2  A    between atoms: C_2  and  C_3
REMARK    3  A    between atoms: C_6  and  C_7
REMARK    4  A    between atoms: C_7  and  O_8
REMARK    5  A    between atoms: O_8  and  C_9
REMARK    6  A    between atoms: N_11  and  C_12
REMARK                            x       y       z     vdW  Elec       q    Type
REMARK                         _______ _______ _______ _____ _____    ______ ____
ROOT
ATOM      1  C   UNL     1       2.623   6.248  18.740  0.00  0.00    +0.000 C 
ATOM      2  O   UNL     1       2.720   7.366  19.227  0.00  0.00    +0.000 OA
ATOM      3  N   UNL     1       3.524   5.737  17.849  0.00  0.00    +0.000 N 
ATOM      4  H   UNL     1       3.470   4.731  17.734  0.00  0.00    +0.000 HD
ENDROOT
BRANCH   3   5
ATOM      5  C   UNL     1       4.761   6.468  17.641  0.00  0.00    +0.000 C 
ATOM      6  C   UNL     1       5.030   6.745  16.168  0.00  0.00    +0.000 C 
ATOM      7  C   UNL     1       5.692   5.570  15.479  0.00  0.00    +0.000 C 
ATOM      8  C   UNL     1       6.935   5.130  16.206  0.00  0.00    +0.000 C 
ATOM      9  O   UNL     1       7.834   4.507  15.646  0.00  0.00    +0.000 OA
ATOM     10  N   UNL     1       6.972   5.355  17.556  0.00  0.00    +0.000 N 
ATOM     11  C   UNL     1       5.928   5.759  18.346  0.00  0.00    +0.000 C 
ATOM     12  O   UNL     1       5.925   5.477  19.543  0.00  0.00    +0.000 OA
ATOM     13  H   UNL     1       7.735   4.904  18.047  0.00  0.00    +0.000 HD
ENDBRANCH   3   5
BRANCH   1  14
ATOM     14  O   UNL     1       1.651   5.346  19.017  0.00  0.00    +0.000 OA
BRANCH  14  15
ATOM     15  C   UNL     1       1.496   4.326  18.017  0.00  0.00    +0.000 C 
BRANCH  15  19
ATOM     16  C   UNL     1       3.600   1.879  19.950  0.00  0.00    +0.000 C 
ATOM     17  C   UNL     1       2.668   2.891  20.637  0.00  0.00    +0.000 C 
ATOM     18  C   UNL     1       1.234   2.830  20.125  0.00  0.00    +0.000 C 
ATOM     19  C   UNL     1       1.134   2.946  18.598  0.00  0.00    +0.000 C 
ATOM     20  C   UNL     1       2.016   1.865  17.952  0.00  0.00    +0.000 C 
ATOM     21  C   UNL     1       3.476   1.943  18.417  0.00  0.00    +0.000 C 
BRANCH  16  22
ATOM     22  C   UNL     1       5.037   2.125  20.456  0.00  0.00    +0.000 C 
BRANCH  22  23
ATOM     23  N   UNL     1       5.428   1.237  21.545  0.00  0.00    +0.000 NA
ATOM     24  H   UNL     1       5.218   0.276  21.272  0.00  0.00    +0.000 HD
ATOM     25  H   UNL     1       4.843   1.422  22.358  0.00  0.00    +0.000 HD
ENDBRANCH  22  23
ENDBRANCH  16  22
ENDBRANCH  15  19
ENDBRANCH  14  15
ENDBRANCH   1  14
TORSDOF 6
ENDMDL
MODEL 7
REMARK VINA RESULT:      -7.1      2.015      3.223
REMARK  Name = 
REMARK  6 active torsions:
REMARK  status: ('A' for Active; 'I' for Inactive)
REMARK    1  A    between atoms: N_1  and  C_2
REMARK    2  A    between atoms: C_2  and  C_3
REMARK    3  A    between atoms: C_6  and  C_7
REMARK    4  A    between atoms: C_7  and  O_8
REMARK    5  A    between atoms: O_8  and  C_9
REMARK    6  A    between atoms: N_11  and  C_12
REMARK                            x       y       z     vdW  Elec       q    Type
REMARK                         _______ _______ _______ _____ _____    ______ ____
ROOT
ATOM      1  C   UNL     1       3.254   7.385  18.145  0.00  0.00    +0.000 C 
ATOM      2  O   UNL     1       2.978   8.261  17.336  0.00  0.00    +0.000 OA
ATOM      3  N   UNL     1       4.380   6.616  18.064  0.00  0.00    +0.000 N 
ATOM      4  H   UNL     1       4.611   6.125  18.921  0.00  0.00    +0.000 HD
ENDROOT
BRANCH   3   5
ATOM      5  C   UNL     1       5.398   7.003  17.103  0.00  0.00    +0.000 C 
ATOM      6  C   UNL     1       4.971   6.731  15.667  0.00  0.00    +0.000 C 
ATOM      7  C   UNL     1       5.232   5.296  15.258  0.00  0.00    +0.000 C 
ATOM      8  C   UNL     1       6.663   4.900  15.505  0.00  0.00    +0.000 C 
ATOM      9  O   UNL     1       7.200   3.977  14.898  0.00  0.00    +0.000 OA
ATOM     10  N   UNL     1       7.312   5.543  16.525  0.00  0.00    +0.000 N 
ATOM     11  C   UNL     1       6.748   6.364  17.465  0.00  0.00    +0.000 C 
ATOM     12  O   UNL     1       7.285   6.494  18.563  0.00  0.00    +0.000 OA
ATOM     13  H   UNL     1       8.209   5.146  16.782  0.00  0.00    +0.000 HD
ENDBRANCH   3   5
BRANCH   1  14
ATOM     14  O   UNL     1       2.524   7.062  19.239  0.00  0.00    +0.000 OA
BRANCH  14  15
ATOM     15  C   UNL     1       2.680   5.698  19.666  0.00  0.00    +0.000 C 
BRANCH  15  19
ATOM     16  C   UNL     1       2.668   2.065  18.687  0.00  0.00    +0.000 C 
ATOM     17  C   UNL     1       2.351   2.537  20.116  0.00  0.00    +0.000 C 
ATOM     18  C   UNL     1       1.250   3.589  20.170  0.00  0.00    +0.000 C 
ATOM     19  C   UNL     1       1.512   4.785  19.247  0.00  0.00    +0.000 C 
ATOM     20  C   UNL     1       1.742   4.276  17.815  0.00  0.00    +0.000 C 
ATOM     21  C   UNL     1       2.882   3.253  17.731  0.00  0.00    +0.000 C 
BRANCH  16  22
ATOM     22  C   UNL     1       3.876   1.108  18.750  0.00  0.00    +0.000 C 
BRANCH  22  23
ATOM     23  N   UNL     1       4.911   1.541  19.683  0.00  0.00    +0.000 NA
ATOM     24  H   UNL     1       5.721   0.930  19.576  0.00  0.00    +0.000 HD
ATOM     25  H   UNL     1       4.586   1.396  20.638  0.00  0.00    +0.000 HD
ENDBRANCH  22  23
ENDBRANCH  16  22
ENDBRANCH  15  19
ENDBRANCH  14  15
ENDBRANCH   1  14
TORSDOF 6
ENDMDL
MODEL 8
REMARK VINA RESULT:      -7.1      1.973      2.601
REMARK  Name = 
REMARK  6 active torsions:
REMARK  status: ('A' for Active; 'I' for Inactive)
REMARK    1  A    between atoms: N_1  and  C_2
REMARK    2  A    between atoms: C_2  and  C_3
REMARK    3  A    between atoms: C_6  and  C_7
REMARK    4  A    between atoms: C_7  and  O_8
REMARK    5  A    between atoms: O_8  and  C_9
REMARK    6  A    between atoms: N_11  and  C_12
REMARK                            x       y       z     vdW  Elec       q    Type
REMARK                         _______ _______ _______ _____ _____    ______ ____
ROOT
ATOM      1  C   UNL     1       4.626   3.163  18.590  0.00  0.00    +0.000 C 
ATOM      2  O   UNL     1       4.426   2.593  17.526  0.00  0.00    +0.000 OA
ATOM      3  N   UNL     1       5.593   4.113  18.762  0.00  0.00    +0.000 N 
ATOM      4  H   UNL     1       5.478   4.677  19.597  0.00  0.00    +0.000 HD
ENDROOT
BRANCH   3   5
ATOM      5  C   UNL     1       6.262   4.622  17.578  0.00  0.00    +0.000 C 
ATOM      6  C   UNL     1       7.750   4.852  17.807  0.00  0.00    +0.000 C 
ATOM      7  C   UNL     1       8.025   6.195  18.452  0.00  0.00    +0.000 C 
ATOM      8  C   UNL     1       7.392   7.322  17.679  0.00  0.00    +0.000 C 
ATOM      9  O   UNL     1       7.802   8.477  17.754  0.00  0.00    +0.000 OA
ATOM     10  N   UNL     1       6.259   7.022  16.971  0.00  0.00    +0.000 N 
ATOM     11  C   UNL     1       5.532   5.863  17.042  0.00  0.00    +0.000 C 
ATOM     12  O   UNL     1       4.336   5.875  16.759  0.00  0.00    +0.000 OA
ATOM     13  H   UNL     1       5.759   7.822  16.600  0.00  0.00    +0.000 HD
ENDBRANCH   3   5
BRANCH   1  14
ATOM     14  O   UNL     1       3.925   2.972  19.733  0.00  0.00    +0.000 OA
BRANCH  14  15
ATOM     15  C   UNL     1       2.980   1.891  19.668  0.00  0.00    +0.000 C 
BRANCH  15  19
ATOM     16  C   UNL     1       1.520   5.338  20.044  0.00  0.00    +0.000 C 
ATOM     17  C   UNL     1       1.516   4.581  18.707  0.00  0.00    +0.000 C 
ATOM     18  C   UNL     1       0.901   3.190  18.806  0.00  0.00    +0.000 C 
ATOM     19  C   UNL     1       1.525   2.333  19.916  0.00  0.00    +0.000 C 
ATOM     20  C   UNL     1       1.435   3.092  21.249  0.00  0.00    +0.000 C 
ATOM     21  C   UNL     1       2.094   4.475  21.183  0.00  0.00    +0.000 C 
BRANCH  16  22
ATOM     22  C   UNL     1       2.278   6.668  19.845  0.00  0.00    +0.000 C 
BRANCH  22  23
ATOM     23  N   UNL     1       1.946   7.679  20.844  0.00  0.00    +0.000 NA
ATOM     24  H   UNL     1       2.736   7.776  21.482  0.00  0.00    +0.000 HD
ATOM     25  H   UNL     1       1.174   7.345  21.418  0.00  0.00    +0.000 HD
ENDBRANCH  22  23
ENDBRANCH  16  22
ENDBRANCH  15  19
ENDBRANCH  14  15
ENDBRANCH   1  14
TORSDOF 6
ENDMDL
MODEL 9
REMARK VINA RESULT:      -7.1      2.259      6.632
REMARK  Name = 
REMARK  6 active torsions:
REMARK  status: ('A' for Active; 'I' for Inactive)
REMARK    1  A    between atoms: N_1  and  C_2
REMARK    2  A    between atoms: C_2  and  C_3
REMARK    3  A    between atoms: C_6  and  C_7
REMARK    4  A    between atoms: C_7  and  O_8
REMARK    5  A    between atoms: O_8  and  C_9
REMARK    6  A    between atoms: N_11  and  C_12
REMARK                            x       y       z     vdW  Elec       q    Type
REMARK                         _______ _______ _______ _____ _____    ______ ____
ROOT
ATOM      1  C   UNL     1       7.188   4.632  17.901  0.00  0.00    +0.000 C 
ATOM      2  O   UNL     1       7.544   5.172  18.940  0.00  0.00    +0.000 OA
ATOM      3  N   UNL     1       5.983   4.004  17.756  0.00  0.00    +0.000 N 
ATOM      4  H   UNL     1       5.715   3.837  16.793  0.00  0.00    +0.000 HD
ENDROOT
BRANCH   3   5
ATOM      5  C   UNL     1       4.998   4.176  18.809  0.00  0.00    +0.000 C 
ATOM      6  C   UNL     1       4.381   2.854  19.246  0.00  0.00    +0.000 C 
ATOM      7  C   UNL     1       3.239   2.433  18.346  0.00  0.00    +0.000 C 
ATOM      8  C   UNL     1       2.207   3.521  18.213  0.00  0.00    +0.000 C 
ATOM      9  O   UNL     1       1.043   3.283  17.898  0.00  0.00    +0.000 OA
ATOM     10  N   UNL     1       2.649   4.810  18.349  0.00  0.00    +0.000 N 
ATOM     11  C   UNL     1       3.953   5.226  18.399  0.00  0.00    +0.000 C 
ATOM     12  O   UNL     1       4.243   6.367  18.049  0.00  0.00    +0.000 OA
ATOM     13  H   UNL     1       1.978   5.524  18.092  0.00  0.00    +0.000 HD
ENDBRANCH   3   5
BRANCH   1  14
ATOM     14  O   UNL     1       7.897   4.593  16.747  0.00  0.00    +0.000 OA
BRANCH  14  15
ATOM     15  C   UNL     1       7.192   3.993  15.647  0.00  0.00    +0.000 C 
BRANCH  15  19
ATOM     16  C   UNL     1       5.794   3.510  12.187  0.00  0.00    +0.000 C 
ATOM     17  C   UNL     1       4.902   3.569  13.438  0.00  0.00    +0.000 C 
ATOM     18  C   UNL     1       5.137   4.814  14.285  0.00  0.00    +0.000 C 
ATOM     19  C   UNL     1       6.611   5.021  14.657  0.00  0.00    +0.000 C 
ATOM     20  C   UNL     1       7.457   5.038  13.373  0.00  0.00    +0.000 C 
ATOM     21  C   UNL     1       7.273   3.768  12.532  0.00  0.00    +0.000 C 
BRANCH  16  22
ATOM     22  C   UNL     1       5.560   2.154  11.488  0.00  0.00    +0.000 C 
BRANCH  22  23
ATOM     23  N   UNL     1       6.785   1.390  11.280  0.00  0.00    +0.000 NA
ATOM     24  H   UNL     1       7.452   1.641  12.010  0.00  0.00    +0.000 HD
ATOM     25  H   UNL     1       7.218   1.678  10.405  0.00  0.00    +0.000 HD
ENDBRANCH  22  23
ENDBRANCH  16  22
ENDBRANCH  15  19
ENDBRANCH  14  15
ENDBRANCH   1  14
TORSDOF 6
ENDMDL
