MODEL 1
REMARK VINA RESULT:      -6.5      0.000      0.000
REMARK  Name = 
REMARK  9 active torsions:
REMARK  status: ('A' for Active; 'I' for Inactive)
REMARK    1  A    between atoms: C_1  and  C_2
REMARK    2  A    between atoms: C_2  and  O_3
REMARK    3  A    between atoms: C_2  and  C_4
REMARK    4  A    between atoms: C_8  and  C_9
REMARK    5  A    between atoms: C_12  and  S_13
REMARK    6  A    between atoms: S_13  and  C_14
REMARK    7  A    between atoms: C_17  and  C_18
REMARK    8  A    between atoms: C_18  and  N_19
REMARK    9  A    between atoms: C_21  and  C_22
REMARK                            x       y       z     vdW  Elec       q    Type
REMARK                         _______ _______ _______ _____ _____    ______ ____
ROOT
ATOM      1  C   UNL     1       7.343   6.329  17.038  0.00  0.00    +0.000 C 
ATOM      2  C   UNL     1       7.287   5.175  18.074  0.00  0.00    +0.000 C 
ATOM      3  O   UNL     1       8.070   4.474  18.676  0.00  0.00    +0.000 OA
ATOM      4  N   UNL     1       5.964   5.400  18.304  0.00  0.00    +0.000 N 
ATOM      5  C   UNL     1       5.001   4.395  18.260  0.00  0.00    +0.000 C 
ATOM      6  C   UNL     1       4.181   4.576  17.214  0.00  0.00    +0.000 C 
ATOM      7  C   UNL     1       4.710   5.657  16.289  0.00  0.00    +0.000 C 
ATOM      8  C   UNL     1       5.308   5.128  14.990  0.00  0.00    +0.000 C 
ATOM      9  C   UNL     1       5.775   6.331  17.167  0.00  0.00    +0.000 C 
ENDROOT
BRANCH   5  10
ATOM     10  C   UNL     1       4.959   3.307  19.383  0.00  0.00    +0.000 C 
ATOM     11  O   UNL     1       5.460   3.721  20.487  0.00  0.00    +0.000 OA
ATOM     12  O   UNL     1       4.553   2.163  19.098  0.00  0.00    +0.000 OA
ENDBRANCH   5  10
BRANCH   1  14
ATOM     13  C   UNL     1       7.114   8.767  17.614  0.00  0.00    +0.000 C 
ATOM     14  C   UNL     1       8.042   7.560  17.609  0.00  0.00    +0.000 C 
BRANCH  14  15
ATOM     15  O   UNL     1       8.441   7.302  18.950  0.00  0.00    +0.000 OA
ATOM     16  H   UNL     1       9.005   6.509  18.961  0.00  0.00    +0.000 HD
ENDBRANCH  14  15
ENDBRANCH   1  14
BRANCH   6  17
ATOM     17  S   UNL     1       2.727   3.725  16.877  0.00  0.00    +0.000 S 
BRANCH  17  18
ATOM     18  C   UNL     1       1.579   4.268  18.202  0.00  0.00    +0.000 C 
ATOM     19  C   UNL     1       2.154   5.354  19.105  0.00  0.00    +0.000 C 
ATOM     20  O   UNL     1       2.212   4.811  20.433  0.00  0.00    +0.000 OA
ATOM     21  C   UNL     1       1.118   3.875  20.523  0.00  0.00    +0.000 C 
ATOM     22  C   UNL     1       1.069   3.197  19.160  0.00  0.00    +0.000 C 
BRANCH  21  23
ATOM     23  C   UNL     1       1.364   2.902  21.684  0.00  0.00    +0.000 C 
BRANCH  23  24
ATOM     24  N   UNL     1       2.789   2.571  21.805  0.00  0.00    +0.000 NA
ATOM     25  H   UNL     1       3.310   3.452  21.837  0.00  0.00    +0.000 HD
ATOM     26  H   UNL     1       3.098   2.080  20.969  0.00  0.00    +0.000 HD
ENDBRANCH  23  24
ENDBRANCH  21  23
ENDBRANCH  17  18
ENDBRANCH   6  17
TORSDOF 7
ENDMDL
MODEL 2
REMARK VINA RESULT:      -6.2      4.007      5.134
REMARK  Name = 
REMARK  9 active torsions:
REMARK  status: ('A' for Active; 'I' for Inactive)
REMARK    1  A    between atoms: C_1  and  C_2
REMARK    2  A    between atoms: C_2  and  O_3
REMARK    3  A    between atoms: C_2  and  C_4
REMARK    4  A    between atoms: C_8  and  C_9
REMARK    5  A    between atoms: C_12  and  S_13
REMARK    6  A    between atoms: S_13  and  C_14
REMARK    7  A    between atoms: C_17  and  C_18
REMARK    8  A    between atoms: C_18  and  N_19
REMARK    9  A    between atoms: C_21  and  C_22
REMARK                            x       y       z     vdW  Elec       q    Type
REMARK                         _______ _______ _______ _____ _____    ______ ____
ROOT
ATOM      1  C   UNL     1       4.544   5.036  17.624  0.00  0.00    +0.000 C 
ATOM      2  C   UNL     1       3.794   3.886  18.348  0.00  0.00    +0.000 C 
ATOM      3  O   UNL     1       3.544   2.718  18.152  0.00  0.00    +0.000 OA
ATOM      4  N   UNL     1       3.724   4.610  19.499  0.00  0.00    +0.000 N 
ATOM      5  C   UNL     1       2.539   4.811  20.203  0.00  0.00    +0.000 C 
ATOM      6  C   UNL     1       2.167   6.099  20.139  0.00  0.00    +0.000 C 
ATOM      7  C   UNL     1       3.009   6.859  19.129  0.00  0.00    +0.000 C 
ATOM      8  C   UNL     1       2.280   7.183  17.830  0.00  0.00    +0.000 C 
ATOM      9  C   UNL     1       4.175   5.886  18.895  0.00  0.00    +0.000 C 
ENDROOT
BRANCH   5  10
ATOM     10  C   UNL     1       1.880   3.620  20.973  0.00  0.00    +0.000 C 
ATOM     11  O   UNL     1       0.920   3.082  20.318  0.00  0.00    +0.000 OA
ATOM     12  O   UNL     1       2.261   3.370  22.134  0.00  0.00    +0.000 OA
ENDBRANCH   5  10
BRANCH   1  14
ATOM     13  C   UNL     1       6.874   5.983  17.580  0.00  0.00    +0.000 C 
ATOM     14  C   UNL     1       6.029   4.721  17.463  0.00  0.00    +0.000 C 
BRANCH  14  15
ATOM     15  O   UNL     1       6.437   3.818  18.484  0.00  0.00    +0.000 OA
ATOM     16  H   UNL     1       6.619   2.952  18.080  0.00  0.00    +0.000 HD
ENDBRANCH  14  15
ENDBRANCH   1  14
BRANCH   6  17
ATOM     17  S   UNL     1       0.904   6.858  21.022  0.00  0.00    +0.000 S 
BRANCH  17  18
ATOM     18  C   UNL     1       1.385   8.629  21.049  0.00  0.00    +0.000 C 
ATOM     19  C   UNL     1       1.412   9.237  22.448  0.00  0.00    +0.000 C 
ATOM     20  O   UNL     1       0.438  10.291  22.467  0.00  0.00    +0.000 OA
ATOM     21  C   UNL     1       0.396  10.813  21.123  0.00  0.00    +0.000 C 
ATOM     22  C   UNL     1       0.538   9.591  20.224  0.00  0.00    +0.000 C 
BRANCH  21  23
ATOM     23  C   UNL     1      -0.914  11.583  20.907  0.00  0.00    +0.000 C 
BRANCH  23  24
ATOM     24  N   UNL     1      -1.501  11.999  22.187  0.00  0.00    +0.000 NA
ATOM     25  H   UNL     1      -1.699  13.001  22.126  0.00  0.00    +0.000 HD
ATOM     26  H   UNL     1      -0.816  11.880  22.931  0.00  0.00    +0.000 HD
ENDBRANCH  23  24
ENDBRANCH  21  23
ENDBRANCH  17  18
ENDBRANCH   6  17
TORSDOF 7
ENDMDL
MODEL 3
REMARK VINA RESULT:      -6.2      3.684      5.024
REMARK  Name = 
REMARK  9 active torsions:
REMARK  status: ('A' for Active; 'I' for Inactive)
REMARK    1  A    between atoms: C_1  and  C_2
REMARK    2  A    between atoms: C_2  and  O_3
REMARK    3  A    between atoms: C_2  and  C_4
REMARK    4  A    between atoms: C_8  and  C_9
REMARK    5  A    between atoms: C_12  and  S_13
REMARK    6  A    between atoms: S_13  and  C_14
REMARK    7  A    between atoms: C_17  and  C_18
REMARK    8  A    between atoms: C_18  and  N_19
REMARK    9  A    between atoms: C_21  and  C_22
REMARK                            x       y       z     vdW  Elec       q    Type
REMARK                         _______ _______ _______ _____ _____    ______ ____
ROOT
ATOM      1  C   UNL     1       4.810   4.593  17.867  0.00  0.00    +0.000 C 
ATOM      2  C   UNL     1       3.987   3.502  18.603  0.00  0.00    +0.000 C 
ATOM      3  O   UNL     1       3.727   2.328  18.461  0.00  0.00    +0.000 OA
ATOM      4  N   UNL     1       3.849   4.298  19.699  0.00  0.00    +0.000 N 
ATOM      5  C   UNL     1       2.621   4.561  20.301  0.00  0.00    +0.000 C 
ATOM      6  C   UNL     1       2.281   5.848  20.132  0.00  0.00    +0.000 C 
ATOM      7  C   UNL     1       3.207   6.530  19.142  0.00  0.00    +0.000 C 
ATOM      8  C   UNL     1       2.581   6.784  17.776  0.00  0.00    +0.000 C 
ATOM      9  C   UNL     1       4.368   5.526  19.053  0.00  0.00    +0.000 C 
ENDROOT
BRANCH   5  10
ATOM     10  C   UNL     1       1.884   3.430  21.093  0.00  0.00    +0.000 C 
ATOM     11  O   UNL     1       0.918   2.916  20.430  0.00  0.00    +0.000 OA
ATOM     12  O   UNL     1       2.221   3.204  22.273  0.00  0.00    +0.000 OA
ENDBRANCH   5  10
BRANCH   1  14
ATOM     13  C   UNL     1       6.971   4.836  16.603  0.00  0.00    +0.000 C 
ATOM     14  C   UNL     1       6.295   4.245  17.834  0.00  0.00    +0.000 C 
BRANCH  14  15
ATOM     15  O   UNL     1       6.935   4.777  18.988  0.00  0.00    +0.000 OA
ATOM     16  H   UNL     1       6.969   5.746  18.907  0.00  0.00    +0.000 HD
ENDBRANCH  14  15
ENDBRANCH   1  14
BRANCH   6  17
ATOM     17  S   UNL     1       0.973   6.680  20.873  0.00  0.00    +0.000 S 
BRANCH  17  18
ATOM     18  C   UNL     1       1.521   8.432  20.898  0.00  0.00    +0.000 C 
ATOM     19  C   UNL     1       1.167   9.168  22.186  0.00  0.00    +0.000 C 
ATOM     20  O   UNL     1       0.289  10.246  21.828  0.00  0.00    +0.000 OA
ATOM     21  C   UNL     1       0.674  10.640  20.494  0.00  0.00    +0.000 C 
ATOM     22  C   UNL     1       1.009   9.335  19.782  0.00  0.00    +0.000 C 
BRANCH  21  23
ATOM     23  C   UNL     1      -0.470  11.423  19.835  0.00  0.00    +0.000 C 
BRANCH  23  24
ATOM     24  N   UNL     1      -0.287  11.503  18.380  0.00  0.00    +0.000 NA
ATOM     25  H   UNL     1      -0.256  10.546  18.019  0.00  0.00    +0.000 HD
ATOM     26  H   UNL     1       0.616  11.925  18.172  0.00  0.00    +0.000 HD
ENDBRANCH  23  24
ENDBRANCH  21  23
ENDBRANCH  17  18
ENDBRANCH   6  17
TORSDOF 7
ENDMDL
MODEL 4
REMARK VINA RESULT:      -6.1      5.303      7.543
REMARK  Name = 
REMARK  9 active torsions:
REMARK  status: ('A' for Active; 'I' for Inactive)
REMARK    1  A    between atoms: C_1  and  C_2
REMARK    2  A    between atoms: C_2  and  O_3
REMARK    3  A    between atoms: C_2  and  C_4
REMARK    4  A    between atoms: C_8  and  C_9
REMARK    5  A    between atoms: C_12  and  S_13
REMARK    6  A    between atoms: S_13  and  C_14
REMARK    7  A    between atoms: C_17  and  C_18
REMARK    8  A    between atoms: C_18  and  N_19
REMARK    9  A    between atoms: C_21  and  C_22
REMARK                            x       y       z     vdW  Elec       q    Type
REMARK                         _______ _______ _______ _____ _____    ______ ____
ROOT
ATOM      1  C   UNL     1      -0.421  11.626  18.403  0.00  0.00    +0.000 C 
ATOM      2  C   UNL     1      -0.457  11.451  19.945  0.00  0.00    +0.000 C 
ATOM      3  O   UNL     1      -0.625  12.147  20.921  0.00  0.00    +0.000 OA
ATOM      4  N   UNL     1      -0.499  10.096  19.824  0.00  0.00    +0.000 N 
ATOM      5  C   UNL     1       0.366   9.242  20.504  0.00  0.00    +0.000 C 
ATOM      6  C   UNL     1       1.202   8.639  19.645  0.00  0.00    +0.000 C 
ATOM      7  C   UNL     1       1.104   9.260  18.264  0.00  0.00    +0.000 C 
ATOM      8  C   UNL     1       2.287  10.148  17.894  0.00  0.00    +0.000 C 
ATOM      9  C   UNL     1      -0.197  10.070  18.373  0.00  0.00    +0.000 C 
ENDROOT
BRANCH   5  10
ATOM     10  C   UNL     1       0.220   9.057  22.050  0.00  0.00    +0.000 C 
ATOM     11  O   UNL     1       1.223   9.521  22.697  0.00  0.00    +0.000 OA
ATOM     12  O   UNL     1      -0.759   8.422  22.491  0.00  0.00    +0.000 OA
ENDBRANCH   5  10
BRANCH   1  14
ATOM     13  C   UNL     1      -2.454  11.001  17.062  0.00  0.00    +0.000 C 
ATOM     14  C   UNL     1      -1.767  12.099  17.863  0.00  0.00    +0.000 C 
BRANCH  14  15
ATOM     15  O   UNL     1      -2.617  12.454  18.947  0.00  0.00    +0.000 OA
ATOM     16  H   UNL     1      -2.876  11.643  19.419  0.00  0.00    +0.000 HD
ENDBRANCH  14  15
ENDBRANCH   1  14
BRANCH   6  17
ATOM     17  S   UNL     1       2.290   7.353  19.987  0.00  0.00    +0.000 S 
BRANCH  17  18
ATOM     18  C   UNL     1       2.559   6.556  18.356  0.00  0.00    +0.000 C 
ATOM     19  C   UNL     1       2.146   5.088  18.314  0.00  0.00    +0.000 C 
ATOM     20  O   UNL     1       3.328   4.326  18.024  0.00  0.00    +0.000 OA
ATOM     21  C   UNL     1       4.158   5.182  17.211  0.00  0.00    +0.000 C 
ATOM     22  C   UNL     1       3.978   6.575  17.800  0.00  0.00    +0.000 C 
BRANCH  21  23
ATOM     23  C   UNL     1       5.609   4.682  17.249  0.00  0.00    +0.000 C 
BRANCH  23  24
ATOM     24  N   UNL     1       5.855   3.858  18.439  0.00  0.00    +0.000 NA
ATOM     25  H   UNL     1       6.654   3.252  18.236  0.00  0.00    +0.000 HD
ATOM     26  H   UNL     1       5.057   3.246  18.601  0.00  0.00    +0.000 HD
ENDBRANCH  23  24
ENDBRANCH  21  23
ENDBRANCH  17  18
ENDBRANCH   6  17
TORSDOF 7
ENDMDL
MODEL 5
REMARK VINA RESULT:      -6.1      3.935      5.844
REMARK  Name = 
REMARK  9 active torsions:
REMARK  status: ('A' for Active; 'I' for Inactive)
REMARK    1  A    between atoms: C_1  and  C_2
REMARK    2  A    between atoms: C_2  and  O_3
REMARK    3  A    between atoms: C_2  and  C_4
REMARK    4  A    between atoms: C_8  and  C_9
REMARK    5  A    between atoms: C_12  and  S_13
REMARK    6  A    between atoms: S_13  and  C_14
REMARK    7  A    between atoms: C_17  and  C_18
REMARK    8  A    between atoms: C_18  and  N_19
REMARK    9  A    between atoms: C_21  and  C_22
REMARK                            x       y       z     vdW  Elec       q    Type
REMARK                         _______ _______ _______ _____ _____    ______ ____
ROOT
ATOM      1  C   UNL     1       3.363   3.720  19.488  0.00  0.00    +0.000 C 
ATOM      2  C   UNL     1       4.616   4.283  18.766  0.00  0.00    +0.000 C 
ATOM      3  O   UNL     1       5.807   4.069  18.743  0.00  0.00    +0.000 OA
ATOM      4  N   UNL     1       3.840   4.987  17.897  0.00  0.00    +0.000 N 
ATOM      5  C   UNL     1       4.016   6.346  17.645  0.00  0.00    +0.000 C 
ATOM      6  C   UNL     1       2.978   7.050  18.123  0.00  0.00    +0.000 C 
ATOM      7  C   UNL     1       2.084   6.181  18.988  0.00  0.00    +0.000 C 
ATOM      8  C   UNL     1       2.211   6.451  20.483  0.00  0.00    +0.000 C 
ATOM      9  C   UNL     1       2.569   4.769  18.626  0.00  0.00    +0.000 C 
ENDROOT
BRANCH   5  10
ATOM     10  C   UNL     1       5.267   6.833  16.843  0.00  0.00    +0.000 C 
ATOM     11  O   UNL     1       5.108   6.736  15.577  0.00  0.00    +0.000 OA
ATOM     12  O   UNL     1       6.292   7.166  17.471  0.00  0.00    +0.000 OA
ENDBRANCH   5  10
BRANCH   1  14
ATOM     13  C   UNL     1       1.739   2.074  18.498  0.00  0.00    +0.000 C 
ATOM     14  C   UNL     1       3.116   2.259  19.122  0.00  0.00    +0.000 C 
BRANCH  14  15
ATOM     15  O   UNL     1       4.091   1.834  18.177  0.00  0.00    +0.000 OA
ATOM     16  H   UNL     1       4.507   1.018  18.503  0.00  0.00    +0.000 HD
ENDBRANCH  14  15
ENDBRANCH   1  14
BRANCH   6  17
ATOM     17  S   UNL     1       2.649   8.716  17.862  0.00  0.00    +0.000 S 
BRANCH  17  18
ATOM     18  C   UNL     1       1.030   8.981  18.687  0.00  0.00    +0.000 C 
ATOM     19  C   UNL     1       0.013   9.717  17.820  0.00  0.00    +0.000 C 
ATOM     20  O   UNL     1      -0.307  10.942  18.495  0.00  0.00    +0.000 OA
ATOM     21  C   UNL     1      -0.172  10.662  19.904  0.00  0.00    +0.000 C 
ATOM     22  C   UNL     1       1.039   9.743  20.006  0.00  0.00    +0.000 C 
BRANCH  21  23
ATOM     23  C   UNL     1      -0.011  11.977  20.680  0.00  0.00    +0.000 C 
BRANCH  23  24
ATOM     24  N   UNL     1       1.363  12.137  21.173  0.00  0.00    +0.000 NA
ATOM     25  H   UNL     1       1.315  12.266  22.187  0.00  0.00    +0.000 HD
ATOM     26  H   UNL     1       1.766  12.989  20.788  0.00  0.00    +0.000 HD
ENDBRANCH  23  24
ENDBRANCH  21  23
ENDBRANCH  17  18
ENDBRANCH   6  17
TORSDOF 7
ENDMDL
MODEL 6
REMARK VINA RESULT:      -6.1      2.396      3.969
REMARK  Name = 
REMARK  9 active torsions:
REMARK  status: ('A' for Active; 'I' for Inactive)
REMARK    1  A    between atoms: C_1  and  C_2
REMARK    2  A    between atoms: C_2  and  O_3
REMARK    3  A    between atoms: C_2  and  C_4
REMARK    4  A    between atoms: C_8  and  C_9
REMARK    5  A    between atoms: C_12  and  S_13
REMARK    6  A    between atoms: S_13  and  C_14
REMARK    7  A    between atoms: C_17  and  C_18
REMARK    8  A    between atoms: C_18  and  N_19
REMARK    9  A    between atoms: C_21  and  C_22
REMARK                            x       y       z     vdW  Elec       q    Type
REMARK                         _______ _______ _______ _____ _____    ______ ____
ROOT
ATOM      1  C   UNL     1       6.000   3.897  14.264  0.00  0.00    +0.000 C 
ATOM      2  C   UNL     1       7.021   4.920  14.829  0.00  0.00    +0.000 C 
ATOM      3  O   UNL     1       8.184   5.211  14.658  0.00  0.00    +0.000 OA
ATOM      4  N   UNL     1       6.031   5.618  15.450  0.00  0.00    +0.000 N 
ATOM      5  C   UNL     1       6.075   5.971  16.796  0.00  0.00    +0.000 C 
ATOM      6  C   UNL     1       5.142   5.300  17.489  0.00  0.00    +0.000 C 
ATOM      7  C   UNL     1       4.518   4.206  16.642  0.00  0.00    +0.000 C 
ATOM      8  C   UNL     1       4.975   2.798  17.006  0.00  0.00    +0.000 C 
ATOM      9  C   UNL     1       4.976   4.600  15.229  0.00  0.00    +0.000 C 
ENDROOT
BRANCH   5  10
ATOM     10  C   UNL     1       7.080   7.068  17.280  0.00  0.00    +0.000 C 
ATOM     11  O   UNL     1       7.916   6.622  18.142  0.00  0.00    +0.000 OA
ATOM     12  O   UNL     1       6.930   8.240  16.882  0.00  0.00    +0.000 OA
ENDBRANCH   5  10
BRANCH   1  14
ATOM     13  C   UNL     1       6.843   3.483  11.931  0.00  0.00    +0.000 C 
ATOM     14  C   UNL     1       5.749   4.121  12.776  0.00  0.00    +0.000 C 
BRANCH  14  15
ATOM     15  O   UNL     1       4.507   3.533  12.409  0.00  0.00    +0.000 OA
ATOM     16  H   UNL     1       4.193   2.980  13.146  0.00  0.00    +0.000 HD
ENDBRANCH  14  15
ENDBRANCH   1  14
BRANCH   6  17
ATOM     17  S   UNL     1       4.677   5.559  19.123  0.00  0.00    +0.000 S 
BRANCH  17  18
ATOM     18  C   UNL     1       2.885   5.160  19.142  0.00  0.00    +0.000 C 
ATOM     19  C   UNL     1       2.077   6.015  20.113  0.00  0.00    +0.000 C 
ATOM     20  O   UNL     1       1.505   5.124  21.082  0.00  0.00    +0.000 OA
ATOM     21  C   UNL     1       1.291   3.875  20.390  0.00  0.00    +0.000 C 
ATOM     22  C   UNL     1       2.498   3.724  19.473  0.00  0.00    +0.000 C 
BRANCH  21  23
ATOM     23  C   UNL     1       1.148   2.737  21.410  0.00  0.00    +0.000 C 
BRANCH  23  24
ATOM     24  N   UNL     1       2.354   2.614  22.238  0.00  0.00    +0.000 NA
ATOM     25  H   UNL     1       3.007   3.346  21.946  0.00  0.00    +0.000 HD
ATOM     26  H   UNL     1       2.809   1.723  22.049  0.00  0.00    +0.000 HD
ENDBRANCH  23  24
ENDBRANCH  21  23
ENDBRANCH  17  18
ENDBRANCH   6  17
TORSDOF 7
ENDMDL
MODEL 7
REMARK VINA RESULT:      -6.1      4.177      6.113
REMARK  Name = 
REMARK  9 active torsions:
REMARK  status: ('A' for Active; 'I' for Inactive)
REMARK    1  A    between atoms: C_1  and  C_2
REMARK    2  A    between atoms: C_2  and  O_3
REMARK    3  A    between atoms: C_2  and  C_4
REMARK    4  A    between atoms: C_8  and  C_9
REMARK    5  A    between atoms: C_12  and  S_13
REMARK    6  A    between atoms: S_13  and  C_14
REMARK    7  A    between atoms: C_17  and  C_18
REMARK    8  A    between atoms: C_18  and  N_19
REMARK    9  A    between atoms: C_21  and  C_22
REMARK                            x       y       z     vdW  Elec       q    Type
REMARK                         _______ _______ _______ _____ _____    ______ ____
ROOT
ATOM      1  C   UNL     1       3.312   3.880  19.596  0.00  0.00    +0.000 C 
ATOM      2  C   UNL     1       4.593   4.376  18.874  0.00  0.00    +0.000 C 
ATOM      3  O   UNL     1       5.780   4.136  18.891  0.00  0.00    +0.000 OA
ATOM      4  N   UNL     1       3.853   5.045  17.947  0.00  0.00    +0.000 N 
ATOM      5  C   UNL     1       4.064   6.383  17.624  0.00  0.00    +0.000 C 
ATOM      6  C   UNL     1       3.031   7.134  18.036  0.00  0.00    +0.000 C 
ATOM      7  C   UNL     1       2.099   6.335  18.927  0.00  0.00    +0.000 C 
ATOM      8  C   UNL     1       2.197   6.686  20.407  0.00  0.00    +0.000 C 
ATOM      9  C   UNL     1       2.561   4.895  18.657  0.00  0.00    +0.000 C 
ENDROOT
BRANCH   5  10
ATOM     10  C   UNL     1       5.345   6.798  16.827  0.00  0.00    +0.000 C 
ATOM     11  O   UNL     1       5.177   6.732  15.559  0.00  0.00    +0.000 OA
ATOM     12  O   UNL     1       6.390   7.052  17.457  0.00  0.00    +0.000 OA
ENDBRANCH   5  10
BRANCH   1  14
ATOM     13  C   UNL     1       1.789   2.233  18.457  0.00  0.00    +0.000 C 
ATOM     14  C   UNL     1       3.042   2.406  19.306  0.00  0.00    +0.000 C 
BRANCH  14  15
ATOM     15  O   UNL     1       4.140   1.852  18.592  0.00  0.00    +0.000 OA
ATOM     16  H   UNL     1       4.306   0.953  18.923  0.00  0.00    +0.000 HD
ENDBRANCH  14  15
ENDBRANCH   1  14
BRANCH   6  17
ATOM     17  S   UNL     1       2.744   8.789  17.674  0.00  0.00    +0.000 S 
BRANCH  17  18
ATOM     18  C   UNL     1       1.205   9.182  18.594  0.00  0.00    +0.000 C 
ATOM     19  C   UNL     1      -0.053   9.135  17.733  0.00  0.00    +0.000 C 
ATOM     20  O   UNL     1      -0.620  10.453  17.742  0.00  0.00    +0.000 OA
ATOM     21  C   UNL     1      -0.274  11.022  19.022  0.00  0.00    +0.000 C 
ATOM     22  C   UNL     1       1.143  10.533  19.297  0.00  0.00    +0.000 C 
BRANCH  21  23
ATOM     23  C   UNL     1      -0.394  12.551  18.959  0.00  0.00    +0.000 C 
BRANCH  23  24
ATOM     24  N   UNL     1      -0.993  12.983  17.690  0.00  0.00    +0.000 NA
ATOM     25  H   UNL     1      -0.266  13.461  17.152  0.00  0.00    +0.000 HD
ATOM     26  H   UNL     1      -1.721  13.670  17.873  0.00  0.00    +0.000 HD
ENDBRANCH  23  24
ENDBRANCH  21  23
ENDBRANCH  17  18
ENDBRANCH   6  17
TORSDOF 7
ENDMDL
MODEL 8
REMARK VINA RESULT:      -6.1      2.722      3.879
REMARK  Name = 
REMARK  9 active torsions:
REMARK  status: ('A' for Active; 'I' for Inactive)
REMARK    1  A    between atoms: C_1  and  C_2
REMARK    2  A    between atoms: C_2  and  O_3
REMARK    3  A    between atoms: C_2  and  C_4
REMARK    4  A    between atoms: C_8  and  C_9
REMARK    5  A    between atoms: C_12  and  S_13
REMARK    6  A    between atoms: S_13  and  C_14
REMARK    7  A    between atoms: C_17  and  C_18
REMARK    8  A    between atoms: C_18  and  N_19
REMARK    9  A    between atoms: C_21  and  C_22
REMARK                            x       y       z     vdW  Elec       q    Type
REMARK                         _______ _______ _______ _____ _____    ______ ____
ROOT
ATOM      1  C   UNL     1       6.701   5.132  14.915  0.00  0.00    +0.000 C 
ATOM      2  C   UNL     1       5.487   5.992  15.357  0.00  0.00    +0.000 C 
ATOM      3  O   UNL     1       4.985   7.052  15.057  0.00  0.00    +0.000 OA
ATOM      4  N   UNL     1       4.974   4.958  16.080  0.00  0.00    +0.000 N 
ATOM      5  C   UNL     1       4.583   5.078  17.411  0.00  0.00    +0.000 C 
ATOM      6  C   UNL     1       5.400   4.371  18.206  0.00  0.00    +0.000 C 
ATOM      7  C   UNL     1       6.615   3.881  17.439  0.00  0.00    +0.000 C 
ATOM      8  C   UNL     1       7.900   4.637  17.760  0.00  0.00    +0.000 C 
ATOM      9  C   UNL     1       6.179   4.101  15.983  0.00  0.00    +0.000 C 
ENDROOT
BRANCH   5  10
ATOM     10  C   UNL     1       3.303   5.900  17.774  0.00  0.00    +0.000 C 
ATOM     11  O   UNL     1       2.251   5.172  17.833  0.00  0.00    +0.000 OA
ATOM     12  O   UNL     1       3.392   7.140  17.876  0.00  0.00    +0.000 OA
ENDBRANCH   5  10
BRANCH   1  14
ATOM     13  C   UNL     1       7.782   5.104  12.644  0.00  0.00    +0.000 C 
ATOM     14  C   UNL     1       6.568   4.684  13.462  0.00  0.00    +0.000 C 
BRANCH  14  15
ATOM     15  O   UNL     1       6.468   3.265  13.408  0.00  0.00    +0.000 OA
ATOM     16  H   UNL     1       7.362   2.893  13.318  0.00  0.00    +0.000 HD
ENDBRANCH  14  15
ENDBRANCH   1  14
BRANCH   6  17
ATOM     17  S   UNL     1       5.190   4.044  19.880  0.00  0.00    +0.000 S 
BRANCH  17  18
ATOM     18  C   UNL     1       4.102   2.566  19.908  0.00  0.00    +0.000 C 
ATOM     19  C   UNL     1       3.931   1.904  18.545  0.00  0.00    +0.000 C 
ATOM     20  O   UNL     1       2.536   1.978  18.214  0.00  0.00    +0.000 OA
ATOM     21  C   UNL     1       1.830   1.934  19.471  0.00  0.00    +0.000 C 
ATOM     22  C   UNL     1       2.682   2.759  20.427  0.00  0.00    +0.000 C 
BRANCH  21  23
ATOM     23  C   UNL     1       0.409   2.485  19.286  0.00  0.00    +0.000 C 
BRANCH  23  24
ATOM     24  N   UNL     1       0.246   3.772  19.972  0.00  0.00    +0.000 NA
ATOM     25  H   UNL     1      -0.563   3.692  20.593  0.00  0.00    +0.000 HD
ATOM     26  H   UNL     1       0.022   4.496  19.292  0.00  0.00    +0.000 HD
ENDBRANCH  23  24
ENDBRANCH  21  23
ENDBRANCH  17  18
ENDBRANCH   6  17
TORSDOF 7
ENDMDL
MODEL 9
REMARK VINA RESULT:      -6.0      2.829      3.965
REMARK  Name = 
REMARK  9 active torsions:
REMARK  status: ('A' for Active; 'I' for Inactive)
REMARK    1  A    between atoms: C_1  and  C_2
REMARK    2  A    between atoms: C_2  and  O_3
REMARK    3  A    between atoms: C_2  and  C_4
REMARK    4  A    between atoms: C_8  and  C_9
REMARK    5  A    between atoms: C_12  and  S_13
REMARK    6  A    between atoms: S_13  and  C_14
REMARK    7  A    between atoms: C_17  and  C_18
REMARK    8  A    between atoms: C_18  and  N_19
REMARK    9  A    between atoms: C_21  and  C_22
REMARK                            x       y       z     vdW  Elec       q    Type
REMARK                         _______ _______ _______ _____ _____    ______ ____
ROOT
ATOM      1  C   UNL     1       5.815   3.757  15.273  0.00  0.00    +0.000 C 
ATOM      2  C   UNL     1       6.925   4.251  16.238  0.00  0.00    +0.000 C 
ATOM      3  O   UNL     1       8.119   4.108  16.377  0.00  0.00    +0.000 OA
ATOM      4  N   UNL     1       6.092   5.186  16.772  0.00  0.00    +0.000 N 
ATOM      5  C   UNL     1       5.888   5.333  18.142  0.00  0.00    +0.000 C 
ATOM      6  C   UNL     1       4.636   4.977  18.471  0.00  0.00    +0.000 C 
ATOM      7  C   UNL     1       3.938   4.304  17.304  0.00  0.00    +0.000 C 
ATOM      8  C   UNL     1       3.789   2.795  17.453  0.00  0.00    +0.000 C 
ATOM      9  C   UNL     1       4.861   4.668  16.131  0.00  0.00    +0.000 C 
ENDROOT
BRANCH   5  10
ATOM     10  C   UNL     1       7.030   5.911  19.042  0.00  0.00    +0.000 C 
ATOM     11  O   UNL     1       7.660   6.872  18.478  0.00  0.00    +0.000 OA
ATOM     12  O   UNL     1       7.278   5.355  20.130  0.00  0.00    +0.000 OA
ENDBRANCH   5  10
BRANCH   1  14
ATOM     13  C   UNL     1       7.348   5.044  13.751  0.00  0.00    +0.000 C 
ATOM     14  C   UNL     1       6.060   4.236  13.846  0.00  0.00    +0.000 C 
BRANCH  14  15
ATOM     15  O   UNL     1       6.178   3.113  12.980  0.00  0.00    +0.000 OA
ATOM     16  H   UNL     1       7.069   2.735  13.079  0.00  0.00    +0.000 HD
ENDBRANCH  14  15
ENDBRANCH   1  14
BRANCH   6  17
ATOM     17  S   UNL     1       3.864   5.191  19.991  0.00  0.00    +0.000 S 
BRANCH  17  18
ATOM     18  C   UNL     1       2.330   6.113  19.581  0.00  0.00    +0.000 C 
ATOM     19  C   UNL     1       2.577   7.403  18.805  0.00  0.00    +0.000 C 
ATOM     20  O   UNL     1       2.097   8.483  19.619  0.00  0.00    +0.000 OA
ATOM     21  C   UNL     1       1.001   7.940  20.385  0.00  0.00    +0.000 C 
ATOM     22  C   UNL     1       1.436   6.526  20.745  0.00  0.00    +0.000 C 
BRANCH  21  23
ATOM     23  C   UNL     1       0.734   8.830  21.608  0.00  0.00    +0.000 C 
BRANCH  23  24
ATOM     24  N   UNL     1       1.971   9.089  22.354  0.00  0.00    +0.000 NA
ATOM     25  H   UNL     1       2.401   9.929  21.958  0.00  0.00    +0.000 HD
ATOM     26  H   UNL     1       2.627   8.325  22.204  0.00  0.00    +0.000 HD
ENDBRANCH  23  24
ENDBRANCH  21  23
ENDBRANCH  17  18
ENDBRANCH   6  17
TORSDOF 7
ENDMDL
