MODEL 1
REMARK VINA RESULT:      -7.5      0.000      0.000
REMARK  Name = 
REMARK  7 active torsions:
REMARK  status: ('A' for Active; 'I' for Inactive)
REMARK    1  A    between atoms: C_1  and  O_2
REMARK    2  A    between atoms: O_2  and  C_3
REMARK    3  A    between atoms: C_5  and  C_6
REMARK    4  A    between atoms: N_8  and  S_9
REMARK    5  A    between atoms: S_9  and  C_12
REMARK    6  A    between atoms: C_21  and  O_22
REMARK    7  A    between atoms: O_22  and  C_23
REMARK                            x       y       z     vdW  Elec       q    Type
REMARK                         _______ _______ _______ _____ _____    ______ ____
ROOT
ATOM      1  C   UNL     1       1.940   8.889  18.479  0.00  0.00    +0.000 C 
ATOM      2  O   UNL     1       2.154   9.628  17.530  0.00  0.00    +0.000 OA
ATOM      3  N   UNL     1       1.090   9.245  19.535  0.00  0.00    +0.000 N 
ATOM      4  H   UNL     1       1.090   8.748  20.420  0.00  0.00    +0.000 HD
ENDROOT
BRANCH   1   7
ATOM      5  C   UNL     1       2.715   5.408  19.736  0.00  0.00    +0.000 A 
ATOM      6  C   UNL     1       2.266   6.735  19.654  0.00  0.00    +0.000 A 
ATOM      7  C   UNL     1       2.585   7.546  18.553  0.00  0.00    +0.000 A 
ATOM      8  C   UNL     1       3.445   7.047  17.574  0.00  0.00    +0.000 A 
ATOM      9  C   UNL     1       3.945   5.749  17.686  0.00  0.00    +0.000 A 
ATOM     10  C   UNL     1       3.590   4.920  18.759  0.00  0.00    +0.000 A 
BRANCH   5  12
ATOM     11  C   UNL     1       1.085   3.877  20.516  0.00  0.00    +0.000 C 
ATOM     12  O   UNL     1       2.312   4.576  20.744  0.00  0.00    +0.000 OA
ENDBRANCH   5  12
BRANCH  10  13
ATOM     13  O   UNL     1       4.107   3.661  18.649  0.00  0.00    +0.000 OA
BRANCH  13  14
ATOM     14  C   UNL     1       3.573   2.807  17.653  0.00  0.00    +0.000 C 
ATOM     15  F   UNL     1       3.519   1.544  18.142  0.00  0.00    +0.000 F 
ATOM     16  F   UNL     1       2.280   3.194  17.474  0.00  0.00    +0.000 F 
ENDBRANCH  13  14
ENDBRANCH  10  13
ENDBRANCH   1   7
BRANCH   3  17
ATOM     17  S   UNL     1       0.388  10.741  19.667  0.00  0.00    +0.000 S 
ATOM     18  O   UNL     1      -0.119  10.850  21.016  0.00  0.00    +0.000 OA
ATOM     19  O   UNL     1       1.310  11.721  19.140  0.00  0.00    +0.000 OA
BRANCH  17  20
ATOM     20  C   UNL     1      -1.011  10.838  18.667  0.00  0.00    +0.000 A 
ATOM     21  C   UNL     1      -1.209  10.036  17.496  0.00  0.00    +0.000 A 
ATOM     22  C   UNL     1      -2.437  10.285  16.937  0.00  0.00    +0.000 A 
ATOM     23 CL   UNL     1      -3.099   9.534  15.545  0.00  0.00    +0.000 Cl
ATOM     24  S   UNL     1      -3.334  11.455  17.769  0.00  0.00    +0.000 S 
ATOM     25  C   UNL     1      -2.094  11.639  18.918  0.00  0.00    +0.000 A 
ATOM     26 CL   UNL     1      -2.350  12.735  20.221  0.00  0.00    +0.000 Cl
ENDBRANCH  17  20
ENDBRANCH   3  17
TORSDOF 6
ENDMDL
MODEL 2
REMARK VINA RESULT:      -7.5      2.570      3.716
REMARK  Name = 
REMARK  7 active torsions:
REMARK  status: ('A' for Active; 'I' for Inactive)
REMARK    1  A    between atoms: C_1  and  O_2
REMARK    2  A    between atoms: O_2  and  C_3
REMARK    3  A    between atoms: C_5  and  C_6
REMARK    4  A    between atoms: N_8  and  S_9
REMARK    5  A    between atoms: S_9  and  C_12
REMARK    6  A    between atoms: C_21  and  O_22
REMARK    7  A    between atoms: O_22  and  C_23
REMARK                            x       y       z     vdW  Elec       q    Type
REMARK                         _______ _______ _______ _____ _____    ______ ____
ROOT
ATOM      1  C   UNL     1       2.174   8.380  18.243  0.00  0.00    +0.000 C 
ATOM      2  O   UNL     1       2.312   8.921  17.157  0.00  0.00    +0.000 OA
ATOM      3  N   UNL     1       1.390   8.932  19.266  0.00  0.00    +0.000 N 
ATOM      4  H   UNL     1       1.457   8.616  20.229  0.00  0.00    +0.000 HD
ENDROOT
BRANCH   1   7
ATOM      5  C   UNL     1       4.639   5.529  17.929  0.00  0.00    +0.000 A 
ATOM      6  C   UNL     1       3.863   6.667  17.659  0.00  0.00    +0.000 A 
ATOM      7  C   UNL     1       2.843   7.078  18.532  0.00  0.00    +0.000 A 
ATOM      8  C   UNL     1       2.535   6.280  19.635  0.00  0.00    +0.000 A 
ATOM      9  C   UNL     1       3.263   5.113  19.871  0.00  0.00    +0.000 A 
ATOM     10  C   UNL     1       4.315   4.725  19.029  0.00  0.00    +0.000 A 
BRANCH   5  12
ATOM     11  C   UNL     1       5.409   4.386  16.004  0.00  0.00    +0.000 C 
ATOM     12  O   UNL     1       5.709   5.190  17.149  0.00  0.00    +0.000 OA
ENDBRANCH   5  12
BRANCH  10  13
ATOM     13  O   UNL     1       4.962   3.607  19.470  0.00  0.00    +0.000 OA
BRANCH  13  14
ATOM     14  C   UNL     1       4.178   2.490  19.847  0.00  0.00    +0.000 C 
ATOM     15  F   UNL     1       3.953   1.722  18.753  0.00  0.00    +0.000 F 
ATOM     16  F   UNL     1       4.957   1.741  20.676  0.00  0.00    +0.000 F 
ENDBRANCH  13  14
ENDBRANCH  10  13
ENDBRANCH   1   7
BRANCH   3  17
ATOM     17  S   UNL     1       0.675  10.423  19.154  0.00  0.00    +0.000 S 
ATOM     18  O   UNL     1       1.727  11.373  18.869  0.00  0.00    +0.000 OA
ATOM     19  O   UNL     1      -0.476  10.308  18.289  0.00  0.00    +0.000 OA
BRANCH  17  20
ATOM     20  C   UNL     1       0.055  10.907  20.686  0.00  0.00    +0.000 A 
ATOM     21  C   UNL     1      -0.100  12.274  21.087  0.00  0.00    +0.000 A 
ATOM     22  C   UNL     1      -0.673  12.356  22.330  0.00  0.00    +0.000 A 
ATOM     23 CL   UNL     1      -1.064  13.791  23.185  0.00  0.00    +0.000 Cl
ATOM     24  S   UNL     1      -1.009  10.847  23.021  0.00  0.00    +0.000 S 
ATOM     25  C   UNL     1      -0.407  10.046  21.647  0.00  0.00    +0.000 A 
ATOM     26 CL   UNL     1      -0.479   8.326  21.613  0.00  0.00    +0.000 Cl
ENDBRANCH  17  20
ENDBRANCH   3  17
TORSDOF 6
ENDMDL
MODEL 3
REMARK VINA RESULT:      -7.4      1.589      1.685
REMARK  Name = 
REMARK  7 active torsions:
REMARK  status: ('A' for Active; 'I' for Inactive)
REMARK    1  A    between atoms: C_1  and  O_2
REMARK    2  A    between atoms: O_2  and  C_3
REMARK    3  A    between atoms: C_5  and  C_6
REMARK    4  A    between atoms: N_8  and  S_9
REMARK    5  A    between atoms: S_9  and  C_12
REMARK    6  A    between atoms: C_21  and  O_22
REMARK    7  A    between atoms: O_22  and  C_23
REMARK                            x       y       z     vdW  Elec       q    Type
REMARK                         _______ _______ _______ _____ _____    ______ ____
ROOT
ATOM      1  C   UNL     1       2.071   8.901  18.234  0.00  0.00    +0.000 C 
ATOM      2  O   UNL     1       2.199   9.869  17.500  0.00  0.00    +0.000 OA
ATOM      3  N   UNL     1       1.188   8.892  19.322  0.00  0.00    +0.000 N 
ATOM      4  H   UNL     1       1.244   8.196  20.060  0.00  0.00    +0.000 HD
ENDROOT
BRANCH   1   7
ATOM      5  C   UNL     1       3.046   5.250  18.385  0.00  0.00    +0.000 A 
ATOM      6  C   UNL     1       2.448   6.490  18.655  0.00  0.00    +0.000 A 
ATOM      7  C   UNL     1       2.863   7.659  17.996  0.00  0.00    +0.000 A 
ATOM      8  C   UNL     1       3.955   7.594  17.131  0.00  0.00    +0.000 A 
ATOM      9  C   UNL     1       4.593   6.373  16.909  0.00  0.00    +0.000 A 
ATOM     10  C   UNL     1       4.151   5.196  17.527  0.00  0.00    +0.000 A 
BRANCH   5  12
ATOM     11  C   UNL     1       1.520   3.448  18.204  0.00  0.00    +0.000 C 
ATOM     12  O   UNL     1       2.571   4.091  18.932  0.00  0.00    +0.000 OA
ENDBRANCH   5  12
BRANCH  10  13
ATOM     13  O   UNL     1       4.843   4.091  17.120  0.00  0.00    +0.000 OA
BRANCH  13  14
ATOM     14  C   UNL     1       5.972   4.283  16.288  0.00  0.00    +0.000 C 
ATOM     15  F   UNL     1       7.096   4.159  17.037  0.00  0.00    +0.000 F 
ATOM     16  F   UNL     1       5.986   3.236  15.418  0.00  0.00    +0.000 F 
ENDBRANCH  13  14
ENDBRANCH  10  13
ENDBRANCH   1   7
BRANCH   3  17
ATOM     17  S   UNL     1       0.322  10.224  19.797  0.00  0.00    +0.000 S 
ATOM     18  O   UNL     1      -0.321   9.884  21.046  0.00  0.00    +0.000 OA
ATOM     19  O   UNL     1       1.182  11.381  19.696  0.00  0.00    +0.000 OA
BRANCH  17  20
ATOM     20  C   UNL     1      -0.976  10.517  18.703  0.00  0.00    +0.000 A 
ATOM     21  C   UNL     1      -1.169   9.790  17.483  0.00  0.00    +0.000 A 
ATOM     22  C   UNL     1      -2.315  10.196  16.850  0.00  0.00    +0.000 A 
ATOM     23 CL   UNL     1      -2.944   9.580  15.378  0.00  0.00    +0.000 Cl
ATOM     24  S   UNL     1      -3.143  11.424  17.670  0.00  0.00    +0.000 S 
ATOM     25  C   UNL     1      -1.982  11.422  18.914  0.00  0.00    +0.000 A 
ATOM     26 CL   UNL     1      -2.219  12.486  20.247  0.00  0.00    +0.000 Cl
ENDBRANCH  17  20
ENDBRANCH   3  17
TORSDOF 6
ENDMDL
MODEL 4
REMARK VINA RESULT:      -7.4      5.565      8.190
REMARK  Name = 
REMARK  7 active torsions:
REMARK  status: ('A' for Active; 'I' for Inactive)
REMARK    1  A    between atoms: C_1  and  O_2
REMARK    2  A    between atoms: O_2  and  C_3
REMARK    3  A    between atoms: C_5  and  C_6
REMARK    4  A    between atoms: N_8  and  S_9
REMARK    5  A    between atoms: S_9  and  C_12
REMARK    6  A    between atoms: C_21  and  O_22
REMARK    7  A    between atoms: O_22  and  C_23
REMARK                            x       y       z     vdW  Elec       q    Type
REMARK                         _______ _______ _______ _____ _____    ______ ____
ROOT
ATOM      1  C   UNL     1       3.074   6.081  19.164  0.00  0.00    +0.000 C 
ATOM      2  O   UNL     1       2.984   5.301  20.100  0.00  0.00    +0.000 OA
ATOM      3  N   UNL     1       3.865   5.818  18.038  0.00  0.00    +0.000 N 
ATOM      4  H   UNL     1       4.125   6.545  17.378  0.00  0.00    +0.000 HD
ENDROOT
BRANCH   1   7
ATOM      5  C   UNL     1       1.188   9.055  20.542  0.00  0.00    +0.000 A 
ATOM      6  C   UNL     1       1.786   7.793  20.405  0.00  0.00    +0.000 A 
ATOM      7  C   UNL     1       2.325   7.371  19.179  0.00  0.00    +0.000 A 
ATOM      8  C   UNL     1       2.172   8.187  18.057  0.00  0.00    +0.000 A 
ATOM      9  C   UNL     1       1.520   9.415  18.176  0.00  0.00    +0.000 A 
ATOM     10  C   UNL     1       1.024   9.862  19.409  0.00  0.00    +0.000 A 
BRANCH   5  12
ATOM     11  C   UNL     1      -0.431   8.929  22.264  0.00  0.00    +0.000 C 
ATOM     12  O   UNL     1       0.769   9.521  21.757  0.00  0.00    +0.000 OA
ENDBRANCH   5  12
BRANCH  10  13
ATOM     13  O   UNL     1       0.499  11.121  19.345  0.00  0.00    +0.000 OA
BRANCH  13  14
ATOM     14  C   UNL     1       1.303  12.149  18.795  0.00  0.00    +0.000 C 
ATOM     15  F   UNL     1       0.508  13.197  18.465  0.00  0.00    +0.000 F 
ATOM     16  F   UNL     1       2.101  12.589  19.806  0.00  0.00    +0.000 F 
ENDBRANCH  13  14
ENDBRANCH  10  13
ENDBRANCH   1   7
BRANCH   3  17
ATOM     17  S   UNL     1       4.850   4.490  17.912  0.00  0.00    +0.000 S 
ATOM     18  O   UNL     1       5.871   4.627  18.925  0.00  0.00    +0.000 OA
ATOM     19  O   UNL     1       4.015   3.313  17.855  0.00  0.00    +0.000 OA
BRANCH  17  20
ATOM     20  C   UNL     1       5.709   4.520  16.420  0.00  0.00    +0.000 A 
ATOM     21  C   UNL     1       5.387   3.689  15.298  0.00  0.00    +0.000 A 
ATOM     22  C   UNL     1       6.199   3.974  14.231  0.00  0.00    +0.000 A 
ATOM     23 CL   UNL     1       6.147   3.242  12.681  0.00  0.00    +0.000 Cl
ATOM     24  S   UNL     1       7.334   5.189  14.550  0.00  0.00    +0.000 S 
ATOM     25  C   UNL     1       6.741   5.375  16.133  0.00  0.00    +0.000 A 
ATOM     26 CL   UNL     1       7.452   6.586  17.129  0.00  0.00    +0.000 Cl
ENDBRANCH  17  20
ENDBRANCH   3  17
TORSDOF 6
ENDMDL
MODEL 5
REMARK VINA RESULT:      -7.4      5.219      8.047
REMARK  Name = 
REMARK  7 active torsions:
REMARK  status: ('A' for Active; 'I' for Inactive)
REMARK    1  A    between atoms: C_1  and  O_2
REMARK    2  A    between atoms: O_2  and  C_3
REMARK    3  A    between atoms: C_5  and  C_6
REMARK    4  A    between atoms: N_8  and  S_9
REMARK    5  A    between atoms: S_9  and  C_12
REMARK    6  A    between atoms: C_21  and  O_22
REMARK    7  A    between atoms: O_22  and  C_23
REMARK                            x       y       z     vdW  Elec       q    Type
REMARK                         _______ _______ _______ _____ _____    ______ ____
ROOT
ATOM      1  C   UNL     1       2.951   6.347  19.132  0.00  0.00    +0.000 C 
ATOM      2  O   UNL     1       2.867   5.620  20.110  0.00  0.00    +0.000 OA
ATOM      3  N   UNL     1       3.762   6.040  18.032  0.00  0.00    +0.000 N 
ATOM      4  H   UNL     1       4.015   6.734  17.335  0.00  0.00    +0.000 HD
ENDROOT
BRANCH   1   7
ATOM      5  C   UNL     1       0.875   9.285  20.299  0.00  0.00    +0.000 A 
ATOM      6  C   UNL     1       1.513   8.038  20.231  0.00  0.00    +0.000 A 
ATOM      7  C   UNL     1       2.172   7.619  19.064  0.00  0.00    +0.000 A 
ATOM      8  C   UNL     1       2.103   8.421  17.924  0.00  0.00    +0.000 A 
ATOM      9  C   UNL     1       1.414   9.633  17.970  0.00  0.00    +0.000 A 
ATOM     10  C   UNL     1       0.796  10.077  19.147  0.00  0.00    +0.000 A 
BRANCH   5  12
ATOM     11  C   UNL     1       0.960   9.288  22.665  0.00  0.00    +0.000 C 
ATOM     12  O   UNL     1       0.334   9.750  21.465  0.00  0.00    +0.000 OA
ENDBRANCH   5  12
BRANCH  10  13
ATOM     13  O   UNL     1       0.248  11.322  19.021  0.00  0.00    +0.000 OA
BRANCH  13  14
ATOM     14  C   UNL     1      -1.147  11.416  18.801  0.00  0.00    +0.000 C 
ATOM     15  F   UNL     1      -1.611  10.206  18.402  0.00  0.00    +0.000 F 
ATOM     16  F   UNL     1      -1.709  11.647  20.020  0.00  0.00    +0.000 F 
ENDBRANCH  13  14
ENDBRANCH  10  13
ENDBRANCH   1   7
BRANCH   3  17
ATOM     17  S   UNL     1       4.779   4.731  17.994  0.00  0.00    +0.000 S 
ATOM     18  O   UNL     1       5.797   4.960  18.994  0.00  0.00    +0.000 OA
ATOM     19  O   UNL     1       3.972   3.532  18.018  0.00  0.00    +0.000 OA
BRANCH  17  20
ATOM     20  C   UNL     1       5.637   4.681  16.502  0.00  0.00    +0.000 A 
ATOM     21  C   UNL     1       5.260   3.854  15.394  0.00  0.00    +0.000 A 
ATOM     22  C   UNL     1       6.089   4.069  14.322  0.00  0.00    +0.000 A 
ATOM     23 CL   UNL     1       5.988   3.316  12.784  0.00  0.00    +0.000 Cl
ATOM     24  S   UNL     1       7.300   5.213  14.621  0.00  0.00    +0.000 S 
ATOM     25  C   UNL     1       6.722   5.462  16.201  0.00  0.00    +0.000 A 
ATOM     26 CL   UNL     1       7.510   6.641  17.178  0.00  0.00    +0.000 Cl
ENDBRANCH  17  20
ENDBRANCH   3  17
TORSDOF 6
ENDMDL
MODEL 6
REMARK VINA RESULT:      -7.4      1.904      2.730
REMARK  Name = 
REMARK  7 active torsions:
REMARK  status: ('A' for Active; 'I' for Inactive)
REMARK    1  A    between atoms: C_1  and  O_2
REMARK    2  A    between atoms: O_2  and  C_3
REMARK    3  A    between atoms: C_5  and  C_6
REMARK    4  A    between atoms: N_8  and  S_9
REMARK    5  A    between atoms: S_9  and  C_12
REMARK    6  A    between atoms: C_21  and  O_22
REMARK    7  A    between atoms: O_22  and  C_23
REMARK                            x       y       z     vdW  Elec       q    Type
REMARK                         _______ _______ _______ _____ _____    ______ ____
ROOT
ATOM      1  C   UNL     1       2.077   8.846  18.186  0.00  0.00    +0.000 C 
ATOM      2  O   UNL     1       2.177   9.838  17.480  0.00  0.00    +0.000 OA
ATOM      3  N   UNL     1       1.213   8.791  19.289  0.00  0.00    +0.000 N 
ATOM      4  H   UNL     1       1.293   8.074  20.003  0.00  0.00    +0.000 HD
ENDROOT
BRANCH   1   7
ATOM      5  C   UNL     1       4.995   6.728  17.047  0.00  0.00    +0.000 A 
ATOM      6  C   UNL     1       4.110   7.800  17.236  0.00  0.00    +0.000 A 
ATOM      7  C   UNL     1       2.883   7.625  17.897  0.00  0.00    +0.000 A 
ATOM      8  C   UNL     1       2.501   6.339  18.281  0.00  0.00    +0.000 A 
ATOM      9  C   UNL     1       3.351   5.260  18.036  0.00  0.00    +0.000 A 
ATOM     10  C   UNL     1       4.598   5.439  17.421  0.00  0.00    +0.000 A 
BRANCH   5  12
ATOM     11  C   UNL     1       7.279   7.202  17.451  0.00  0.00    +0.000 C 
ATOM     12  O   UNL     1       6.239   6.913  16.512  0.00  0.00    +0.000 OA
ENDBRANCH   5  12
BRANCH  10  13
ATOM     13  O   UNL     1       5.322   4.283  17.346  0.00  0.00    +0.000 OA
BRANCH  13  14
ATOM     14  C   UNL     1       5.560   3.730  16.065  0.00  0.00    +0.000 C 
ATOM     15  F   UNL     1       4.827   4.410  15.150  0.00  0.00    +0.000 F 
ATOM     16  F   UNL     1       6.863   3.996  15.772  0.00  0.00    +0.000 F 
ENDBRANCH  13  14
ENDBRANCH  10  13
ENDBRANCH   1   7
BRANCH   3  17
ATOM     17  S   UNL     1       0.336  10.094  19.819  0.00  0.00    +0.000 S 
ATOM     18  O   UNL     1      -0.332   9.685  21.033  0.00  0.00    +0.000 OA
ATOM     19  O   UNL     1       1.196  11.255  19.800  0.00  0.00    +0.000 OA
BRANCH  17  20
ATOM     20  C   UNL     1      -0.940  10.446  18.717  0.00  0.00    +0.000 A 
ATOM     21  C   UNL     1      -1.158   9.730  17.495  0.00  0.00    +0.000 A 
ATOM     22  C   UNL     1      -2.280  10.188  16.855  0.00  0.00    +0.000 A 
ATOM     23 CL   UNL     1      -2.927   9.603  15.378  0.00  0.00    +0.000 Cl
ATOM     24  S   UNL     1      -3.056  11.452  17.671  0.00  0.00    +0.000 S 
ATOM     25  C   UNL     1      -1.905  11.397  18.922  0.00  0.00    +0.000 A 
ATOM     26 CL   UNL     1      -2.102  12.470  20.254  0.00  0.00    +0.000 Cl
ENDBRANCH  17  20
ENDBRANCH   3  17
TORSDOF 6
ENDMDL
MODEL 7
REMARK VINA RESULT:      -7.3      1.014      1.358
REMARK  Name = 
REMARK  7 active torsions:
REMARK  status: ('A' for Active; 'I' for Inactive)
REMARK    1  A    between atoms: C_1  and  O_2
REMARK    2  A    between atoms: O_2  and  C_3
REMARK    3  A    between atoms: C_5  and  C_6
REMARK    4  A    between atoms: N_8  and  S_9
REMARK    5  A    between atoms: S_9  and  C_12
REMARK    6  A    between atoms: C_21  and  O_22
REMARK    7  A    between atoms: O_22  and  C_23
REMARK                            x       y       z     vdW  Elec       q    Type
REMARK                         _______ _______ _______ _____ _____    ______ ____
ROOT
ATOM      1  C   UNL     1       1.490   8.329  20.425  0.00  0.00    +0.000 C 
ATOM      2  O   UNL     1       1.506   8.620  21.612  0.00  0.00    +0.000 OA
ATOM      3  N   UNL     1       0.873   9.137  19.460  0.00  0.00    +0.000 N 
ATOM      4  H   UNL     1       0.656   8.796  18.528  0.00  0.00    +0.000 HD
ENDROOT
BRANCH   1   7
ATOM      5  C   UNL     1       2.621   4.721  20.390  0.00  0.00    +0.000 A 
ATOM      6  C   UNL     1       2.152   5.975  20.810  0.00  0.00    +0.000 A 
ATOM      7  C   UNL     1       2.145   7.079  19.943  0.00  0.00    +0.000 A 
ATOM      8  C   UNL     1       2.708   6.943  18.673  0.00  0.00    +0.000 A 
ATOM      9  C   UNL     1       3.234   5.714  18.275  0.00  0.00    +0.000 A 
ATOM     10  C   UNL     1       3.198   4.596  19.121  0.00  0.00    +0.000 A 
BRANCH   5  12
ATOM     11  C   UNL     1       1.259   2.942  21.157  0.00  0.00    +0.000 C 
ATOM     12  O   UNL     1       2.521   3.615  21.188  0.00  0.00    +0.000 OA
ENDBRANCH   5  12
BRANCH  10  13
ATOM     13  O   UNL     1       3.679   3.465  18.525  0.00  0.00    +0.000 OA
BRANCH  13  14
ATOM     14  C   UNL     1       2.760   2.628  17.848  0.00  0.00    +0.000 C 
ATOM     15  F   UNL     1       2.579   3.103  16.591  0.00  0.00    +0.000 F 
ATOM     16  F   UNL     1       3.377   1.423  17.706  0.00  0.00    +0.000 F 
ENDBRANCH  13  14
ENDBRANCH  10  13
ENDBRANCH   1   7
BRANCH   3  17
ATOM     17  S   UNL     1       0.001  10.495  19.838  0.00  0.00    +0.000 S 
ATOM     18  O   UNL     1      -0.668  10.230  21.091  0.00  0.00    +0.000 OA
ATOM     19  O   UNL     1       0.866  11.643  19.688  0.00  0.00    +0.000 OA
BRANCH  17  20
ATOM     20  C   UNL     1      -1.274  10.725  18.703  0.00  0.00    +0.000 A 
ATOM     21  C   UNL     1      -1.389   9.994  17.476  0.00  0.00    +0.000 A 
ATOM     22  C   UNL     1      -2.534  10.343  16.807  0.00  0.00    +0.000 A 
ATOM     23 CL   UNL     1      -3.082   9.701  15.314  0.00  0.00    +0.000 Cl
ATOM     24  S   UNL     1      -3.449  11.524  17.602  0.00  0.00    +0.000 S 
ATOM     25  C   UNL     1      -2.331  11.577  18.882  0.00  0.00    +0.000 A 
ATOM     26 CL   UNL     1      -2.666  12.623  20.209  0.00  0.00    +0.000 Cl
ENDBRANCH  17  20
ENDBRANCH   3  17
TORSDOF 6
ENDMDL
MODEL 8
REMARK VINA RESULT:      -7.3      1.120      2.193
REMARK  Name = 
REMARK  7 active torsions:
REMARK  status: ('A' for Active; 'I' for Inactive)
REMARK    1  A    between atoms: C_1  and  O_2
REMARK    2  A    between atoms: O_2  and  C_3
REMARK    3  A    between atoms: C_5  and  C_6
REMARK    4  A    between atoms: N_8  and  S_9
REMARK    5  A    between atoms: S_9  and  C_12
REMARK    6  A    between atoms: C_21  and  O_22
REMARK    7  A    between atoms: O_22  and  C_23
REMARK                            x       y       z     vdW  Elec       q    Type
REMARK                         _______ _______ _______ _____ _____    ______ ____
ROOT
ATOM      1  C   UNL     1       2.018   8.691  18.297  0.00  0.00    +0.000 C 
ATOM      2  O   UNL     1       2.230   9.533  17.437  0.00  0.00    +0.000 OA
ATOM      3  N   UNL     1       1.189   8.934  19.401  0.00  0.00    +0.000 N 
ATOM      4  H   UNL     1       1.194   8.337  20.222  0.00  0.00    +0.000 HD
ENDROOT
BRANCH   1   7
ATOM      5  C   UNL     1       4.539   6.018  17.401  0.00  0.00    +0.000 A 
ATOM      6  C   UNL     1       3.809   7.217  17.433  0.00  0.00    +0.000 A 
ATOM      7  C   UNL     1       2.642   7.339  18.204  0.00  0.00    +0.000 A 
ATOM      8  C   UNL     1       2.151   6.216  18.870  0.00  0.00    +0.000 A 
ATOM      9  C   UNL     1       2.840   5.005  18.788  0.00  0.00    +0.000 A 
ATOM     10  C   UNL     1       4.032   4.891  18.059  0.00  0.00    +0.000 A 
BRANCH   5  12
ATOM     11  C   UNL     1       5.664   5.534  15.375  0.00  0.00    +0.000 C 
ATOM     12  O   UNL     1       5.736   5.926  16.749  0.00  0.00    +0.000 OA
ENDBRANCH   5  12
BRANCH  10  13
ATOM     13  O   UNL     1       4.604   3.656  18.168  0.00  0.00    +0.000 OA
BRANCH  13  14
ATOM     14  C   UNL     1       3.899   2.657  18.881  0.00  0.00    +0.000 C 
ATOM     15  F   UNL     1       3.641   1.621  18.046  0.00  0.00    +0.000 F 
ATOM     16  F   UNL     1       4.764   2.176  19.816  0.00  0.00    +0.000 F 
ENDBRANCH  13  14
ENDBRANCH  10  13
ENDBRANCH   1   7
BRANCH   3  17
ATOM     17  S   UNL     1       0.513  10.414  19.718  0.00  0.00    +0.000 S 
ATOM     18  O   UNL     1       0.003  10.362  21.070  0.00  0.00    +0.000 OA
ATOM     19  O   UNL     1       1.455  11.435  19.320  0.00  0.00    +0.000 OA
BRANCH  17  20
ATOM     20  C   UNL     1      -0.879  10.661  18.736  0.00  0.00    +0.000 A 
ATOM     21  C   UNL     1      -1.170   9.895  17.560  0.00  0.00    +0.000 A 
ATOM     22  C   UNL     1      -2.373  10.270  17.019  0.00  0.00    +0.000 A 
ATOM     23 CL   UNL     1      -3.122   9.604  15.627  0.00  0.00    +0.000 Cl
ATOM     24  S   UNL     1      -3.140  11.515  17.873  0.00  0.00    +0.000 S 
ATOM     25  C   UNL     1      -1.874  11.562  19.008  0.00  0.00    +0.000 A 
ATOM     26 CL   UNL     1      -2.006  12.664  20.325  0.00  0.00    +0.000 Cl
ENDBRANCH  17  20
ENDBRANCH   3  17
TORSDOF 6
ENDMDL
MODEL 9
REMARK VINA RESULT:      -7.2      2.341      2.884
REMARK  Name = 
REMARK  7 active torsions:
REMARK  status: ('A' for Active; 'I' for Inactive)
REMARK    1  A    between atoms: C_1  and  O_2
REMARK    2  A    between atoms: O_2  and  C_3
REMARK    3  A    between atoms: C_5  and  C_6
REMARK    4  A    between atoms: N_8  and  S_9
REMARK    5  A    between atoms: S_9  and  C_12
REMARK    6  A    between atoms: C_21  and  O_22
REMARK    7  A    between atoms: O_22  and  C_23
REMARK                            x       y       z     vdW  Elec       q    Type
REMARK                         _______ _______ _______ _____ _____    ______ ____
ROOT
ATOM      1  C   UNL     1       2.149   8.569  18.188  0.00  0.00    +0.000 C 
ATOM      2  O   UNL     1       2.357   9.211  17.169  0.00  0.00    +0.000 OA
ATOM      3  N   UNL     1       1.292   9.020  19.201  0.00  0.00    +0.000 N 
ATOM      4  H   UNL     1       1.295   8.615  20.132  0.00  0.00    +0.000 HD
ENDROOT
BRANCH   1   7
ATOM      5  C   UNL     1       2.868   5.181  19.706  0.00  0.00    +0.000 A 
ATOM      6  C   UNL     1       2.402   6.490  19.508  0.00  0.00    +0.000 A 
ATOM      7  C   UNL     1       2.811   7.249  18.400  0.00  0.00    +0.000 A 
ATOM      8  C   UNL     1       3.775   6.722  17.539  0.00  0.00    +0.000 A 
ATOM      9  C   UNL     1       4.289   5.446  17.771  0.00  0.00    +0.000 A 
ATOM     10  C   UNL     1       3.846   4.665  18.848  0.00  0.00    +0.000 A 
BRANCH   5  12
ATOM     11  C   UNL     1       1.042   3.931  20.548  0.00  0.00    +0.000 C 
ATOM     12  O   UNL     1       2.385   4.394  20.714  0.00  0.00    +0.000 OA
ENDBRANCH   5  12
BRANCH  10  13
ATOM     13  O   UNL     1       4.398   3.416  18.859  0.00  0.00    +0.000 OA
BRANCH  13  14
ATOM     14  C   UNL     1       3.699   2.375  18.202  0.00  0.00    +0.000 C 
ATOM     15  F   UNL     1       3.024   1.648  19.127  0.00  0.00    +0.000 F 
ATOM     16  F   UNL     1       2.749   2.978  17.436  0.00  0.00    +0.000 F 
ENDBRANCH  13  14
ENDBRANCH  10  13
ENDBRANCH   1   7
BRANCH   3  17
ATOM     17  S   UNL     1       0.570  10.512  19.179  0.00  0.00    +0.000 S 
ATOM     18  O   UNL     1       1.631  11.491  19.120  0.00  0.00    +0.000 OA
ATOM     19  O   UNL     1      -0.478  10.492  18.184  0.00  0.00    +0.000 OA
BRANCH  17  20
ATOM     20  C   UNL     1      -0.222  10.817  20.678  0.00  0.00    +0.000 A 
ATOM     21  C   UNL     1      -1.314  11.732  20.830  0.00  0.00    +0.000 A 
ATOM     22  C   UNL     1      -1.782  11.722  22.119  0.00  0.00    +0.000 A 
ATOM     23 CL   UNL     1      -3.091  12.641  22.739  0.00  0.00    +0.000 Cl
ATOM     24  S   UNL     1      -0.939  10.665  23.137  0.00  0.00    +0.000 S 
ATOM     25  C   UNL     1       0.066  10.178  21.855  0.00  0.00    +0.000 A 
ATOM     26 CL   UNL     1       1.250   8.967  22.167  0.00  0.00    +0.000 Cl
ENDBRANCH  17  20
ENDBRANCH   3  17
TORSDOF 6
ENDMDL
