MODEL 1
REMARK VINA RESULT:      -8.3      0.000      0.000
REMARK  Name = 
REMARK  10 active torsions:
REMARK  status: ('A' for Active; 'I' for Inactive)
REMARK    1  A    between atoms: C_1  and  O_2
REMARK    2  A    between atoms: O_2  and  C_3
REMARK    3  A    between atoms: C_5  and  C_6
REMARK    4  A    between atoms: C_7  and  C_8
REMARK    5  A    between atoms: C_8  and  C_10
REMARK    6  A    between atoms: C_10  and  O_11
REMARK    7  A    between atoms: O_11  and  C_12
REMARK    8  A    between atoms: C_12  and  C_14
REMARK    9  A    between atoms: C_15  and  C_16
REMARK   10  A    between atoms: C_25  and  O_26
REMARK                            x       y       z     vdW  Elec       q    Type
REMARK                         _______ _______ _______ _____ _____    ______ ____
ROOT
ATOM      1  C   UNL     1       1.754   2.900  18.146  0.00  0.00    +0.000 C 
ATOM      2  O   UNL     1       0.587   3.256  18.005  0.00  0.00    +0.000 OA
ENDROOT
BRANCH   1   4
ATOM      3  C   UNL     1       3.988   3.816  17.550  0.00  0.00    +0.000 C 
ATOM      4  C   UNL     1       2.812   3.297  17.160  0.00  0.00    +0.000 C 
BRANCH   3   7
ATOM      5  C   UNL     1       6.923   5.751  16.114  0.00  0.00    +0.000 A 
ATOM      6  C   UNL     1       5.912   5.290  16.978  0.00  0.00    +0.000 A 
ATOM      7  C   UNL     1       5.048   4.243  16.618  0.00  0.00    +0.000 A 
ATOM      8  C   UNL     1       5.196   3.677  15.347  0.00  0.00    +0.000 A 
ATOM      9  C   UNL     1       6.195   4.121  14.477  0.00  0.00    +0.000 A 
ATOM     10  C   UNL     1       7.058   5.152  14.858  0.00  0.00    +0.000 A 
BRANCH   5  12
ATOM     11  C   UNL     1       7.637   6.959  18.057  0.00  0.00    +0.000 C 
ATOM     12  O   UNL     1       7.667   6.770  16.648  0.00  0.00    +0.000 OA
ENDBRANCH   5  12
BRANCH  10  13
ATOM     13  O   UNL     1       8.015   5.550  13.968  0.00  0.00    +0.000 OA
ATOM     14  H   UNL     1       8.055   6.520  13.949  0.00  0.00    +0.000 HD
ENDBRANCH  10  13
ENDBRANCH   3   7
ENDBRANCH   1   4
BRANCH   1  15
ATOM     15  C   UNL     1       2.238   2.040  19.316  0.00  0.00    +0.000 C 
BRANCH  15  16
ATOM     16  O   UNL     1       3.059   2.768  20.235  0.00  0.00    +0.000 OA
BRANCH  16  17
ATOM     17  C   UNL     1       2.411   3.427  21.225  0.00  0.00    +0.000 C 
ATOM     18  O   UNL     1       2.312   3.078  22.389  0.00  0.00    +0.000 OA
BRANCH  17  19
ATOM     19  C   UNL     1       1.859   4.680  20.663  0.00  0.00    +0.000 C 
ATOM     20  C   UNL     1       2.646   5.755  20.494  0.00  0.00    +0.000 C 
BRANCH  20  21
ATOM     21  C   UNL     1       2.193   7.047  19.948  0.00  0.00    +0.000 A 
ATOM     22  C   UNL     1       2.454   7.434  18.626  0.00  0.00    +0.000 A 
ATOM     23  C   UNL     1       1.989   8.659  18.134  0.00  0.00    +0.000 A 
ATOM     24  C   UNL     1       1.247   9.499  18.958  0.00  0.00    +0.000 A 
ATOM     25 CL   UNL     1       0.679  11.007  18.352  0.00  0.00    +0.000 Cl
ATOM     26  C   UNL     1       0.958   9.124  20.266  0.00  0.00    +0.000 A 
ATOM     27  C   UNL     1       1.425   7.898  20.756  0.00  0.00    +0.000 A 
ENDBRANCH  20  21
ENDBRANCH  17  19
ENDBRANCH  16  17
ENDBRANCH  15  16
ENDBRANCH   1  15
TORSDOF 9
ENDMDL
MODEL 2
REMARK VINA RESULT:      -8.1      0.391      1.023
REMARK  Name = 
REMARK  10 active torsions:
REMARK  status: ('A' for Active; 'I' for Inactive)
REMARK    1  A    between atoms: C_1  and  O_2
REMARK    2  A    between atoms: O_2  and  C_3
REMARK    3  A    between atoms: C_5  and  C_6
REMARK    4  A    between atoms: C_7  and  C_8
REMARK    5  A    between atoms: C_8  and  C_10
REMARK    6  A    between atoms: C_10  and  O_11
REMARK    7  A    between atoms: O_11  and  C_12
REMARK    8  A    between atoms: C_12  and  C_14
REMARK    9  A    between atoms: C_15  and  C_16
REMARK   10  A    between atoms: C_25  and  O_26
REMARK                            x       y       z     vdW  Elec       q    Type
REMARK                         _______ _______ _______ _____ _____    ______ ____
ROOT
ATOM      1  C   UNL     1       1.799   2.807  18.262  0.00  0.00    +0.000 C 
ATOM      2  O   UNL     1       0.593   2.977  18.106  0.00  0.00    +0.000 OA
ENDROOT
BRANCH   1   4
ATOM      3  C   UNL     1       4.112   3.176  17.425  0.00  0.00    +0.000 C 
ATOM      4  C   UNL     1       2.798   3.443  17.342  0.00  0.00    +0.000 C 
BRANCH   3   7
ATOM      5  C   UNL     1       6.837   5.536  16.231  0.00  0.00    +0.000 A 
ATOM      6  C   UNL     1       5.869   4.895  17.027  0.00  0.00    +0.000 A 
ATOM      7  C   UNL     1       5.133   3.794  16.560  0.00  0.00    +0.000 A 
ATOM      8  C   UNL     1       5.364   3.358  15.250  0.00  0.00    +0.000 A 
ATOM      9  C   UNL     1       6.322   3.980  14.446  0.00  0.00    +0.000 A 
ATOM     10  C   UNL     1       7.059   5.064  14.933  0.00  0.00    +0.000 A 
BRANCH   5  12
ATOM     11  C   UNL     1       7.681   6.479  18.266  0.00  0.00    +0.000 C 
ATOM     12  O   UNL     1       7.454   6.581  16.867  0.00  0.00    +0.000 OA
ENDBRANCH   5  12
BRANCH  10  13
ATOM     13  O   UNL     1       7.981   5.639  14.105  0.00  0.00    +0.000 OA
ATOM     14  H   UNL     1       7.525   6.179  13.439  0.00  0.00    +0.000 HD
ENDBRANCH  10  13
ENDBRANCH   3   7
ENDBRANCH   1   4
BRANCH   1  15
ATOM     15  C   UNL     1       2.393   1.953  19.385  0.00  0.00    +0.000 C 
BRANCH  15  16
ATOM     16  O   UNL     1       2.891   2.739  20.472  0.00  0.00    +0.000 OA
BRANCH  16  17
ATOM     17  C   UNL     1       1.966   3.222  21.335  0.00  0.00    +0.000 C 
ATOM     18  O   UNL     1       1.595   2.701  22.374  0.00  0.00    +0.000 OA
BRANCH  17  19
ATOM     19  C   UNL     1       1.490   4.526  20.821  0.00  0.00    +0.000 C 
ATOM     20  C   UNL     1       2.327   5.573  20.744  0.00  0.00    +0.000 C 
BRANCH  20  21
ATOM     21  C   UNL     1       1.951   6.910  20.252  0.00  0.00    +0.000 A 
ATOM     22  C   UNL     1       1.328   7.863  21.071  0.00  0.00    +0.000 A 
ATOM     23  C   UNL     1       1.004   9.131  20.576  0.00  0.00    +0.000 A 
ATOM     24  C   UNL     1       1.315   9.460  19.260  0.00  0.00    +0.000 A 
ATOM     25 CL   UNL     1       0.913  11.020  18.652  0.00  0.00    +0.000 Cl
ATOM     26  C   UNL     1       1.953   8.538  18.437  0.00  0.00    +0.000 A 
ATOM     27  C   UNL     1       2.274   7.269  18.935  0.00  0.00    +0.000 A 
ENDBRANCH  20  21
ENDBRANCH  17  19
ENDBRANCH  16  17
ENDBRANCH  15  16
ENDBRANCH   1  15
TORSDOF 9
ENDMDL
MODEL 3
REMARK VINA RESULT:      -7.9      4.450      7.760
REMARK  Name = 
REMARK  10 active torsions:
REMARK  status: ('A' for Active; 'I' for Inactive)
REMARK    1  A    between atoms: C_1  and  O_2
REMARK    2  A    between atoms: O_2  and  C_3
REMARK    3  A    between atoms: C_5  and  C_6
REMARK    4  A    between atoms: C_7  and  C_8
REMARK    5  A    between atoms: C_8  and  C_10
REMARK    6  A    between atoms: C_10  and  O_11
REMARK    7  A    between atoms: O_11  and  C_12
REMARK    8  A    between atoms: C_12  and  C_14
REMARK    9  A    between atoms: C_15  and  C_16
REMARK   10  A    between atoms: C_25  and  O_26
REMARK                            x       y       z     vdW  Elec       q    Type
REMARK                         _______ _______ _______ _____ _____    ______ ____
ROOT
ATOM      1  C   UNL     1       7.840   7.503  17.978  0.00  0.00    +0.000 C 
ATOM      2  O   UNL     1       8.129   6.679  18.842  0.00  0.00    +0.000 OA
ENDROOT
BRANCH   1   4
ATOM      3  C   UNL     1       9.044   9.365  19.104  0.00  0.00    +0.000 C 
ATOM      4  C   UNL     1       8.349   8.912  18.048  0.00  0.00    +0.000 C 
BRANCH   3   7
ATOM      5  C   UNL     1      10.478  12.750  18.154  0.00  0.00    +0.000 A 
ATOM      6  C   UNL     1       9.969  11.440  18.084  0.00  0.00    +0.000 A 
ATOM      7  C   UNL     1       9.544  10.746  19.229  0.00  0.00    +0.000 A 
ATOM      8  C   UNL     1       9.670  11.385  20.468  0.00  0.00    +0.000 A 
ATOM      9  C   UNL     1      10.171  12.685  20.556  0.00  0.00    +0.000 A 
ATOM     10  C   UNL     1      10.573  13.369  19.404  0.00  0.00    +0.000 A 
BRANCH   5  12
ATOM     11  C   UNL     1      12.208  13.455  16.652  0.00  0.00    +0.000 C 
ATOM     12  O   UNL     1      10.828  13.260  16.931  0.00  0.00    +0.000 OA
ENDBRANCH   5  12
BRANCH  10  13
ATOM     13  O   UNL     1      11.059  14.638  19.546  0.00  0.00    +0.000 OA
ATOM     14  H   UNL     1      11.879  14.729  19.034  0.00  0.00    +0.000 HD
ENDBRANCH  10  13
ENDBRANCH   3   7
ENDBRANCH   1   4
BRANCH   1  15
ATOM     15  C   UNL     1       6.955   7.185  16.771  0.00  0.00    +0.000 C 
BRANCH  15  16
ATOM     16  O   UNL     1       7.576   6.278  15.854  0.00  0.00    +0.000 OA
BRANCH  16  17
ATOM     17  C   UNL     1       6.888   5.147  15.572  0.00  0.00    +0.000 C 
ATOM     18  O   UNL     1       7.128   4.351  14.679  0.00  0.00    +0.000 OA
BRANCH  17  19
ATOM     19  C   UNL     1       5.794   5.011  16.559  0.00  0.00    +0.000 C 
ATOM     20  C   UNL     1       4.961   3.959  16.512  0.00  0.00    +0.000 C 
BRANCH  20  21
ATOM     21  C   UNL     1       3.842   3.735  17.444  0.00  0.00    +0.000 A 
ATOM     22  C   UNL     1       3.068   4.788  17.953  0.00  0.00    +0.000 A 
ATOM     23  C   UNL     1       1.999   4.536  18.820  0.00  0.00    +0.000 A 
ATOM     24  C   UNL     1       1.686   3.227  19.172  0.00  0.00    +0.000 A 
ATOM     25 CL   UNL     1       0.372   2.920  20.240  0.00  0.00    +0.000 Cl
ATOM     26  C   UNL     1       2.427   2.166  18.660  0.00  0.00    +0.000 A 
ATOM     27  C   UNL     1       3.498   2.421  17.794  0.00  0.00    +0.000 A 
ENDBRANCH  20  21
ENDBRANCH  17  19
ENDBRANCH  16  17
ENDBRANCH  15  16
ENDBRANCH   1  15
TORSDOF 9
ENDMDL
MODEL 4
REMARK VINA RESULT:      -7.7      3.860      6.262
REMARK  Name = 
REMARK  10 active torsions:
REMARK  status: ('A' for Active; 'I' for Inactive)
REMARK    1  A    between atoms: C_1  and  O_2
REMARK    2  A    between atoms: O_2  and  C_3
REMARK    3  A    between atoms: C_5  and  C_6
REMARK    4  A    between atoms: C_7  and  C_8
REMARK    5  A    between atoms: C_8  and  C_10
REMARK    6  A    between atoms: C_10  and  O_11
REMARK    7  A    between atoms: O_11  and  C_12
REMARK    8  A    between atoms: C_12  and  C_14
REMARK    9  A    between atoms: C_15  and  C_16
REMARK   10  A    between atoms: C_25  and  O_26
REMARK                            x       y       z     vdW  Elec       q    Type
REMARK                         _______ _______ _______ _____ _____    ______ ____
ROOT
ATOM      1  C   UNL     1       7.485   6.852  17.728  0.00  0.00    +0.000 C 
ATOM      2  O   UNL     1       7.470   6.771  16.502  0.00  0.00    +0.000 OA
ENDROOT
BRANCH   1   4
ATOM      3  C   UNL     1       8.218   9.219  17.925  0.00  0.00    +0.000 C 
ATOM      4  C   UNL     1       8.198   7.972  18.423  0.00  0.00    +0.000 C 
BRANCH   3   7
ATOM      5  C   UNL     1       9.892  12.600  18.365  0.00  0.00    +0.000 A 
ATOM      6  C   UNL     1       9.199  11.506  17.814  0.00  0.00    +0.000 A 
ATOM      7  C   UNL     1       8.924  10.348  18.559  0.00  0.00    +0.000 A 
ATOM      8  C   UNL     1       9.391  10.289  19.877  0.00  0.00    +0.000 A 
ATOM      9  C   UNL     1      10.079  11.366  20.442  0.00  0.00    +0.000 A 
ATOM     10  C   UNL     1      10.328  12.519  19.692  0.00  0.00    +0.000 A 
BRANCH   5  12
ATOM     11  C   UNL     1      11.342  13.861  16.934  0.00  0.00    +0.000 C 
ATOM     12  O   UNL     1      10.052  13.638  17.486  0.00  0.00    +0.000 OA
ENDBRANCH   5  12
BRANCH  10  13
ATOM     13  O   UNL     1      11.008  13.541  20.291  0.00  0.00    +0.000 OA
ATOM     14  H   UNL     1      10.400  14.049  20.852  0.00  0.00    +0.000 HD
ENDBRANCH  10  13
ENDBRANCH   3   7
ENDBRANCH   1   4
BRANCH   1  15
ATOM     15  C   UNL     1       6.790   5.845  18.648  0.00  0.00    +0.000 C 
BRANCH  15  16
ATOM     16  O   UNL     1       6.283   4.709  17.942  0.00  0.00    +0.000 OA
BRANCH  16  17
ATOM     17  C   UNL     1       5.005   4.354  18.217  0.00  0.00    +0.000 C 
ATOM     18  O   UNL     1       4.505   3.252  18.064  0.00  0.00    +0.000 OA
BRANCH  17  19
ATOM     19  C   UNL     1       4.306   5.535  18.773  0.00  0.00    +0.000 C 
ATOM     20  C   UNL     1       3.340   6.147  18.069  0.00  0.00    +0.000 C 
BRANCH  20  21
ATOM     21  C   UNL     1       2.589   7.327  18.532  0.00  0.00    +0.000 A 
ATOM     22  C   UNL     1       2.088   7.433  19.837  0.00  0.00    +0.000 A 
ATOM     23  C   UNL     1       1.397   8.579  20.248  0.00  0.00    +0.000 A 
ATOM     24  C   UNL     1       1.217   9.634  19.360  0.00  0.00    +0.000 A 
ATOM     25 CL   UNL     1       0.365  11.042  19.867  0.00  0.00    +0.000 Cl
ATOM     26  C   UNL     1       1.725   9.559  18.067  0.00  0.00    +0.000 A 
ATOM     27  C   UNL     1       2.414   8.411  17.658  0.00  0.00    +0.000 A 
ENDBRANCH  20  21
ENDBRANCH  17  19
ENDBRANCH  16  17
ENDBRANCH  15  16
ENDBRANCH   1  15
TORSDOF 9
ENDMDL
MODEL 5
REMARK VINA RESULT:      -7.7      2.843      5.945
REMARK  Name = 
REMARK  10 active torsions:
REMARK  status: ('A' for Active; 'I' for Inactive)
REMARK    1  A    between atoms: C_1  and  O_2
REMARK    2  A    between atoms: O_2  and  C_3
REMARK    3  A    between atoms: C_5  and  C_6
REMARK    4  A    between atoms: C_7  and  C_8
REMARK    5  A    between atoms: C_8  and  C_10
REMARK    6  A    between atoms: C_10  and  O_11
REMARK    7  A    between atoms: O_11  and  C_12
REMARK    8  A    between atoms: C_12  and  C_14
REMARK    9  A    between atoms: C_15  and  C_16
REMARK   10  A    between atoms: C_25  and  O_26
REMARK                            x       y       z     vdW  Elec       q    Type
REMARK                         _______ _______ _______ _____ _____    ______ ____
ROOT
ATOM      1  C   UNL     1       2.064   3.384  21.247  0.00  0.00    +0.000 C 
ATOM      2  O   UNL     1       2.009   3.247  22.466  0.00  0.00    +0.000 OA
ENDROOT
BRANCH   1   4
ATOM      3  C   UNL     1       2.522   5.689  20.435  0.00  0.00    +0.000 C 
ATOM      4  C   UNL     1       1.661   4.670  20.591  0.00  0.00    +0.000 C 
BRANCH   3   7
ATOM      5  C   UNL     1       1.110   9.191  20.028  0.00  0.00    +0.000 A 
ATOM      6  C   UNL     1       1.494   7.953  20.577  0.00  0.00    +0.000 A 
ATOM      7  C   UNL     1       2.166   6.981  19.819  0.00  0.00    +0.000 A 
ATOM      8  C   UNL     1       2.423   7.260  18.472  0.00  0.00    +0.000 A 
ATOM      9  C   UNL     1       2.051   8.484  17.911  0.00  0.00    +0.000 A 
ATOM     10  C   UNL     1       1.399   9.448  18.684  0.00  0.00    +0.000 A 
BRANCH   5  12
ATOM     11  C   UNL     1      -0.211   9.406  22.016  0.00  0.00    +0.000 C 
ATOM     12  O   UNL     1       0.477  10.008  20.927  0.00  0.00    +0.000 OA
ENDBRANCH   5  12
BRANCH  10  13
ATOM     13  O   UNL     1       1.054  10.627  18.085  0.00  0.00    +0.000 OA
ATOM     14  H   UNL     1       1.087  11.344  18.740  0.00  0.00    +0.000 HD
ENDBRANCH  10  13
ENDBRANCH   3   7
ENDBRANCH   1   4
BRANCH   1  15
ATOM     15  C   UNL     1       2.544   2.285  20.295  0.00  0.00    +0.000 C 
BRANCH  15  16
ATOM     16  O   UNL     1       1.819   2.267  19.061  0.00  0.00    +0.000 OA
BRANCH  16  17
ATOM     17  C   UNL     1       2.545   2.480  17.938  0.00  0.00    +0.000 C 
ATOM     18  O   UNL     1       2.418   1.907  16.869  0.00  0.00    +0.000 OA
BRANCH  17  19
ATOM     19  C   UNL     1       3.516   3.563  18.211  0.00  0.00    +0.000 C 
ATOM     20  C   UNL     1       4.350   3.988  17.249  0.00  0.00    +0.000 C 
BRANCH  20  21
ATOM     21  C   UNL     1       5.352   5.055  17.421  0.00  0.00    +0.000 A 
ATOM     22  C   UNL     1       5.308   6.250  16.689  0.00  0.00    +0.000 A 
ATOM     23  C   UNL     1       6.265   7.251  16.894  0.00  0.00    +0.000 A 
ATOM     24  C   UNL     1       7.263   7.069  17.845  0.00  0.00    +0.000 A 
ATOM     25 CL   UNL     1       8.440   8.300  18.095  0.00  0.00    +0.000 Cl
ATOM     26  C   UNL     1       7.311   5.901  18.599  0.00  0.00    +0.000 A 
ATOM     27  C   UNL     1       6.354   4.900  18.390  0.00  0.00    +0.000 A 
ENDBRANCH  20  21
ENDBRANCH  17  19
ENDBRANCH  16  17
ENDBRANCH  15  16
ENDBRANCH   1  15
TORSDOF 9
ENDMDL
MODEL 6
REMARK VINA RESULT:      -7.7      4.514      7.813
REMARK  Name = 
REMARK  10 active torsions:
REMARK  status: ('A' for Active; 'I' for Inactive)
REMARK    1  A    between atoms: C_1  and  O_2
REMARK    2  A    between atoms: O_2  and  C_3
REMARK    3  A    between atoms: C_5  and  C_6
REMARK    4  A    between atoms: C_7  and  C_8
REMARK    5  A    between atoms: C_8  and  C_10
REMARK    6  A    between atoms: C_10  and  O_11
REMARK    7  A    between atoms: O_11  and  C_12
REMARK    8  A    between atoms: C_12  and  C_14
REMARK    9  A    between atoms: C_15  and  C_16
REMARK   10  A    between atoms: C_25  and  O_26
REMARK                            x       y       z     vdW  Elec       q    Type
REMARK                         _______ _______ _______ _____ _____    ______ ____
ROOT
ATOM      1  C   UNL     1       7.828   7.395  17.963  0.00  0.00    +0.000 C 
ATOM      2  O   UNL     1       8.157   6.643  18.877  0.00  0.00    +0.000 OA
ENDROOT
BRANCH   1   4
ATOM      3  C   UNL     1       8.923   9.385  18.977  0.00  0.00    +0.000 C 
ATOM      4  C   UNL     1       8.243   8.836  17.956  0.00  0.00    +0.000 C 
BRANCH   3   7
ATOM      5  C   UNL     1       9.876  12.787  20.368  0.00  0.00    +0.000 A 
ATOM      6  C   UNL     1       9.511  11.432  20.268  0.00  0.00    +0.000 A 
ATOM      7  C   UNL     1       9.333  10.800  19.026  0.00  0.00    +0.000 A 
ATOM      8  C   UNL     1       9.499  11.569  17.869  0.00  0.00    +0.000 A 
ATOM      9  C   UNL     1       9.863  12.915  17.949  0.00  0.00    +0.000 A 
ATOM     10  C   UNL     1      10.054  13.524  19.193  0.00  0.00    +0.000 A 
BRANCH   5  12
ATOM     11  C   UNL     1       8.945  13.955  22.243  0.00  0.00    +0.000 C 
ATOM     12  O   UNL     1      10.012  13.216  21.663  0.00  0.00    +0.000 OA
ENDBRANCH   5  12
BRANCH  10  13
ATOM     13  O   UNL     1      10.407  14.844  19.216  0.00  0.00    +0.000 OA
ATOM     14  H   UNL     1       9.616  15.392  19.085  0.00  0.00    +0.000 HD
ENDBRANCH  10  13
ENDBRANCH   3   7
ENDBRANCH   1   4
BRANCH   1  15
ATOM     15  C   UNL     1       6.984   6.950  16.767  0.00  0.00    +0.000 C 
BRANCH  15  16
ATOM     16  O   UNL     1       7.572   5.860  16.050  0.00  0.00    +0.000 OA
BRANCH  16  17
ATOM     17  C   UNL     1       6.828   5.329  15.051  0.00  0.00    +0.000 C 
ATOM     18  O   UNL     1       7.182   5.143  13.899  0.00  0.00    +0.000 OA
BRANCH  17  19
ATOM     19  C   UNL     1       5.500   4.976  15.599  0.00  0.00    +0.000 C 
ATOM     20  C   UNL     1       5.395   4.120  16.629  0.00  0.00    +0.000 C 
BRANCH  20  21
ATOM     21  C   UNL     1       4.122   3.703  17.244  0.00  0.00    +0.000 A 
ATOM     22  C   UNL     1       3.874   2.376  17.626  0.00  0.00    +0.000 A 
ATOM     23  C   UNL     1       2.661   2.020  18.226  0.00  0.00    +0.000 A 
ATOM     24  C   UNL     1       1.694   2.991  18.463  0.00  0.00    +0.000 A 
ATOM     25 CL   UNL     1       0.202   2.549  19.200  0.00  0.00    +0.000 Cl
ATOM     26  C   UNL     1       1.930   4.317  18.113  0.00  0.00    +0.000 A 
ATOM     27  C   UNL     1       3.143   4.671  17.511  0.00  0.00    +0.000 A 
ENDBRANCH  20  21
ENDBRANCH  17  19
ENDBRANCH  16  17
ENDBRANCH  15  16
ENDBRANCH   1  15
TORSDOF 9
ENDMDL
MODEL 7
REMARK VINA RESULT:      -7.6      4.678      7.723
REMARK  Name = 
REMARK  10 active torsions:
REMARK  status: ('A' for Active; 'I' for Inactive)
REMARK    1  A    between atoms: C_1  and  O_2
REMARK    2  A    between atoms: O_2  and  C_3
REMARK    3  A    between atoms: C_5  and  C_6
REMARK    4  A    between atoms: C_7  and  C_8
REMARK    5  A    between atoms: C_8  and  C_10
REMARK    6  A    between atoms: C_10  and  O_11
REMARK    7  A    between atoms: O_11  and  C_12
REMARK    8  A    between atoms: C_12  and  C_14
REMARK    9  A    between atoms: C_15  and  C_16
REMARK   10  A    between atoms: C_25  and  O_26
REMARK                            x       y       z     vdW  Elec       q    Type
REMARK                         _______ _______ _______ _____ _____    ______ ____
ROOT
ATOM      1  C   UNL     1       7.865   7.653  17.970  0.00  0.00    +0.000 C 
ATOM      2  O   UNL     1       8.290   6.930  18.868  0.00  0.00    +0.000 OA
ENDROOT
BRANCH   1   4
ATOM      3  C   UNL     1       9.084   9.667  18.769  0.00  0.00    +0.000 C 
ATOM      4  C   UNL     1       8.328   9.072  17.832  0.00  0.00    +0.000 C 
BRANCH   3   7
ATOM      5  C   UNL     1       9.494  13.351  19.595  0.00  0.00    +0.000 A 
ATOM      6  C   UNL     1       9.105  11.999  19.642  0.00  0.00    +0.000 A 
ATOM      7  C   UNL     1       9.544  11.066  18.689  0.00  0.00    +0.000 A 
ATOM      8  C   UNL     1      10.367  11.523  17.653  0.00  0.00    +0.000 A 
ATOM      9  C   UNL     1      10.764  12.860  17.591  0.00  0.00    +0.000 A 
ATOM     10  C   UNL     1      10.333  13.773  18.558  0.00  0.00    +0.000 A 
BRANCH   5  12
ATOM     11  C   UNL     1       9.696  14.170  21.838  0.00  0.00    +0.000 C 
ATOM     12  O   UNL     1       8.972  14.100  20.617  0.00  0.00    +0.000 OA
ENDBRANCH   5  12
BRANCH  10  13
ATOM     13  O   UNL     1      10.749  15.069  18.449  0.00  0.00    +0.000 OA
ATOM     14  H   UNL     1      10.002  15.627  18.179  0.00  0.00    +0.000 HD
ENDBRANCH  10  13
ENDBRANCH   3   7
ENDBRANCH   1   4
BRANCH   1  15
ATOM     15  C   UNL     1       6.847   7.190  16.924  0.00  0.00    +0.000 C 
BRANCH  15  16
ATOM     16  O   UNL     1       7.379   6.202  16.036  0.00  0.00    +0.000 OA
BRANCH  16  17
ATOM     17  C   UNL     1       6.504   5.273  15.581  0.00  0.00    +0.000 C 
ATOM     18  O   UNL     1       6.344   4.928  14.422  0.00  0.00    +0.000 OA
BRANCH  17  19
ATOM     19  C   UNL     1       5.781   4.710  16.743  0.00  0.00    +0.000 C 
ATOM     20  C   UNL     1       4.456   4.886  16.870  0.00  0.00    +0.000 C 
BRANCH  20  21
ATOM     21  C   UNL     1       3.646   4.370  17.988  0.00  0.00    +0.000 A 
ATOM     22  C   UNL     1       2.277   4.645  18.112  0.00  0.00    +0.000 A 
ATOM     23  C   UNL     1       1.535   4.120  19.176  0.00  0.00    +0.000 A 
ATOM     24  C   UNL     1       2.155   3.303  20.116  0.00  0.00    +0.000 A 
ATOM     25 CL   UNL     1       1.240   2.660  21.425  0.00  0.00    +0.000 Cl
ATOM     26  C   UNL     1       3.508   2.999  19.999  0.00  0.00    +0.000 A 
ATOM     27  C   UNL     1       4.248   3.527  18.934  0.00  0.00    +0.000 A 
ENDBRANCH  20  21
ENDBRANCH  17  19
ENDBRANCH  16  17
ENDBRANCH  15  16
ENDBRANCH   1  15
TORSDOF 9
ENDMDL
MODEL 8
REMARK VINA RESULT:      -7.6      3.015      6.916
REMARK  Name = 
REMARK  10 active torsions:
REMARK  status: ('A' for Active; 'I' for Inactive)
REMARK    1  A    between atoms: C_1  and  O_2
REMARK    2  A    between atoms: O_2  and  C_3
REMARK    3  A    between atoms: C_5  and  C_6
REMARK    4  A    between atoms: C_7  and  C_8
REMARK    5  A    between atoms: C_8  and  C_10
REMARK    6  A    between atoms: C_10  and  O_11
REMARK    7  A    between atoms: O_11  and  C_12
REMARK    8  A    between atoms: C_12  and  C_14
REMARK    9  A    between atoms: C_15  and  C_16
REMARK   10  A    between atoms: C_25  and  O_26
REMARK                            x       y       z     vdW  Elec       q    Type
REMARK                         _______ _______ _______ _____ _____    ______ ____
ROOT
ATOM      1  C   UNL     1       5.417   6.879  16.289  0.00  0.00    +0.000 C 
ATOM      2  O   UNL     1       5.020   7.168  15.163  0.00  0.00    +0.000 OA
ENDROOT
BRANCH   1   4
ATOM      3  C   UNL     1       3.274   7.325  17.469  0.00  0.00    +0.000 C 
ATOM      4  C   UNL     1       4.613   7.221  17.507  0.00  0.00    +0.000 C 
BRANCH   3   7
ATOM      5  C   UNL     1       1.003   9.323  19.766  0.00  0.00    +0.000 A 
ATOM      6  C   UNL     1       1.787   8.924  18.667  0.00  0.00    +0.000 A 
ATOM      7  C   UNL     1       2.443   7.683  18.634  0.00  0.00    +0.000 A 
ATOM      8  C   UNL     1       2.325   6.847  19.750  0.00  0.00    +0.000 A 
ATOM      9  C   UNL     1       1.550   7.226  20.849  0.00  0.00    +0.000 A 
ATOM     10  C   UNL     1       0.888   8.457  20.858  0.00  0.00    +0.000 A 
BRANCH   5  12
ATOM     11  C   UNL     1       1.101  11.683  20.170  0.00  0.00    +0.000 C 
ATOM     12  O   UNL     1       0.437  10.560  19.606  0.00  0.00    +0.000 OA
ENDBRANCH   5  12
BRANCH  10  13
ATOM     13  O   UNL     1       0.146   8.779  21.959  0.00  0.00    +0.000 OA
ATOM     14  H   UNL     1       0.637   9.415  22.505  0.00  0.00    +0.000 HD
ENDBRANCH  10  13
ENDBRANCH   3   7
ENDBRANCH   1   4
BRANCH   1  15
ATOM     15  C   UNL     1       6.737   6.153  16.558  0.00  0.00    +0.000 C 
BRANCH  15  16
ATOM     16  O   UNL     1       7.121   5.288  15.484  0.00  0.00    +0.000 OA
BRANCH  16  17
ATOM     17  C   UNL     1       6.377   4.169  15.322  0.00  0.00    +0.000 C 
ATOM     18  O   UNL     1       6.310   3.476  14.320  0.00  0.00    +0.000 OA
BRANCH  17  19
ATOM     19  C   UNL     1       5.667   3.896  16.592  0.00  0.00    +0.000 C 
ATOM     20  C   UNL     1       4.328   3.798  16.615  0.00  0.00    +0.000 C 
BRANCH  20  21
ATOM     21  C   UNL     1       3.529   3.534  17.825  0.00  0.00    +0.000 A 
ATOM     22  C   UNL     1       2.127   3.569  17.820  0.00  0.00    +0.000 A 
ATOM     23  C   UNL     1       1.400   3.292  18.984  0.00  0.00    +0.000 A 
ATOM     24  C   UNL     1       2.071   2.961  20.157  0.00  0.00    +0.000 A 
ATOM     25 CL   UNL     1       1.175   2.623  21.587  0.00  0.00    +0.000 Cl
ATOM     26  C   UNL     1       3.461   2.898  20.177  0.00  0.00    +0.000 A 
ATOM     27  C   UNL     1       4.186   3.178  19.012  0.00  0.00    +0.000 A 
ENDBRANCH  20  21
ENDBRANCH  17  19
ENDBRANCH  16  17
ENDBRANCH  15  16
ENDBRANCH   1  15
TORSDOF 9
ENDMDL
MODEL 9
REMARK VINA RESULT:      -7.6      3.759      6.116
REMARK  Name = 
REMARK  10 active torsions:
REMARK  status: ('A' for Active; 'I' for Inactive)
REMARK    1  A    between atoms: C_1  and  O_2
REMARK    2  A    between atoms: O_2  and  C_3
REMARK    3  A    between atoms: C_5  and  C_6
REMARK    4  A    between atoms: C_7  and  C_8
REMARK    5  A    between atoms: C_8  and  C_10
REMARK    6  A    between atoms: C_10  and  O_11
REMARK    7  A    between atoms: O_11  and  C_12
REMARK    8  A    between atoms: C_12  and  C_14
REMARK    9  A    between atoms: C_15  and  C_16
REMARK   10  A    between atoms: C_25  and  O_26
REMARK                            x       y       z     vdW  Elec       q    Type
REMARK                         _______ _______ _______ _____ _____    ______ ____
ROOT
ATOM      1  C   UNL     1       7.501   6.730  17.494  0.00  0.00    +0.000 C 
ATOM      2  O   UNL     1       7.672   6.621  16.282  0.00  0.00    +0.000 OA
ENDROOT
BRANCH   1   4
ATOM      3  C   UNL     1       8.171   9.113  17.725  0.00  0.00    +0.000 C 
ATOM      4  C   UNL     1       8.076   7.884  18.258  0.00  0.00    +0.000 C 
BRANCH   3   7
ATOM      5  C   UNL     1       9.204  12.689  18.480  0.00  0.00    +0.000 A 
ATOM      6  C   UNL     1       8.647  11.554  17.861  0.00  0.00    +0.000 A 
ATOM      7  C   UNL     1       8.749  10.273  18.428  0.00  0.00    +0.000 A 
ATOM      8  C   UNL     1       9.458  10.140  19.628  0.00  0.00    +0.000 A 
ATOM      9  C   UNL     1      10.017  11.255  20.256  0.00  0.00    +0.000 A 
ATOM     10  C   UNL     1       9.890  12.526  19.688  0.00  0.00    +0.000 A 
BRANCH   5  12
ATOM     11  C   UNL     1       7.828  14.609  18.079  0.00  0.00    +0.000 C 
ATOM     12  O   UNL     1       8.989  13.847  17.780  0.00  0.00    +0.000 OA
ENDBRANCH   5  12
BRANCH  10  13
ATOM     13  O   UNL     1      10.457  13.583  20.343  0.00  0.00    +0.000 OA
ATOM     14  H   UNL     1      10.157  13.590  21.266  0.00  0.00    +0.000 HD
ENDBRANCH  10  13
ENDBRANCH   3   7
ENDBRANCH   1   4
BRANCH   1  15
ATOM     15  C   UNL     1       6.700   5.726  18.326  0.00  0.00    +0.000 C 
BRANCH  15  16
ATOM     16  O   UNL     1       6.079   4.715  17.525  0.00  0.00    +0.000 OA
BRANCH  16  17
ATOM     17  C   UNL     1       4.777   4.454  17.794  0.00  0.00    +0.000 C 
ATOM     18  O   UNL     1       4.285   3.362  18.023  0.00  0.00    +0.000 OA
BRANCH  17  19
ATOM     19  C   UNL     1       4.039   5.737  17.797  0.00  0.00    +0.000 C 
ATOM     20  C   UNL     1       3.261   6.072  18.839  0.00  0.00    +0.000 C 
BRANCH  20  21
ATOM     21  C   UNL     1       2.485   7.321  18.936  0.00  0.00    +0.000 A 
ATOM     22  C   UNL     1       2.246   8.143  17.825  0.00  0.00    +0.000 A 
ATOM     23  C   UNL     1       1.486   9.312  17.950  0.00  0.00    +0.000 A 
ATOM     24  C   UNL     1       0.945   9.657  19.184  0.00  0.00    +0.000 A 
ATOM     25 CL   UNL     1       0.012  11.096  19.336  0.00  0.00    +0.000 Cl
ATOM     26  C   UNL     1       1.151   8.844  20.294  0.00  0.00    +0.000 A 
ATOM     27  C   UNL     1       1.914   7.676  20.167  0.00  0.00    +0.000 A 
ENDBRANCH  20  21
ENDBRANCH  17  19
ENDBRANCH  16  17
ENDBRANCH  15  16
ENDBRANCH   1  15
TORSDOF 9
ENDMDL
