MODEL 1
REMARK VINA RESULT:      -7.9      0.000      0.000
REMARK  Name = 
REMARK  7 active torsions:
REMARK  status: ('A' for Active; 'I' for Inactive)
REMARK    1  A    between atoms: N_1  and  C_2
REMARK    2  A    between atoms: C_2  and  C_3
REMARK    3  A    between atoms: C_3  and  N_4
REMARK    4  A    between atoms: C_5  and  C_7
REMARK    5  A    between atoms: C_14  and  C_15
REMARK    6  A    between atoms: C_17  and  O_18
REMARK    7  A    between atoms: C_20  and  O_21
REMARK                            x       y       z     vdW  Elec       q    Type
REMARK                         _______ _______ _______ _____ _____    ______ ____
ROOT
ATOM      1  C   UNL     1       4.380   4.196  19.212  0.00  0.00    +0.000 A 
ATOM      2  C   UNL     1       4.139   2.893  19.475  0.00  0.00    +0.000 A 
ATOM      3  N   UNL     1       3.017   2.390  20.116  0.00  0.00    +0.000 NA
ATOM      4  C   UNL     1       2.123   3.250  20.523  0.00  0.00    +0.000 A 
ATOM      5  N   UNL     1       0.999   2.850  21.197  0.00  0.00    +0.000 N 
ATOM      6  N   UNL     1       2.321   4.622  20.273  0.00  0.00    +0.000 N 
ATOM      7  N   UNL     1       1.486   5.601  20.692  0.00  0.00    +0.000 NA
ATOM      8  C   UNL     1       2.083   6.694  20.183  0.00  0.00    +0.000 A 
ATOM      9  N   UNL     1       3.267   6.436  19.512  0.00  0.00    +0.000 NA
ATOM     10  C   UNL     1       3.399   5.130  19.608  0.00  0.00    +0.000 A 
ATOM     11  H   UNL     1       1.062   1.926  21.611  0.00  0.00    +0.000 HD
ATOM     12  H   UNL     1       0.550   3.557  21.774  0.00  0.00    +0.000 HD
ENDROOT
BRANCH   8  13
ATOM     13  C   UNL     1       1.569   8.052  20.336  0.00  0.00    +0.000 A 
ATOM     14  C   UNL     1       1.421   8.898  19.225  0.00  0.00    +0.000 A 
ATOM     15  C   UNL     1       0.905  10.182  19.394  0.00  0.00    +0.000 A 
ATOM     16  C   UNL     1       0.541  10.650  20.650  0.00  0.00    +0.000 A 
ATOM     17  C   UNL     1       0.694   9.815  21.749  0.00  0.00    +0.000 A 
ATOM     18  C   UNL     1       1.201   8.527  21.604  0.00  0.00    +0.000 A 
BRANCH  15  19
ATOM     19  O   UNL     1       0.732  11.021  18.332  0.00  0.00    +0.000 OA
ATOM     20  H   UNL     1      -0.217  11.088  18.136  0.00  0.00    +0.000 HD
ENDBRANCH  15  19
BRANCH  17  21
ATOM     21  O   UNL     1       0.349  10.223  23.005  0.00  0.00    +0.000 OA
ATOM     22  H   UNL     1      -0.136  11.062  22.936  0.00  0.00    +0.000 HD
ENDBRANCH  17  21
ENDBRANCH   8  13
BRANCH   1  24
ATOM     23  N   UNL     1       6.492   5.372  19.383  0.00  0.00    +0.000 N 
ATOM     24  C   UNL     1       5.683   4.580  18.603  0.00  0.00    +0.000 C 
ATOM     25  O   UNL     1       6.024   4.171  17.496  0.00  0.00    +0.000 OA
ATOM     26  H   UNL     1       6.168   5.646  20.309  0.00  0.00    +0.000 HD
BRANCH  23  27
ATOM     27  C   UNL     1       7.846   5.733  19.000  0.00  0.00    +0.000 C 
BRANCH  27  28
ATOM     28  C   UNL     1       7.895   7.034  18.179  0.00  0.00    +0.000 C 
BRANCH  28  29
ATOM     29  N   UNL     1       7.583   6.859  16.757  0.00  0.00    +0.000 NA
ATOM     30  H   UNL     1       6.597   6.623  16.652  0.00  0.00    +0.000 HD
ATOM     31  H   UNL     1       7.710   7.751  16.269  0.00  0.00    +0.000 HD
ENDBRANCH  28  29
ENDBRANCH  27  28
ENDBRANCH  23  27
ENDBRANCH   1  24
TORSDOF 7
ENDMDL
MODEL 2
REMARK VINA RESULT:      -7.9      0.067      1.688
REMARK  Name = 
REMARK  7 active torsions:
REMARK  status: ('A' for Active; 'I' for Inactive)
REMARK    1  A    between atoms: N_1  and  C_2
REMARK    2  A    between atoms: C_2  and  C_3
REMARK    3  A    between atoms: C_3  and  N_4
REMARK    4  A    between atoms: C_5  and  C_7
REMARK    5  A    between atoms: C_14  and  C_15
REMARK    6  A    between atoms: C_17  and  O_18
REMARK    7  A    between atoms: C_20  and  O_21
REMARK                            x       y       z     vdW  Elec       q    Type
REMARK                         _______ _______ _______ _____ _____    ______ ____
ROOT
ATOM      1  C   UNL     1       4.361   4.212  19.237  0.00  0.00    +0.000 A 
ATOM      2  C   UNL     1       4.138   2.909  19.516  0.00  0.00    +0.000 A 
ATOM      3  N   UNL     1       3.032   2.400  20.181  0.00  0.00    +0.000 NA
ATOM      4  C   UNL     1       2.136   3.255  20.595  0.00  0.00    +0.000 A 
ATOM      5  N   UNL     1       1.028   2.850  21.291  0.00  0.00    +0.000 N 
ATOM      6  N   UNL     1       2.315   4.626  20.330  0.00  0.00    +0.000 N 
ATOM      7  N   UNL     1       1.478   5.600  20.754  0.00  0.00    +0.000 NA
ATOM      8  C   UNL     1       2.055   6.696  20.225  0.00  0.00    +0.000 A 
ATOM      9  N   UNL     1       3.230   6.444  19.537  0.00  0.00    +0.000 NA
ATOM     10  C   UNL     1       3.377   5.140  19.642  0.00  0.00    +0.000 A 
ATOM     11  H   UNL     1       1.108   1.930  21.711  0.00  0.00    +0.000 HD
ATOM     12  H   UNL     1       0.581   3.556  21.870  0.00  0.00    +0.000 HD
ENDROOT
BRANCH   8  13
ATOM     13  C   UNL     1       1.529   8.050  20.376  0.00  0.00    +0.000 A 
ATOM     14  C   UNL     1       1.133   8.533  21.634  0.00  0.00    +0.000 A 
ATOM     15  C   UNL     1       0.656   9.838  21.757  0.00  0.00    +0.000 A 
ATOM     16  C   UNL     1       0.555  10.673  20.651  0.00  0.00    +0.000 A 
ATOM     17  C   UNL     1       0.941  10.190  19.407  0.00  0.00    +0.000 A 
ATOM     18  C   UNL     1       1.425   8.893  19.261  0.00  0.00    +0.000 A 
BRANCH  15  19
ATOM     19  O   UNL     1       0.280  10.343  22.967  0.00  0.00    +0.000 OA
ATOM     20  H   UNL     1      -0.383   9.753  23.362  0.00  0.00    +0.000 HD
ENDBRANCH  15  19
BRANCH  17  21
ATOM     21  O   UNL     1       0.866  10.968  18.288  0.00  0.00    +0.000 OA
ATOM     22  H   UNL     1       1.682  10.852  17.774  0.00  0.00    +0.000 HD
ENDBRANCH  17  21
ENDBRANCH   8  13
BRANCH   1  24
ATOM     23  N   UNL     1       6.491   5.357  19.387  0.00  0.00    +0.000 N 
ATOM     24  C   UNL     1       5.650   4.604  18.604  0.00  0.00    +0.000 C 
ATOM     25  O   UNL     1       5.951   4.234  17.472  0.00  0.00    +0.000 OA
ATOM     26  H   UNL     1       6.199   5.600  20.333  0.00  0.00    +0.000 HD
BRANCH  23  27
ATOM     27  C   UNL     1       7.838   5.717  18.977  0.00  0.00    +0.000 C 
BRANCH  27  28
ATOM     28  C   UNL     1       7.874   7.030  18.174  0.00  0.00    +0.000 C 
BRANCH  28  29
ATOM     29  N   UNL     1       7.620   6.865  16.740  0.00  0.00    +0.000 NA
ATOM     30  H   UNL     1       6.718   7.276  16.504  0.00  0.00    +0.000 HD
ATOM     31  H   UNL     1       8.316   7.397  16.209  0.00  0.00    +0.000 HD
ENDBRANCH  28  29
ENDBRANCH  27  28
ENDBRANCH  23  27
ENDBRANCH   1  24
TORSDOF 7
ENDMDL
MODEL 3
REMARK VINA RESULT:      -7.9      1.289      2.166
REMARK  Name = 
REMARK  7 active torsions:
REMARK  status: ('A' for Active; 'I' for Inactive)
REMARK    1  A    between atoms: N_1  and  C_2
REMARK    2  A    between atoms: C_2  and  C_3
REMARK    3  A    between atoms: C_3  and  N_4
REMARK    4  A    between atoms: C_5  and  C_7
REMARK    5  A    between atoms: C_14  and  C_15
REMARK    6  A    between atoms: C_17  and  O_18
REMARK    7  A    between atoms: C_20  and  O_21
REMARK                            x       y       z     vdW  Elec       q    Type
REMARK                         _______ _______ _______ _____ _____    ______ ____
ROOT
ATOM      1  C   UNL     1       4.475   4.082  19.248  0.00  0.00    +0.000 A 
ATOM      2  C   UNL     1       4.232   2.794  19.576  0.00  0.00    +0.000 A 
ATOM      3  N   UNL     1       3.104   2.325  20.232  0.00  0.00    +0.000 NA
ATOM      4  C   UNL     1       2.206   3.205  20.586  0.00  0.00    +0.000 A 
ATOM      5  N   UNL     1       1.076   2.840  21.269  0.00  0.00    +0.000 N 
ATOM      6  N   UNL     1       2.406   4.562  20.266  0.00  0.00    +0.000 N 
ATOM      7  N   UNL     1       1.568   5.561  20.626  0.00  0.00    +0.000 NA
ATOM      8  C   UNL     1       2.170   6.627  20.066  0.00  0.00    +0.000 A 
ATOM      9  N   UNL     1       3.360   6.335  19.420  0.00  0.00    +0.000 NA
ATOM     10  C   UNL     1       3.491   5.036  19.585  0.00  0.00    +0.000 A 
ATOM     11  H   UNL     1       1.135   1.939  21.730  0.00  0.00    +0.000 HD
ATOM     12  H   UNL     1       0.621   3.576  21.804  0.00  0.00    +0.000 HD
ENDROOT
BRANCH   8  13
ATOM     13  C   UNL     1       1.654   7.991  20.144  0.00  0.00    +0.000 A 
ATOM     14  C   UNL     1       1.227   8.531  21.368  0.00  0.00    +0.000 A 
ATOM     15  C   UNL     1       0.761   9.844  21.421  0.00  0.00    +0.000 A 
ATOM     16  C   UNL     1       0.700  10.632  20.279  0.00  0.00    +0.000 A 
ATOM     17  C   UNL     1       1.116  10.094  19.068  0.00  0.00    +0.000 A 
ATOM     18  C   UNL     1       1.591   8.787  18.991  0.00  0.00    +0.000 A 
BRANCH  15  19
ATOM     19  O   UNL     1       0.356  10.404  22.598  0.00  0.00    +0.000 OA
ATOM     20  H   UNL     1       0.966  10.131  23.302  0.00  0.00    +0.000 HD
ENDBRANCH  15  19
BRANCH  17  21
ATOM     21  O   UNL     1       1.082  10.824  17.916  0.00  0.00    +0.000 OA
ATOM     22  H   UNL     1       0.264  10.609  17.437  0.00  0.00    +0.000 HD
ENDBRANCH  17  21
ENDBRANCH   8  13
BRANCH   1  24
ATOM     23  N   UNL     1       5.935   4.077  17.314  0.00  0.00    +0.000 N 
ATOM     24  C   UNL     1       5.784   4.434  18.632  0.00  0.00    +0.000 C 
ATOM     25  O   UNL     1       6.647   5.047  19.256  0.00  0.00    +0.000 OA
ATOM     26  H   UNL     1       5.167   3.604  16.840  0.00  0.00    +0.000 HD
BRANCH  23  27
ATOM     27  C   UNL     1       7.094   4.456  16.522  0.00  0.00    +0.000 C 
BRANCH  27  28
ATOM     28  C   UNL     1       6.733   4.733  15.052  0.00  0.00    +0.000 C 
BRANCH  28  29
ATOM     29  N   UNL     1       7.750   5.490  14.315  0.00  0.00    +0.000 NA
ATOM     30  H   UNL     1       7.406   6.432  14.132  0.00  0.00    +0.000 HD
ATOM     31  H   UNL     1       8.579   5.607  14.906  0.00  0.00    +0.000 HD
ENDBRANCH  28  29
ENDBRANCH  27  28
ENDBRANCH  23  27
ENDBRANCH   1  24
TORSDOF 7
ENDMDL
MODEL 4
REMARK VINA RESULT:      -7.7      1.280      1.343
REMARK  Name = 
REMARK  7 active torsions:
REMARK  status: ('A' for Active; 'I' for Inactive)
REMARK    1  A    between atoms: N_1  and  C_2
REMARK    2  A    between atoms: C_2  and  C_3
REMARK    3  A    between atoms: C_3  and  N_4
REMARK    4  A    between atoms: C_5  and  C_7
REMARK    5  A    between atoms: C_14  and  C_15
REMARK    6  A    between atoms: C_17  and  O_18
REMARK    7  A    between atoms: C_20  and  O_21
REMARK                            x       y       z     vdW  Elec       q    Type
REMARK                         _______ _______ _______ _____ _____    ______ ____
ROOT
ATOM      1  C   UNL     1       4.454   4.190  19.079  0.00  0.00    +0.000 A 
ATOM      2  C   UNL     1       4.310   2.903  19.463  0.00  0.00    +0.000 A 
ATOM      3  N   UNL     1       3.305   2.409  20.282  0.00  0.00    +0.000 NA
ATOM      4  C   UNL     1       2.432   3.265  20.742  0.00  0.00    +0.000 A 
ATOM      5  N   UNL     1       1.424   2.877  21.585  0.00  0.00    +0.000 N 
ATOM      6  N   UNL     1       2.533   4.620  20.371  0.00  0.00    +0.000 N 
ATOM      7  N   UNL     1       1.715   5.597  20.827  0.00  0.00    +0.000 NA
ATOM      8  C   UNL     1       2.190   6.670  20.167  0.00  0.00    +0.000 A 
ATOM      9  N   UNL     1       3.288   6.405  19.366  0.00  0.00    +0.000 NA
ATOM     10  C   UNL     1       3.491   5.116  19.535  0.00  0.00    +0.000 A 
ATOM     11  H   UNL     1       1.583   1.990  22.051  0.00  0.00    +0.000 HD
ATOM     12  H   UNL     1       1.022   3.608  22.166  0.00  0.00    +0.000 HD
ENDROOT
BRANCH   8  13
ATOM     13  C   UNL     1       1.638   8.016  20.292  0.00  0.00    +0.000 A 
ATOM     14  C   UNL     1       1.465   8.832  19.162  0.00  0.00    +0.000 A 
ATOM     15  C   UNL     1       0.914  10.105  19.303  0.00  0.00    +0.000 A 
ATOM     16  C   UNL     1       0.539  10.591  20.550  0.00  0.00    +0.000 A 
ATOM     17  C   UNL     1       0.717   9.785  21.667  0.00  0.00    +0.000 A 
ATOM     18  C   UNL     1       1.260   8.509  21.550  0.00  0.00    +0.000 A 
BRANCH  15  19
ATOM     19  O   UNL     1       0.715  10.914  18.224  0.00  0.00    +0.000 OA
ATOM     20  H   UNL     1       0.944  11.827  18.469  0.00  0.00    +0.000 HD
ENDBRANCH  15  19
BRANCH  17  21
ATOM     21  O   UNL     1       0.363  10.211  22.914  0.00  0.00    +0.000 OA
ATOM     22  H   UNL     1      -0.041   9.468  23.393  0.00  0.00    +0.000 HD
ENDBRANCH  17  21
ENDBRANCH   8  13
BRANCH   1  24
ATOM     23  N   UNL     1       5.387   5.229  17.099  0.00  0.00    +0.000 N 
ATOM     24  C   UNL     1       5.649   4.574  18.278  0.00  0.00    +0.000 C 
ATOM     25  O   UNL     1       6.790   4.356  18.676  0.00  0.00    +0.000 OA
ATOM     26  H   UNL     1       4.418   5.414  16.842  0.00  0.00    +0.000 HD
BRANCH  23  27
ATOM     27  C   UNL     1       6.433   5.788  16.258  0.00  0.00    +0.000 C 
BRANCH  27  28
ATOM     28  C   UNL     1       6.815   4.850  15.099  0.00  0.00    +0.000 C 
BRANCH  28  29
ATOM     29  N   UNL     1       7.792   5.417  14.164  0.00  0.00    +0.000 NA
ATOM     30  H   UNL     1       7.384   6.224  13.694  0.00  0.00    +0.000 HD
ATOM     31  H   UNL     1       8.594   5.777  14.690  0.00  0.00    +0.000 HD
ENDBRANCH  28  29
ENDBRANCH  27  28
ENDBRANCH  23  27
ENDBRANCH   1  24
TORSDOF 7
ENDMDL
MODEL 5
REMARK VINA RESULT:      -7.4      1.890      4.123
REMARK  Name = 
REMARK  7 active torsions:
REMARK  status: ('A' for Active; 'I' for Inactive)
REMARK    1  A    between atoms: N_1  and  C_2
REMARK    2  A    between atoms: C_2  and  C_3
REMARK    3  A    between atoms: C_3  and  N_4
REMARK    4  A    between atoms: C_5  and  C_7
REMARK    5  A    between atoms: C_14  and  C_15
REMARK    6  A    between atoms: C_17  and  O_18
REMARK    7  A    between atoms: C_20  and  O_21
REMARK                            x       y       z     vdW  Elec       q    Type
REMARK                         _______ _______ _______ _____ _____    ______ ____
ROOT
ATOM      1  C   UNL     1       4.192   4.056  18.158  0.00  0.00    +0.000 A 
ATOM      2  C   UNL     1       5.069   3.779  17.168  0.00  0.00    +0.000 A 
ATOM      3  N   UNL     1       5.509   4.672  16.202  0.00  0.00    +0.000 NA
ATOM      4  C   UNL     1       5.016   5.881  16.235  0.00  0.00    +0.000 A 
ATOM      5  N   UNL     1       5.365   6.821  15.301  0.00  0.00    +0.000 N 
ATOM      6  N   UNL     1       4.101   6.226  17.247  0.00  0.00    +0.000 N 
ATOM      7  N   UNL     1       3.493   7.431  17.346  0.00  0.00    +0.000 NA
ATOM      8  C   UNL     1       2.765   7.270  18.467  0.00  0.00    +0.000 A 
ATOM      9  N   UNL     1       2.862   6.009  19.032  0.00  0.00    +0.000 NA
ATOM     10  C   UNL     1       3.688   5.373  18.229  0.00  0.00    +0.000 A 
ATOM     11  H   UNL     1       5.763   6.442  14.449  0.00  0.00    +0.000 HD
ATOM     12  H   UNL     1       4.708   7.587  15.172  0.00  0.00    +0.000 HD
ENDROOT
BRANCH   8  13
ATOM     13  C   UNL     1       1.911   8.305  19.042  0.00  0.00    +0.000 A 
ATOM     14  C   UNL     1       1.434   9.366  18.255  0.00  0.00    +0.000 A 
ATOM     15  C   UNL     1       0.600  10.329  18.821  0.00  0.00    +0.000 A 
ATOM     16  C   UNL     1       0.237  10.267  20.161  0.00  0.00    +0.000 A 
ATOM     17  C   UNL     1       0.715   9.221  20.939  0.00  0.00    +0.000 A 
ATOM     18  C   UNL     1       1.544   8.244  20.394  0.00  0.00    +0.000 A 
BRANCH  15  19
ATOM     19  O   UNL     1       0.105  11.362  18.080  0.00  0.00    +0.000 OA
ATOM     20  H   UNL     1       0.067  11.090  17.148  0.00  0.00    +0.000 HD
ENDBRANCH  15  19
BRANCH  17  21
ATOM     21  O   UNL     1       0.386   9.109  22.259  0.00  0.00    +0.000 OA
ATOM     22  H   UNL     1       1.182   8.855  22.756  0.00  0.00    +0.000 HD
ENDBRANCH  17  21
ENDBRANCH   8  13
BRANCH   1  24
ATOM     23  N   UNL     1       3.398   3.333  20.330  0.00  0.00    +0.000 N 
ATOM     24  C   UNL     1       3.746   2.955  19.055  0.00  0.00    +0.000 C 
ATOM     25  O   UNL     1       3.655   1.796  18.658  0.00  0.00    +0.000 OA
ATOM     26  H   UNL     1       3.460   4.317  20.587  0.00  0.00    +0.000 HD
BRANCH  23  27
ATOM     27  C   UNL     1       2.821   2.412  21.295  0.00  0.00    +0.000 C 
BRANCH  27  28
ATOM     28  C   UNL     1       1.316   2.657  21.509  0.00  0.00    +0.000 C 
BRANCH  28  29
ATOM     29  N   UNL     1       0.733   3.650  20.601  0.00  0.00    +0.000 NA
ATOM     30  H   UNL     1       0.669   3.256  19.663  0.00  0.00    +0.000 HD
ATOM     31  H   UNL     1      -0.231   3.846  20.886  0.00  0.00    +0.000 HD
ENDBRANCH  28  29
ENDBRANCH  27  28
ENDBRANCH  23  27
ENDBRANCH   1  24
TORSDOF 7
ENDMDL
MODEL 6
REMARK VINA RESULT:      -7.4      4.710      6.883
REMARK  Name = 
REMARK  7 active torsions:
REMARK  status: ('A' for Active; 'I' for Inactive)
REMARK    1  A    between atoms: N_1  and  C_2
REMARK    2  A    between atoms: C_2  and  C_3
REMARK    3  A    between atoms: C_3  and  N_4
REMARK    4  A    between atoms: C_5  and  C_7
REMARK    5  A    between atoms: C_14  and  C_15
REMARK    6  A    between atoms: C_17  and  O_18
REMARK    7  A    between atoms: C_20  and  O_21
REMARK                            x       y       z     vdW  Elec       q    Type
REMARK                         _______ _______ _______ _____ _____    ______ ____
ROOT
ATOM      1  C   UNL     1       6.045   4.162  13.962  0.00  0.00    +0.000 A 
ATOM      2  C   UNL     1       7.177   4.873  13.765  0.00  0.00    +0.000 A 
ATOM      3  N   UNL     1       7.777   5.713  14.691  0.00  0.00    +0.000 NA
ATOM      4  C   UNL     1       7.187   5.849  15.848  0.00  0.00    +0.000 A 
ATOM      5  N   UNL     1       7.687   6.683  16.813  0.00  0.00    +0.000 N 
ATOM      6  N   UNL     1       6.006   5.128  16.109  0.00  0.00    +0.000 N 
ATOM      7  N   UNL     1       5.288   5.231  17.251  0.00  0.00    +0.000 NA
ATOM      8  C   UNL     1       4.303   4.341  17.026  0.00  0.00    +0.000 A 
ATOM      9  N   UNL     1       4.358   3.733  15.783  0.00  0.00    +0.000 NA
ATOM     10  C   UNL     1       5.424   4.267  15.224  0.00  0.00    +0.000 A 
ATOM     11  H   UNL     1       8.331   7.386  16.469  0.00  0.00    +0.000 HD
ATOM     12  H   UNL     1       7.022   7.006  17.512  0.00  0.00    +0.000 HD
ENDROOT
BRANCH   8  13
ATOM     13  C   UNL     1       3.235   4.045  17.978  0.00  0.00    +0.000 A 
ATOM     14  C   UNL     1       2.245   3.095  17.679  0.00  0.00    +0.000 A 
ATOM     15  C   UNL     1       1.250   2.813  18.613  0.00  0.00    +0.000 A 
ATOM     16  C   UNL     1       1.211   3.464  19.840  0.00  0.00    +0.000 A 
ATOM     17  C   UNL     1       2.187   4.408  20.131  0.00  0.00    +0.000 A 
ATOM     18  C   UNL     1       3.194   4.702  19.216  0.00  0.00    +0.000 A 
BRANCH  15  19
ATOM     19  O   UNL     1       0.285   1.882  18.361  0.00  0.00    +0.000 OA
ATOM     20  H   UNL     1       0.704   1.010  18.273  0.00  0.00    +0.000 HD
ENDBRANCH  15  19
BRANCH  17  21
ATOM     21  O   UNL     1       2.198   5.075  21.322  0.00  0.00    +0.000 OA
ATOM     22  H   UNL     1       1.326   5.482  21.458  0.00  0.00    +0.000 HD
ENDBRANCH  17  21
ENDBRANCH   8  13
BRANCH   1  24
ATOM     23  N   UNL     1       6.301   2.421  12.296  0.00  0.00    +0.000 N 
ATOM     24  C   UNL     1       5.476   3.383  12.827  0.00  0.00    +0.000 C 
ATOM     25  O   UNL     1       4.328   3.566  12.431  0.00  0.00    +0.000 OA
ATOM     26  H   UNL     1       7.230   2.292  12.694  0.00  0.00    +0.000 HD
BRANCH  23  27
ATOM     27  C   UNL     1       5.863   1.485  11.273  0.00  0.00    +0.000 C 
BRANCH  27  28
ATOM     28  C   UNL     1       6.647   0.161  11.317  0.00  0.00    +0.000 C 
BRANCH  28  29
ATOM     29  N   UNL     1       5.811  -1.037  11.193  0.00  0.00    +0.000 NA
ATOM     30  H   UNL     1       5.405  -1.263  12.101  0.00  0.00    +0.000 HD
ATOM     31  H   UNL     1       5.018  -0.835  10.576  0.00  0.00    +0.000 HD
ENDBRANCH  28  29
ENDBRANCH  27  28
ENDBRANCH  23  27
ENDBRANCH   1  24
TORSDOF 7
ENDMDL
MODEL 7
REMARK VINA RESULT:      -7.4      1.889      4.439
REMARK  Name = 
REMARK  7 active torsions:
REMARK  status: ('A' for Active; 'I' for Inactive)
REMARK    1  A    between atoms: N_1  and  C_2
REMARK    2  A    between atoms: C_2  and  C_3
REMARK    3  A    between atoms: C_3  and  N_4
REMARK    4  A    between atoms: C_5  and  C_7
REMARK    5  A    between atoms: C_14  and  C_15
REMARK    6  A    between atoms: C_17  and  O_18
REMARK    7  A    between atoms: C_20  and  O_21
REMARK                            x       y       z     vdW  Elec       q    Type
REMARK                         _______ _______ _______ _____ _____    ______ ____
ROOT
ATOM      1  C   UNL     1       4.166   4.067  18.143  0.00  0.00    +0.000 A 
ATOM      2  C   UNL     1       5.031   3.801  17.140  0.00  0.00    +0.000 A 
ATOM      3  N   UNL     1       5.463   4.705  16.181  0.00  0.00    +0.000 NA
ATOM      4  C   UNL     1       4.976   5.916  16.237  0.00  0.00    +0.000 A 
ATOM      5  N   UNL     1       5.317   6.868  15.312  0.00  0.00    +0.000 N 
ATOM      6  N   UNL     1       4.072   6.250  17.264  0.00  0.00    +0.000 N 
ATOM      7  N   UNL     1       3.471   7.456  17.386  0.00  0.00    +0.000 NA
ATOM      8  C   UNL     1       2.754   7.281  18.513  0.00  0.00    +0.000 A 
ATOM      9  N   UNL     1       2.852   6.012  19.059  0.00  0.00    +0.000 NA
ATOM     10  C   UNL     1       3.668   5.384  18.238  0.00  0.00    +0.000 A 
ATOM     11  H   UNL     1       5.704   6.499  14.451  0.00  0.00    +0.000 HD
ATOM     12  H   UNL     1       4.661   7.637  15.201  0.00  0.00    +0.000 HD
ENDROOT
BRANCH   8  13
ATOM     13  C   UNL     1       1.910   8.311  19.112  0.00  0.00    +0.000 A 
ATOM     14  C   UNL     1       1.536   8.241  20.464  0.00  0.00    +0.000 A 
ATOM     15  C   UNL     1       0.750   9.248  21.020  0.00  0.00    +0.000 A 
ATOM     16  C   UNL     1       0.315  10.325  20.255  0.00  0.00    +0.000 A 
ATOM     17  C   UNL     1       0.680  10.389  18.917  0.00  0.00    +0.000 A 
ATOM     18  C   UNL     1       1.470   9.398  18.342  0.00  0.00    +0.000 A 
BRANCH  15  19
ATOM     19  O   UNL     1       0.385   9.219  22.334  0.00  0.00    +0.000 OA
ATOM     20  H   UNL     1      -0.118   8.405  22.502  0.00  0.00    +0.000 HD
ENDBRANCH  15  19
BRANCH  17  21
ATOM     21  O   UNL     1       0.285  11.425  18.121  0.00  0.00    +0.000 OA
ATOM     22  H   UNL     1      -0.417  11.917  18.579  0.00  0.00    +0.000 HD
ENDBRANCH  17  21
ENDBRANCH   8  13
BRANCH   1  24
ATOM     23  N   UNL     1       3.390   3.317  20.312  0.00  0.00    +0.000 N 
ATOM     24  C   UNL     1       3.726   2.955  19.030  0.00  0.00    +0.000 C 
ATOM     25  O   UNL     1       3.628   1.802  18.618  0.00  0.00    +0.000 OA
ATOM     26  H   UNL     1       3.457   4.297  20.582  0.00  0.00    +0.000 HD
BRANCH  23  27
ATOM     27  C   UNL     1       2.820   2.384  21.270  0.00  0.00    +0.000 C 
BRANCH  27  28
ATOM     28  C   UNL     1       1.344   2.693  21.579  0.00  0.00    +0.000 C 
BRANCH  28  29
ATOM     29  N   UNL     1       0.624   3.347  20.482  0.00  0.00    +0.000 NA
ATOM     30  H   UNL     1      -0.328   2.986  20.437  0.00  0.00    +0.000 HD
ATOM     31  H   UNL     1       0.533   4.347  20.684  0.00  0.00    +0.000 HD
ENDBRANCH  28  29
ENDBRANCH  27  28
ENDBRANCH  23  27
ENDBRANCH   1  24
TORSDOF 7
ENDMDL
MODEL 8
REMARK VINA RESULT:      -7.4      4.699      6.928
REMARK  Name = 
REMARK  7 active torsions:
REMARK  status: ('A' for Active; 'I' for Inactive)
REMARK    1  A    between atoms: N_1  and  C_2
REMARK    2  A    between atoms: C_2  and  C_3
REMARK    3  A    between atoms: C_3  and  N_4
REMARK    4  A    between atoms: C_5  and  C_7
REMARK    5  A    between atoms: C_14  and  C_15
REMARK    6  A    between atoms: C_17  and  O_18
REMARK    7  A    between atoms: C_20  and  O_21
REMARK                            x       y       z     vdW  Elec       q    Type
REMARK                         _______ _______ _______ _____ _____    ______ ____
ROOT
ATOM      1  C   UNL     1       6.023   4.138  14.000  0.00  0.00    +0.000 A 
ATOM      2  C   UNL     1       7.167   4.828  13.798  0.00  0.00    +0.000 A 
ATOM      3  N   UNL     1       7.780   5.666  14.717  0.00  0.00    +0.000 NA
ATOM      4  C   UNL     1       7.190   5.824  15.872  0.00  0.00    +0.000 A 
ATOM      5  N   UNL     1       7.703   6.660  16.829  0.00  0.00    +0.000 N 
ATOM      6  N   UNL     1       5.996   5.127  16.137  0.00  0.00    +0.000 N 
ATOM      7  N   UNL     1       5.278   5.253  17.277  0.00  0.00    +0.000 NA
ATOM      8  C   UNL     1       4.278   4.378  17.059  0.00  0.00    +0.000 A 
ATOM      9  N   UNL     1       4.325   3.757  15.822  0.00  0.00    +0.000 NA
ATOM     10  C   UNL     1       5.401   4.267  15.260  0.00  0.00    +0.000 A 
ATOM     11  H   UNL     1       8.360   7.348  16.480  0.00  0.00    +0.000 HD
ATOM     12  H   UNL     1       7.042   7.001  17.523  0.00  0.00    +0.000 HD
ENDROOT
BRANCH   8  13
ATOM     13  C   UNL     1       3.204   4.111  18.012  0.00  0.00    +0.000 A 
ATOM     14  C   UNL     1       3.097   4.847  19.203  0.00  0.00    +0.000 A 
ATOM     15  C   UNL     1       2.049   4.590  20.086  0.00  0.00    +0.000 A 
ATOM     16  C   UNL     1       1.107   3.606  19.814  0.00  0.00    +0.000 A 
ATOM     17  C   UNL     1       1.218   2.874  18.639  0.00  0.00    +0.000 A 
ATOM     18  C   UNL     1       2.252   3.118  17.740  0.00  0.00    +0.000 A 
BRANCH  15  19
ATOM     19  O   UNL     1       1.907   5.299  21.242  0.00  0.00    +0.000 OA
ATOM     20  H   UNL     1       2.689   5.863  21.364  0.00  0.00    +0.000 HD
ENDBRANCH  15  19
BRANCH  17  21
ATOM     21  O   UNL     1       0.318   1.899  18.320  0.00  0.00    +0.000 OA
ATOM     22  H   UNL     1       0.778   1.204  17.821  0.00  0.00    +0.000 HD
ENDBRANCH  17  21
ENDBRANCH   8  13
BRANCH   1  24
ATOM     23  N   UNL     1       6.267   2.405  12.324  0.00  0.00    +0.000 N 
ATOM     24  C   UNL     1       5.443   3.358  12.872  0.00  0.00    +0.000 C 
ATOM     25  O   UNL     1       4.286   3.531  12.496  0.00  0.00    +0.000 OA
ATOM     26  H   UNL     1       7.204   2.285  12.706  0.00  0.00    +0.000 HD
BRANCH  23  27
ATOM     27  C   UNL     1       5.822   1.469  11.305  0.00  0.00    +0.000 C 
BRANCH  27  28
ATOM     28  C   UNL     1       6.647   0.169  11.304  0.00  0.00    +0.000 C 
BRANCH  28  29
ATOM     29  N   UNL     1       5.843  -1.052  11.193  0.00  0.00    +0.000 NA
ATOM     30  H   UNL     1       5.495  -1.144  10.239  0.00  0.00    +0.000 HD
ATOM     31  H   UNL     1       6.442  -1.868  11.351  0.00  0.00    +0.000 HD
ENDBRANCH  28  29
ENDBRANCH  27  28
ENDBRANCH  23  27
ENDBRANCH   1  24
TORSDOF 7
ENDMDL
MODEL 9
REMARK VINA RESULT:      -7.3      1.716      1.826
REMARK  Name = 
REMARK  7 active torsions:
REMARK  status: ('A' for Active; 'I' for Inactive)
REMARK    1  A    between atoms: N_1  and  C_2
REMARK    2  A    between atoms: C_2  and  C_3
REMARK    3  A    between atoms: C_3  and  N_4
REMARK    4  A    between atoms: C_5  and  C_7
REMARK    5  A    between atoms: C_14  and  C_15
REMARK    6  A    between atoms: C_17  and  O_18
REMARK    7  A    between atoms: C_20  and  O_21
REMARK                            x       y       z     vdW  Elec       q    Type
REMARK                         _______ _______ _______ _____ _____    ______ ____
ROOT
ATOM      1  C   UNL     1       3.724   4.705  18.274  0.00  0.00    +0.000 A 
ATOM      2  C   UNL     1       3.874   3.426  18.681  0.00  0.00    +0.000 A 
ATOM      3  N   UNL     1       3.351   2.879  19.843  0.00  0.00    +0.000 NA
ATOM      4  C   UNL     1       2.673   3.674  20.627  0.00  0.00    +0.000 A 
ATOM      5  N   UNL     1       2.148   3.233  21.814  0.00  0.00    +0.000 N 
ATOM      6  N   UNL     1       2.483   5.017  20.251  0.00  0.00    +0.000 N 
ATOM      7  N   UNL     1       1.842   5.937  21.008  0.00  0.00    +0.000 NA
ATOM      8  C   UNL     1       1.897   7.022  20.212  0.00  0.00    +0.000 A 
ATOM      9  N   UNL     1       2.582   6.821  19.025  0.00  0.00    +0.000 NA
ATOM     10  C   UNL     1       2.956   5.562  19.092  0.00  0.00    +0.000 A 
ATOM     11  H   UNL     1       2.568   2.381  22.169  0.00  0.00    +0.000 HD
ATOM     12  H   UNL     1       1.957   3.948  22.510  0.00  0.00    +0.000 HD
ENDROOT
BRANCH   8  13
ATOM     13  C   UNL     1       1.324   8.320  20.558  0.00  0.00    +0.000 A 
ATOM     14  C   UNL     1       1.108   9.298  19.574  0.00  0.00    +0.000 A 
ATOM     15  C   UNL     1       0.538  10.520  19.925  0.00  0.00    +0.000 A 
ATOM     16  C   UNL     1       0.185  10.798  21.240  0.00  0.00    +0.000 A 
ATOM     17  C   UNL     1       0.406   9.832  22.213  0.00  0.00    +0.000 A 
ATOM     18  C   UNL     1       0.969   8.601  21.885  0.00  0.00    +0.000 A 
BRANCH  15  19
ATOM     19  O   UNL     1       0.298  11.484  18.990  0.00  0.00    +0.000 OA
ATOM     20  H   UNL     1       1.099  11.609  18.454  0.00  0.00    +0.000 HD
ENDBRANCH  15  19
BRANCH  17  21
ATOM     21  O   UNL     1       0.075  10.049  23.519  0.00  0.00    +0.000 OA
ATOM     22  H   UNL     1       0.565  10.826  23.837  0.00  0.00    +0.000 HD
ENDBRANCH  17  21
ENDBRANCH   8  13
BRANCH   1  24
ATOM     23  N   UNL     1       4.879   4.160  16.214  0.00  0.00    +0.000 N 
ATOM     24  C   UNL     1       4.436   5.159  17.047  0.00  0.00    +0.000 C 
ATOM     25  O   UNL     1       4.571   6.351  16.784  0.00  0.00    +0.000 OA
ATOM     26  H   UNL     1       4.702   3.190  16.470  0.00  0.00    +0.000 HD
BRANCH  23  27
ATOM     27  C   UNL     1       5.477   4.424  14.916  0.00  0.00    +0.000 C 
BRANCH  27  28
ATOM     28  C   UNL     1       7.010   4.550  14.993  0.00  0.00    +0.000 C 
BRANCH  28  29
ATOM     29  N   UNL     1       7.479   5.755  15.684  0.00  0.00    +0.000 NA
ATOM     30  H   UNL     1       7.115   5.766  16.635  0.00  0.00    +0.000 HD
ATOM     31  H   UNL     1       8.499   5.718  15.777  0.00  0.00    +0.000 HD
ENDBRANCH  28  29
ENDBRANCH  27  28
ENDBRANCH  23  27
ENDBRANCH   1  24
TORSDOF 7
ENDMDL
