MODEL 1
REMARK VINA RESULT:      -6.0      0.000      0.000
REMARK  Name = 
REMARK  10 active torsions:
REMARK  status: ('A' for Active; 'I' for Inactive)
REMARK    1  A    between atoms: C_1  and  C_2
REMARK    2  A    between atoms: C_2  and  C_3
REMARK    3  A    between atoms: C_3  and  C_4
REMARK    4  A    between atoms: C_4  and  N_5
REMARK    5  A    between atoms: N_5  and  C_6
REMARK    6  A    between atoms: C_6  and  N_8
REMARK    7  A    between atoms: C_10  and  O_11
REMARK    8  A    between atoms: C_12  and  O_13
REMARK    9  A    between atoms: C_14  and  C_15
REMARK   10  A    between atoms: C_15  and  O_16
REMARK                            x       y       z     vdW  Elec       q    Type
REMARK                         _______ _______ _______ _____ _____    ______ ____
ROOT
ATOM      1  N   UNL     1       4.785   4.968  17.255  0.00  0.00    +0.000 N 
ATOM      2  C   UNL     1       5.221   4.945  15.848  0.00  0.00    +0.000 C 
ATOM      3  C   UNL     1       6.688   4.513  15.853  0.00  0.00    +0.000 C 
ATOM      4  C   UNL     1       7.122   4.803  17.293  0.00  0.00    +0.000 C 
ATOM      5  C   UNL     1       5.873   4.403  18.094  0.00  0.00    +0.000 C 
ENDROOT
BRANCH   1   6
ATOM      6  C   UNL     1       3.450   5.184  17.586  0.00  0.00    +0.000 C 
ATOM      7  S   UNL     1       2.880   6.639  18.222  0.00  0.00    +0.000 S 
BRANCH   6   8
ATOM      8  N   UNL     1       2.626   4.107  17.353  0.00  0.00    +0.000 N 
ATOM      9  H   UNL     1       2.641   3.844  16.372  0.00  0.00    +0.000 HD
BRANCH   8  10
ATOM     10  C   UNL     1       2.475   2.969  18.253  0.00  0.00    +0.000 C 
BRANCH  10  11
ATOM     11  C   UNL     1       1.063   2.877  18.822  0.00  0.00    +0.000 C 
BRANCH  11  13
ATOM     12  C   UNL     1       1.480   2.917  21.318  0.00  0.00    +0.000 C 
ATOM     13  C   UNL     1       0.965   3.688  20.116  0.00  0.00    +0.000 C 
ENDBRANCH  11  13
ENDBRANCH  10  11
ENDBRANCH   8  10
ENDBRANCH   6   8
ENDBRANCH   1   6
BRANCH   3  14
ATOM     14  O   UNL     1       7.481   5.219  14.907  0.00  0.00    +0.000 OA
ATOM     15  H   UNL     1       8.063   5.832  15.390  0.00  0.00    +0.000 HD
ENDBRANCH   3  14
BRANCH   4  16
ATOM     16  O   UNL     1       8.284   4.098  17.706  0.00  0.00    +0.000 OA
ATOM     17  H   UNL     1       8.559   3.499  16.989  0.00  0.00    +0.000 HD
ENDBRANCH   4  16
BRANCH   5  18
ATOM     18  C   UNL     1       6.035   4.815  19.564  0.00  0.00    +0.000 C 
BRANCH  18  19
ATOM     19  O   UNL     1       7.276   5.464  19.815  0.00  0.00    +0.000 OA
ATOM     20  H   UNL     1       7.650   5.715  18.949  0.00  0.00    +0.000 HD
ENDBRANCH  18  19
ENDBRANCH   5  18
TORSDOF 9
ENDMDL
MODEL 2
REMARK VINA RESULT:      -5.9      1.812      2.285
REMARK  Name = 
REMARK  10 active torsions:
REMARK  status: ('A' for Active; 'I' for Inactive)
REMARK    1  A    between atoms: C_1  and  C_2
REMARK    2  A    between atoms: C_2  and  C_3
REMARK    3  A    between atoms: C_3  and  C_4
REMARK    4  A    between atoms: C_4  and  N_5
REMARK    5  A    between atoms: N_5  and  C_6
REMARK    6  A    between atoms: C_6  and  N_8
REMARK    7  A    between atoms: C_10  and  O_11
REMARK    8  A    between atoms: C_12  and  O_13
REMARK    9  A    between atoms: C_14  and  C_15
REMARK   10  A    between atoms: C_15  and  O_16
REMARK                            x       y       z     vdW  Elec       q    Type
REMARK                         _______ _______ _______ _____ _____    ______ ____
ROOT
ATOM      1  N   UNL     1       5.498   4.473  17.363  0.00  0.00    +0.000 N 
ATOM      2  C   UNL     1       4.983   3.700  16.218  0.00  0.00    +0.000 C 
ATOM      3  C   UNL     1       5.935   3.962  15.050  0.00  0.00    +0.000 C 
ATOM      4  C   UNL     1       6.639   5.255  15.472  0.00  0.00    +0.000 C 
ATOM      5  C   UNL     1       6.813   5.052  16.984  0.00  0.00    +0.000 C 
ENDROOT
BRANCH   1   6
ATOM      6  C   UNL     1       4.935   4.338  18.629  0.00  0.00    +0.000 C 
ATOM      7  S   UNL     1       4.011   5.543  19.362  0.00  0.00    +0.000 S 
BRANCH   6   8
ATOM      8  N   UNL     1       5.196   3.132  19.239  0.00  0.00    +0.000 N 
ATOM      9  H   UNL     1       6.029   3.189  19.815  0.00  0.00    +0.000 HD
BRANCH   8  10
ATOM     10  C   UNL     1       4.177   2.243  19.785  0.00  0.00    +0.000 C 
BRANCH  10  11
ATOM     11  C   UNL     1       3.138   1.856  18.737  0.00  0.00    +0.000 C 
BRANCH  11  13
ATOM     12  C   UNL     1       1.734   2.738  20.650  0.00  0.00    +0.000 C 
ATOM     13  C   UNL     1       1.728   2.030  19.306  0.00  0.00    +0.000 C 
ENDBRANCH  11  13
ENDBRANCH  10  11
ENDBRANCH   8  10
ENDBRANCH   6   8
ENDBRANCH   1   6
BRANCH   3  14
ATOM     14  O   UNL     1       5.264   4.105  13.806  0.00  0.00    +0.000 OA
ATOM     15  H   UNL     1       5.138   3.219  13.420  0.00  0.00    +0.000 HD
ENDBRANCH   3  14
BRANCH   4  16
ATOM     16  O   UNL     1       7.873   5.490  14.808  0.00  0.00    +0.000 OA
ATOM     17  H   UNL     1       8.052   6.447  14.808  0.00  0.00    +0.000 HD
ENDBRANCH   4  16
BRANCH   5  18
ATOM     18  C   UNL     1       7.326   6.344  17.636  0.00  0.00    +0.000 C 
BRANCH  18  19
ATOM     19  O   UNL     1       7.078   7.494  16.834  0.00  0.00    +0.000 OA
ATOM     20  H   UNL     1       6.118   7.520  16.658  0.00  0.00    +0.000 HD
ENDBRANCH  18  19
ENDBRANCH   5  18
TORSDOF 9
ENDMDL
MODEL 3
REMARK VINA RESULT:      -5.8      1.826      2.266
REMARK  Name = 
REMARK  10 active torsions:
REMARK  status: ('A' for Active; 'I' for Inactive)
REMARK    1  A    between atoms: C_1  and  C_2
REMARK    2  A    between atoms: C_2  and  C_3
REMARK    3  A    between atoms: C_3  and  C_4
REMARK    4  A    between atoms: C_4  and  N_5
REMARK    5  A    between atoms: N_5  and  C_6
REMARK    6  A    between atoms: C_6  and  N_8
REMARK    7  A    between atoms: C_10  and  O_11
REMARK    8  A    between atoms: C_12  and  O_13
REMARK    9  A    between atoms: C_14  and  C_15
REMARK   10  A    between atoms: C_15  and  O_16
REMARK                            x       y       z     vdW  Elec       q    Type
REMARK                         _______ _______ _______ _____ _____    ______ ____
ROOT
ATOM      1  N   UNL     1       4.351   5.799  17.882  0.00  0.00    +0.000 N 
ATOM      2  C   UNL     1       5.279   6.683  17.153  0.00  0.00    +0.000 C 
ATOM      3  C   UNL     1       6.069   5.792  16.194  0.00  0.00    +0.000 C 
ATOM      4  C   UNL     1       5.885   4.397  16.800  0.00  0.00    +0.000 C 
ATOM      5  C   UNL     1       4.428   4.442  17.282  0.00  0.00    +0.000 C 
ENDROOT
BRANCH   1   6
ATOM      6  C   UNL     1       3.384   6.325  18.734  0.00  0.00    +0.000 C 
ATOM      7  S   UNL     1       2.409   7.639  18.326  0.00  0.00    +0.000 S 
BRANCH   6   8
ATOM      8  N   UNL     1       3.286   5.681  19.947  0.00  0.00    +0.000 N 
ATOM      9  H   UNL     1       3.914   6.094  20.629  0.00  0.00    +0.000 HD
BRANCH   8  10
ATOM     10  C   UNL     1       2.040   5.195  20.529  0.00  0.00    +0.000 C 
BRANCH  10  11
ATOM     11  C   UNL     1       2.270   4.000  21.449  0.00  0.00    +0.000 C 
BRANCH  11  13
ATOM     12  C   UNL     1       0.757   3.079  19.641  0.00  0.00    +0.000 C 
ATOM     13  C   UNL     1       1.485   2.788  20.941  0.00  0.00    +0.000 C 
ENDBRANCH  11  13
ENDBRANCH  10  11
ENDBRANCH   8  10
ENDBRANCH   6   8
ENDBRANCH   1   6
BRANCH   3  14
ATOM     14  O   UNL     1       7.440   6.153  16.099  0.00  0.00    +0.000 OA
ATOM     15  H   UNL     1       7.974   5.338  16.088  0.00  0.00    +0.000 HD
ENDBRANCH   3  14
BRANCH   4  16
ATOM     16  O   UNL     1       6.127   3.331  15.894  0.00  0.00    +0.000 OA
ATOM     17  H   UNL     1       5.655   2.539  16.207  0.00  0.00    +0.000 HD
ENDBRANCH   4  16
BRANCH   5  18
ATOM     18  C   UNL     1       4.106   3.191  18.113  0.00  0.00    +0.000 C 
BRANCH  18  19
ATOM     19  O   UNL     1       4.994   3.025  19.213  0.00  0.00    +0.000 OA
ATOM     20  H   UNL     1       5.580   3.806  19.231  0.00  0.00    +0.000 HD
ENDBRANCH  18  19
ENDBRANCH   5  18
TORSDOF 9
ENDMDL
MODEL 4
REMARK VINA RESULT:      -5.8      3.266      5.634
REMARK  Name = 
REMARK  10 active torsions:
REMARK  status: ('A' for Active; 'I' for Inactive)
REMARK    1  A    between atoms: C_1  and  C_2
REMARK    2  A    between atoms: C_2  and  C_3
REMARK    3  A    between atoms: C_3  and  C_4
REMARK    4  A    between atoms: C_4  and  N_5
REMARK    5  A    between atoms: N_5  and  C_6
REMARK    6  A    between atoms: C_6  and  N_8
REMARK    7  A    between atoms: C_10  and  O_11
REMARK    8  A    between atoms: C_12  and  O_13
REMARK    9  A    between atoms: C_14  and  C_15
REMARK   10  A    between atoms: C_15  and  O_16
REMARK                            x       y       z     vdW  Elec       q    Type
REMARK                         _______ _______ _______ _____ _____    ______ ____
ROOT
ATOM      1  N   UNL     1       4.066   3.791  17.900  0.00  0.00    +0.000 N 
ATOM      2  C   UNL     1       3.526   2.438  17.678  0.00  0.00    +0.000 C 
ATOM      3  C   UNL     1       2.126   2.420  18.294  0.00  0.00    +0.000 C 
ATOM      4  C   UNL     1       2.167   3.609  19.259  0.00  0.00    +0.000 C 
ATOM      5  C   UNL     1       2.988   4.640  18.470  0.00  0.00    +0.000 C 
ENDROOT
BRANCH   1   6
ATOM      6  C   UNL     1       5.275   4.181  17.329  0.00  0.00    +0.000 C 
ATOM      7  S   UNL     1       5.434   4.607  15.704  0.00  0.00    +0.000 S 
BRANCH   6   8
ATOM      8  N   UNL     1       6.338   4.191  18.202  0.00  0.00    +0.000 N 
ATOM      9  H   UNL     1       6.409   3.308  18.698  0.00  0.00    +0.000 HD
BRANCH   8  10
ATOM     10  C   UNL     1       7.632   4.803  17.925  0.00  0.00    +0.000 C 
BRANCH  10  11
ATOM     11  C   UNL     1       7.758   6.182  18.565  0.00  0.00    +0.000 C 
BRANCH  11  13
ATOM     12  C   UNL     1       8.111   8.605  17.924  0.00  0.00    +0.000 C 
ATOM     13  C   UNL     1       7.513   7.270  17.517  0.00  0.00    +0.000 C 
ENDBRANCH  11  13
ENDBRANCH  10  11
ENDBRANCH   8  10
ENDBRANCH   6   8
ENDBRANCH   1   6
BRANCH   3  14
ATOM     14  O   UNL     1       1.828   1.203  18.964  0.00  0.00    +0.000 OA
ATOM     15  H   UNL     1       2.230   1.232  19.851  0.00  0.00    +0.000 HD
ENDBRANCH   3  14
BRANCH   4  16
ATOM     16  O   UNL     1       0.888   4.101  19.633  0.00  0.00    +0.000 OA
ATOM     17  H   UNL     1       0.552   3.571  20.377  0.00  0.00    +0.000 HD
ENDBRANCH   4  16
BRANCH   5  18
ATOM     18  C   UNL     1       3.318   5.846  19.361  0.00  0.00    +0.000 C 
BRANCH  18  19
ATOM     19  O   UNL     1       2.902   5.658  20.709  0.00  0.00    +0.000 OA
ATOM     20  H   UNL     1       2.306   4.885  20.721  0.00  0.00    +0.000 HD
ENDBRANCH  18  19
ENDBRANCH   5  18
TORSDOF 9
ENDMDL
MODEL 5
REMARK VINA RESULT:      -5.7      3.568      5.928
REMARK  Name = 
REMARK  10 active torsions:
REMARK  status: ('A' for Active; 'I' for Inactive)
REMARK    1  A    between atoms: C_1  and  C_2
REMARK    2  A    between atoms: C_2  and  C_3
REMARK    3  A    between atoms: C_3  and  C_4
REMARK    4  A    between atoms: C_4  and  N_5
REMARK    5  A    between atoms: N_5  and  C_6
REMARK    6  A    between atoms: C_6  and  N_8
REMARK    7  A    between atoms: C_10  and  O_11
REMARK    8  A    between atoms: C_12  and  O_13
REMARK    9  A    between atoms: C_14  and  C_15
REMARK   10  A    between atoms: C_15  and  O_16
REMARK                            x       y       z     vdW  Elec       q    Type
REMARK                         _______ _______ _______ _____ _____    ______ ____
ROOT
ATOM      1  N   UNL     1       3.844   4.348  18.724  0.00  0.00    +0.000 N 
ATOM      2  C   UNL     1       3.740   5.477  19.666  0.00  0.00    +0.000 C 
ATOM      3  C   UNL     1       2.512   5.208  20.537  0.00  0.00    +0.000 C 
ATOM      4  C   UNL     1       1.719   4.199  19.700  0.00  0.00    +0.000 C 
ATOM      5  C   UNL     1       2.834   3.327  19.103  0.00  0.00    +0.000 C 
ENDROOT
BRANCH   1   6
ATOM      6  C   UNL     1       4.947   4.217  17.884  0.00  0.00    +0.000 C 
ATOM      7  S   UNL     1       4.834   4.246  16.202  0.00  0.00    +0.000 S 
BRANCH   6   8
ATOM      8  N   UNL     1       6.145   4.061  18.542  0.00  0.00    +0.000 N 
ATOM      9  H   UNL     1       6.250   3.111  18.885  0.00  0.00    +0.000 HD
BRANCH   8  10
ATOM     10  C   UNL     1       7.405   4.665  18.123  0.00  0.00    +0.000 C 
BRANCH  10  11
ATOM     11  C   UNL     1       7.939   5.645  19.163  0.00  0.00    +0.000 C 
BRANCH  11  13
ATOM     12  C   UNL     1       7.372   7.129  17.193  0.00  0.00    +0.000 C 
ATOM     13  C   UNL     1       8.004   7.055  18.571  0.00  0.00    +0.000 C 
ENDBRANCH  11  13
ENDBRANCH  10  11
ENDBRANCH   8  10
ENDBRANCH   6   8
ENDBRANCH   1   6
BRANCH   3  14
ATOM     14  O   UNL     1       1.756   6.380  20.811  0.00  0.00    +0.000 OA
ATOM     15  H   UNL     1       0.866   6.269  20.431  0.00  0.00    +0.000 HD
ENDBRANCH   3  14
BRANCH   4  16
ATOM     16  O   UNL     1       0.773   3.442  20.442  0.00  0.00    +0.000 OA
ATOM     17  H   UNL     1       1.036   3.442  21.379  0.00  0.00    +0.000 HD
ENDBRANCH   4  16
BRANCH   5  18
ATOM     18  C   UNL     1       2.250   2.366  18.056  0.00  0.00    +0.000 C 
BRANCH  18  19
ATOM     19  O   UNL     1       1.228   1.533  18.593  0.00  0.00    +0.000 OA
ATOM     20  H   UNL     1       1.215   1.678  19.558  0.00  0.00    +0.000 HD
ENDBRANCH  18  19
ENDBRANCH   5  18
TORSDOF 9
ENDMDL
MODEL 6
REMARK VINA RESULT:      -5.7      1.688      2.937
REMARK  Name = 
REMARK  10 active torsions:
REMARK  status: ('A' for Active; 'I' for Inactive)
REMARK    1  A    between atoms: C_1  and  C_2
REMARK    2  A    between atoms: C_2  and  C_3
REMARK    3  A    between atoms: C_3  and  C_4
REMARK    4  A    between atoms: C_4  and  N_5
REMARK    5  A    between atoms: N_5  and  C_6
REMARK    6  A    between atoms: C_6  and  N_8
REMARK    7  A    between atoms: C_10  and  O_11
REMARK    8  A    between atoms: C_12  and  O_13
REMARK    9  A    between atoms: C_14  and  C_15
REMARK   10  A    between atoms: C_15  and  O_16
REMARK                            x       y       z     vdW  Elec       q    Type
REMARK                         _______ _______ _______ _____ _____    ______ ____
ROOT
ATOM      1  N   UNL     1       4.937   4.121  18.051  0.00  0.00    +0.000 N 
ATOM      2  C   UNL     1       5.371   4.586  19.381  0.00  0.00    +0.000 C 
ATOM      3  C   UNL     1       6.527   5.559  19.147  0.00  0.00    +0.000 C 
ATOM      4  C   UNL     1       6.994   5.196  17.734  0.00  0.00    +0.000 C 
ATOM      5  C   UNL     1       5.667   4.902  17.019  0.00  0.00    +0.000 C 
ENDROOT
BRANCH   1   6
ATOM      6  C   UNL     1       3.800   3.330  17.905  0.00  0.00    +0.000 C 
ATOM      7  S   UNL     1       3.775   1.679  18.247  0.00  0.00    +0.000 S 
BRANCH   6   8
ATOM      8  N   UNL     1       2.691   4.009  17.457  0.00  0.00    +0.000 N 
ATOM      9  H   UNL     1       2.605   3.939  16.448  0.00  0.00    +0.000 HD
BRANCH   8  10
ATOM     10  C   UNL     1       1.404   4.039  18.144  0.00  0.00    +0.000 C 
BRANCH  10  11
ATOM     11  C   UNL     1       1.549   4.457  19.604  0.00  0.00    +0.000 C 
BRANCH  11  13
ATOM     12  C   UNL     1       2.121   2.983  21.580  0.00  0.00    +0.000 C 
ATOM     13  C   UNL     1       1.086   3.324  20.522  0.00  0.00    +0.000 C 
ENDBRANCH  11  13
ENDBRANCH  10  11
ENDBRANCH   8  10
ENDBRANCH   6   8
ENDBRANCH   1   6
BRANCH   3  14
ATOM     14  O   UNL     1       7.571   5.423  20.102  0.00  0.00    +0.000 OA
ATOM     15  H   UNL     1       8.371   5.851  19.748  0.00  0.00    +0.000 HD
ENDBRANCH   3  14
BRANCH   4  16
ATOM     16  O   UNL     1       7.747   6.214  17.090  0.00  0.00    +0.000 OA
ATOM     17  H   UNL     1       7.984   6.893  17.746  0.00  0.00    +0.000 HD
ENDBRANCH   4  16
BRANCH   5  18
ATOM     18  C   UNL     1       5.935   4.316  15.626  0.00  0.00    +0.000 C 
BRANCH  18  19
ATOM     19  O   UNL     1       6.449   5.285  14.717  0.00  0.00    +0.000 OA
ATOM     20  H   UNL     1       7.212   5.711  15.152  0.00  0.00    +0.000 HD
ENDBRANCH  18  19
ENDBRANCH   5  18
TORSDOF 9
ENDMDL
MODEL 7
REMARK VINA RESULT:      -5.7      3.174      5.885
REMARK  Name = 
REMARK  10 active torsions:
REMARK  status: ('A' for Active; 'I' for Inactive)
REMARK    1  A    between atoms: C_1  and  C_2
REMARK    2  A    between atoms: C_2  and  C_3
REMARK    3  A    between atoms: C_3  and  C_4
REMARK    4  A    between atoms: C_4  and  N_5
REMARK    5  A    between atoms: N_5  and  C_6
REMARK    6  A    between atoms: C_6  and  N_8
REMARK    7  A    between atoms: C_10  and  O_11
REMARK    8  A    between atoms: C_12  and  O_13
REMARK    9  A    between atoms: C_14  and  C_15
REMARK   10  A    between atoms: C_15  and  O_16
REMARK                            x       y       z     vdW  Elec       q    Type
REMARK                         _______ _______ _______ _____ _____    ______ ____
ROOT
ATOM      1  N   UNL     1       3.995   3.748  18.828  0.00  0.00    +0.000 N 
ATOM      2  C   UNL     1       4.119   2.704  19.861  0.00  0.00    +0.000 C 
ATOM      3  C   UNL     1       2.751   2.592  20.535  0.00  0.00    +0.000 C 
ATOM      4  C   UNL     1       2.087   3.925  20.176  0.00  0.00    +0.000 C 
ATOM      5  C   UNL     1       2.568   4.149  18.734  0.00  0.00    +0.000 C 
ENDROOT
BRANCH   1   6
ATOM      6  C   UNL     1       5.032   3.994  17.932  0.00  0.00    +0.000 C 
ATOM      7  S   UNL     1       4.789   4.231  16.280  0.00  0.00    +0.000 S 
BRANCH   6   8
ATOM      8  N   UNL     1       6.282   4.027  18.507  0.00  0.00    +0.000 N 
ATOM      9  H   UNL     1       6.509   3.135  18.935  0.00  0.00    +0.000 HD
BRANCH   8  10
ATOM     10  C   UNL     1       7.440   4.701  17.932  0.00  0.00    +0.000 C 
BRANCH  10  11
ATOM     11  C   UNL     1       7.608   6.114  18.484  0.00  0.00    +0.000 C 
BRANCH  11  13
ATOM     12  C   UNL     1       7.857   8.521  17.744  0.00  0.00    +0.000 C 
ATOM     13  C   UNL     1       7.331   7.142  17.386  0.00  0.00    +0.000 C 
ENDBRANCH  11  13
ENDBRANCH  10  11
ENDBRANCH   8  10
ENDBRANCH   6   8
ENDBRANCH   1   6
BRANCH   3  14
ATOM     14  O   UNL     1       2.836   2.404  21.941  0.00  0.00    +0.000 OA
ATOM     15  H   UNL     1       2.852   3.279  22.369  0.00  0.00    +0.000 HD
ENDBRANCH   3  14
BRANCH   4  16
ATOM     16  O   UNL     1       0.671   3.920  20.284  0.00  0.00    +0.000 OA
ATOM     17  H   UNL     1       0.363   4.833  20.423  0.00  0.00    +0.000 HD
ENDBRANCH   4  16
BRANCH   5  18
ATOM     18  C   UNL     1       2.170   5.553  18.256  0.00  0.00    +0.000 C 
BRANCH  18  19
ATOM     19  O   UNL     1       2.859   6.582  18.956  0.00  0.00    +0.000 OA
ATOM     20  H   UNL     1       3.480   6.146  19.571  0.00  0.00    +0.000 HD
ENDBRANCH  18  19
ENDBRANCH   5  18
TORSDOF 9
ENDMDL
MODEL 8
REMARK VINA RESULT:      -5.7      1.241      1.610
REMARK  Name = 
REMARK  10 active torsions:
REMARK  status: ('A' for Active; 'I' for Inactive)
REMARK    1  A    between atoms: C_1  and  C_2
REMARK    2  A    between atoms: C_2  and  C_3
REMARK    3  A    between atoms: C_3  and  C_4
REMARK    4  A    between atoms: C_4  and  N_5
REMARK    5  A    between atoms: N_5  and  C_6
REMARK    6  A    between atoms: C_6  and  N_8
REMARK    7  A    between atoms: C_10  and  O_11
REMARK    8  A    between atoms: C_12  and  O_13
REMARK    9  A    between atoms: C_14  and  C_15
REMARK   10  A    between atoms: C_15  and  O_16
REMARK                            x       y       z     vdW  Elec       q    Type
REMARK                         _______ _______ _______ _____ _____    ______ ____
ROOT
ATOM      1  N   UNL     1       4.829   5.131  17.999  0.00  0.00    +0.000 N 
ATOM      2  C   UNL     1       4.597   4.489  16.693  0.00  0.00    +0.000 C 
ATOM      3  C   UNL     1       5.941   3.913  16.244  0.00  0.00    +0.000 C 
ATOM      4  C   UNL     1       6.945   4.699  17.091  0.00  0.00    +0.000 C 
ATOM      5  C   UNL     1       6.214   4.817  18.437  0.00  0.00    +0.000 C 
ENDROOT
BRANCH   1   6
ATOM      6  C   UNL     1       3.768   5.630  18.749  0.00  0.00    +0.000 C 
ATOM      7  S   UNL     1       2.877   6.990  18.299  0.00  0.00    +0.000 S 
BRANCH   6   8
ATOM      8  N   UNL     1       3.502   4.920  19.897  0.00  0.00    +0.000 N 
ATOM      9  H   UNL     1       4.330   4.846  20.480  0.00  0.00    +0.000 HD
BRANCH   8  10
ATOM     10  C   UNL     1       2.265   5.018  20.665  0.00  0.00    +0.000 C 
BRANCH  10  11
ATOM     11  C   UNL     1       1.682   3.645  20.983  0.00  0.00    +0.000 C 
BRANCH  11  13
ATOM     12  C   UNL     1       1.441   2.170  18.940  0.00  0.00    +0.000 C 
ATOM     13  C   UNL     1       0.768   3.187  19.845  0.00  0.00    +0.000 C 
ENDBRANCH  11  13
ENDBRANCH  10  11
ENDBRANCH   8  10
ENDBRANCH   6   8
ENDBRANCH   1   6
BRANCH   3  14
ATOM     14  O   UNL     1       6.179   4.073  14.853  0.00  0.00    +0.000 OA
ATOM     15  H   UNL     1       5.627   3.432  14.369  0.00  0.00    +0.000 HD
ENDBRANCH   3  14
BRANCH   4  16
ATOM     16  O   UNL     1       8.217   4.078  17.215  0.00  0.00    +0.000 OA
ATOM     17  H   UNL     1       8.895   4.769  17.315  0.00  0.00    +0.000 HD
ENDBRANCH   4  16
BRANCH   5  18
ATOM     18  C   UNL     1       6.980   5.761  19.375  0.00  0.00    +0.000 C 
BRANCH  18  19
ATOM     19  O   UNL     1       8.229   5.219  19.791  0.00  0.00    +0.000 OA
ATOM     20  H   UNL     1       8.488   5.687  20.608  0.00  0.00    +0.000 HD
ENDBRANCH  18  19
ENDBRANCH   5  18
TORSDOF 9
ENDMDL
MODEL 9
REMARK VINA RESULT:      -5.7      1.560      1.700
REMARK  Name = 
REMARK  10 active torsions:
REMARK  status: ('A' for Active; 'I' for Inactive)
REMARK    1  A    between atoms: C_1  and  C_2
REMARK    2  A    between atoms: C_2  and  C_3
REMARK    3  A    between atoms: C_3  and  C_4
REMARK    4  A    between atoms: C_4  and  N_5
REMARK    5  A    between atoms: N_5  and  C_6
REMARK    6  A    between atoms: C_6  and  N_8
REMARK    7  A    between atoms: C_10  and  O_11
REMARK    8  A    between atoms: C_12  and  O_13
REMARK    9  A    between atoms: C_14  and  C_15
REMARK   10  A    between atoms: C_15  and  O_16
REMARK                            x       y       z     vdW  Elec       q    Type
REMARK                         _______ _______ _______ _____ _____    ______ ____
ROOT
ATOM      1  N   UNL     1       4.730   3.990  17.169  0.00  0.00    +0.000 N 
ATOM      2  C   UNL     1       5.089   3.962  15.739  0.00  0.00    +0.000 C 
ATOM      3  C   UNL     1       6.468   4.612  15.623  0.00  0.00    +0.000 C 
ATOM      4  C   UNL     1       6.577   5.411  16.925  0.00  0.00    +0.000 C 
ATOM      5  C   UNL     1       5.906   4.472  17.938  0.00  0.00    +0.000 C 
ENDROOT
BRANCH   1   6
ATOM      6  C   UNL     1       3.589   3.341  17.632  0.00  0.00    +0.000 C 
ATOM      7  S   UNL     1       3.610   1.783  18.277  0.00  0.00    +0.000 S 
BRANCH   6   8
ATOM      8  N   UNL     1       2.433   4.079  17.521  0.00  0.00    +0.000 N 
ATOM      9  H   UNL     1       1.642   3.485  17.292  0.00  0.00    +0.000 HD
BRANCH   8  10
ATOM     10  C   UNL     1       2.080   5.201  18.383  0.00  0.00    +0.000 C 
BRANCH  10  11
ATOM     11  C   UNL     1       2.132   4.822  19.860  0.00  0.00    +0.000 C 
BRANCH  11  13
ATOM     12  C   UNL     1       1.335   2.858  21.242  0.00  0.00    +0.000 C 
ATOM     13  C   UNL     1       0.959   3.903  20.208  0.00  0.00    +0.000 C 
ENDBRANCH  11  13
ENDBRANCH  10  11
ENDBRANCH   8  10
ENDBRANCH   6   8
ENDBRANCH   1   6
BRANCH   3  14
ATOM     14  O   UNL     1       6.597   5.444  14.477  0.00  0.00    +0.000 OA
ATOM     15  H   UNL     1       6.944   4.906  13.743  0.00  0.00    +0.000 HD
ENDBRANCH   3  14
BRANCH   4  16
ATOM     16  O   UNL     1       7.907   5.749  17.292  0.00  0.00    +0.000 OA
ATOM     17  H   UNL     1       7.880   6.305  18.091  0.00  0.00    +0.000 HD
ENDBRANCH   4  16
BRANCH   5  18
ATOM     18  C   UNL     1       5.731   5.187  19.286  0.00  0.00    +0.000 C 
BRANCH  18  19
ATOM     19  O   UNL     1       6.965   5.364  19.973  0.00  0.00    +0.000 OA
ATOM     20  H   UNL     1       7.131   4.549  20.483  0.00  0.00    +0.000 HD
ENDBRANCH  18  19
ENDBRANCH   5  18
TORSDOF 9
ENDMDL
