MODEL 1
REMARK VINA RESULT:      -8.0      0.000      0.000
REMARK  Name = 
REMARK  6 active torsions:
REMARK  status: ('A' for Active; 'I' for Inactive)
REMARK    1  A    between atoms: C_2  and  C_3
REMARK    2  A    between atoms: C_3  and  N_4
REMARK    3  A    between atoms: N_7  and  C_8
REMARK    4  A    between atoms: C_8  and  C_9
REMARK    5  A    between atoms: C_9  and  O_10
REMARK    6  A    between atoms: C_9  and  C_11
REMARK                            x       y       z     vdW  Elec       q    Type
REMARK                         _______ _______ _______ _____ _____    ______ ____
ROOT
ATOM      1  N   UNL     1       6.904   5.544  17.695  0.00  0.00    +0.000 N 
ATOM      2  C   UNL     1       5.946   4.878  18.400  0.00  0.00    +0.000 A 
ATOM      3  N   UNL     1       5.769   4.994  19.667  0.00  0.00    +0.000 NA
ATOM      4  N   UNL     1       5.186   4.065  17.614  0.00  0.00    +0.000 N 
ATOM      5  C   UNL     1       5.706   4.221  16.373  0.00  0.00    +0.000 A 
ATOM      6  C   UNL     1       5.319   3.622  15.169  0.00  0.00    +0.000 A 
ATOM      7  C   UNL     1       6.040   3.955  14.006  0.00  0.00    +0.000 A 
ATOM      8  C   UNL     1       7.117   4.866  14.067  0.00  0.00    +0.000 A 
ATOM      9  C   UNL     1       7.482   5.461  15.287  0.00  0.00    +0.000 A 
ATOM     10  C   UNL     1       6.747   5.115  16.426  0.00  0.00    +0.000 A 
ATOM     11  H   UNL     1       6.353   5.607  20.252  0.00  0.00    +0.000 HD
ENDROOT
BRANCH   1  12
ATOM     12  C   UNL     1       7.880   6.532  18.180  0.00  0.00    +0.000 C 
BRANCH  12  14
ATOM     13  C   UNL     1       8.285   8.960  18.056  0.00  0.00    +0.000 C 
ATOM     14  C   UNL     1       7.610   7.896  17.610  0.00  0.00    +0.000 C 
ENDBRANCH  12  14
ENDBRANCH   1  12
BRANCH   4  15
ATOM     15  C   UNL     1       4.066   3.197  18.021  0.00  0.00    +0.000 C 
BRANCH  15  16
ATOM     16  C   UNL     1       2.691   3.826  17.691  0.00  0.00    +0.000 C 
BRANCH  16  17
ATOM     17  C   UNL     1       2.391   5.039  18.562  0.00  0.00    +0.000 A 
ATOM     18  C   UNL     1       2.015   4.887  19.910  0.00  0.00    +0.000 A 
ATOM     19  C   UNL     1       1.726   6.003  20.700  0.00  0.00    +0.000 A 
ATOM     20  C   UNL     1       1.802   7.289  20.158  0.00  0.00    +0.000 A 
ATOM     21 CL   UNL     1       1.420   8.667  21.184  0.00  0.00    +0.000 Cl
ATOM     22  C   UNL     1       2.175   7.458  18.815  0.00  0.00    +0.000 A 
ATOM     23 CL   UNL     1       2.273   9.060  18.097  0.00  0.00    +0.000 Cl
ATOM     24  C   UNL     1       2.469   6.339  18.025  0.00  0.00    +0.000 A 
ENDBRANCH  16  17
BRANCH  16  25
ATOM     25  O   UNL     1       1.661   2.874  17.808  0.00  0.00    +0.000 OA
ATOM     26  H   UNL     1       1.959   2.173  18.445  0.00  0.00    +0.000 HD
ENDBRANCH  16  25
ENDBRANCH  15  16
ENDBRANCH   4  15
TORSDOF 6
ENDMDL
MODEL 2
REMARK VINA RESULT:      -7.3      2.751      5.906
REMARK  Name = 
REMARK  6 active torsions:
REMARK  status: ('A' for Active; 'I' for Inactive)
REMARK    1  A    between atoms: C_2  and  C_3
REMARK    2  A    between atoms: C_3  and  N_4
REMARK    3  A    between atoms: N_7  and  C_8
REMARK    4  A    between atoms: C_8  and  C_9
REMARK    5  A    between atoms: C_9  and  O_10
REMARK    6  A    between atoms: C_9  and  C_11
REMARK                            x       y       z     vdW  Elec       q    Type
REMARK                         _______ _______ _______ _____ _____    ______ ____
ROOT
ATOM      1  N   UNL     1       3.062   3.827  19.713  0.00  0.00    +0.000 N 
ATOM      2  C   UNL     1       3.585   3.268  18.584  0.00  0.00    +0.000 A 
ATOM      3  N   UNL     1       3.922   2.033  18.479  0.00  0.00    +0.000 NA
ATOM      4  N   UNL     1       3.718   4.165  17.568  0.00  0.00    +0.000 N 
ATOM      5  C   UNL     1       3.274   5.332  18.093  0.00  0.00    +0.000 A 
ATOM      6  C   UNL     1       3.186   6.595  17.496  0.00  0.00    +0.000 A 
ATOM      7  C   UNL     1       2.690   7.658  18.275  0.00  0.00    +0.000 A 
ATOM      8  C   UNL     1       2.296   7.443  19.613  0.00  0.00    +0.000 A 
ATOM      9  C   UNL     1       2.386   6.164  20.188  0.00  0.00    +0.000 A 
ATOM     10  C   UNL     1       2.880   5.125  19.392  0.00  0.00    +0.000 A 
ATOM     11  H   UNL     1       3.822   1.366  19.257  0.00  0.00    +0.000 HD
ENDROOT
BRANCH   1  12
ATOM     12  C   UNL     1       2.734   3.179  20.991  0.00  0.00    +0.000 C 
BRANCH  12  14
ATOM     13  C   UNL     1       0.509   2.808  19.999  0.00  0.00    +0.000 C 
ATOM     14  C   UNL     1       1.264   2.888  21.099  0.00  0.00    +0.000 C 
ENDBRANCH  12  14
ENDBRANCH   1  12
BRANCH   4  15
ATOM     15  C   UNL     1       4.243   3.928  16.210  0.00  0.00    +0.000 C 
BRANCH  15  16
ATOM     16  C   UNL     1       5.782   3.770  16.200  0.00  0.00    +0.000 C 
BRANCH  16  17
ATOM     17  C   UNL     1       6.484   4.947  16.864  0.00  0.00    +0.000 A 
ATOM     18  C   UNL     1       6.567   6.197  16.220  0.00  0.00    +0.000 A 
ATOM     19  C   UNL     1       7.226   7.269  16.828  0.00  0.00    +0.000 A 
ATOM     20  C   UNL     1       7.818   7.113  18.085  0.00  0.00    +0.000 A 
ATOM     21 CL   UNL     1       8.647   8.484  18.811  0.00  0.00    +0.000 Cl
ATOM     22  C   UNL     1       7.745   5.873  18.739  0.00  0.00    +0.000 A 
ATOM     23 CL   UNL     1       8.484   5.637  20.317  0.00  0.00    +0.000 Cl
ATOM     24  C   UNL     1       7.080   4.800  18.132  0.00  0.00    +0.000 A 
ENDBRANCH  16  17
BRANCH  16  25
ATOM     25  O   UNL     1       6.261   3.592  14.888  0.00  0.00    +0.000 OA
ATOM     26  H   UNL     1       6.356   4.487  14.470  0.00  0.00    +0.000 HD
ENDBRANCH  16  25
ENDBRANCH  15  16
ENDBRANCH   4  15
TORSDOF 6
ENDMDL
MODEL 3
REMARK VINA RESULT:      -7.2      2.633      4.534
REMARK  Name = 
REMARK  6 active torsions:
REMARK  status: ('A' for Active; 'I' for Inactive)
REMARK    1  A    between atoms: C_2  and  C_3
REMARK    2  A    between atoms: C_3  and  N_4
REMARK    3  A    between atoms: N_7  and  C_8
REMARK    4  A    between atoms: C_8  and  C_9
REMARK    5  A    between atoms: C_9  and  O_10
REMARK    6  A    between atoms: C_9  and  C_11
REMARK                            x       y       z     vdW  Elec       q    Type
REMARK                         _______ _______ _______ _____ _____    ______ ____
ROOT
ATOM      1  N   UNL     1       4.866   5.079  18.099  0.00  0.00    +0.000 N 
ATOM      2  C   UNL     1       4.152   6.138  17.619  0.00  0.00    +0.000 A 
ATOM      3  N   UNL     1       4.615   7.005  16.793  0.00  0.00    +0.000 NA
ATOM      4  N   UNL     1       2.884   6.182  18.114  0.00  0.00    +0.000 N 
ATOM      5  C   UNL     1       2.813   5.117  18.947  0.00  0.00    +0.000 A 
ATOM      6  C   UNL     1       1.741   4.676  19.732  0.00  0.00    +0.000 A 
ATOM      7  C   UNL     1       1.934   3.529  20.526  0.00  0.00    +0.000 A 
ATOM      8  C   UNL     1       3.174   2.856  20.521  0.00  0.00    +0.000 A 
ATOM      9  C   UNL     1       4.234   3.313  19.719  0.00  0.00    +0.000 A 
ATOM     10  C   UNL     1       4.015   4.452  18.938  0.00  0.00    +0.000 A 
ATOM     11  H   UNL     1       5.577   6.963  16.431  0.00  0.00    +0.000 HD
ENDROOT
BRANCH   1  12
ATOM     12  C   UNL     1       6.240   4.673  17.770  0.00  0.00    +0.000 C 
BRANCH  12  14
ATOM     13  C   UNL     1       7.782   6.465  18.466  0.00  0.00    +0.000 C 
ATOM     14  C   UNL     1       7.234   5.273  18.723  0.00  0.00    +0.000 C 
ENDBRANCH  12  14
ENDBRANCH   1  12
BRANCH   4  15
ATOM     15  C   UNL     1       1.832   7.175  17.825  0.00  0.00    +0.000 C 
BRANCH  15  16
ATOM     16  C   UNL     1       2.219   8.593  18.308  0.00  0.00    +0.000 C 
BRANCH  16  17
ATOM     17  C   UNL     1       1.421   9.020  19.533  0.00  0.00    +0.000 A 
ATOM     18  C   UNL     1       1.470   8.272  20.725  0.00  0.00    +0.000 A 
ATOM     19  C   UNL     1       0.723   8.660  21.841  0.00  0.00    +0.000 A 
ATOM     20  C   UNL     1      -0.089   9.796  21.786  0.00  0.00    +0.000 A 
ATOM     21 CL   UNL     1      -1.021  10.245  23.209  0.00  0.00    +0.000 Cl
ATOM     22  C   UNL     1      -0.149  10.553  20.605  0.00  0.00    +0.000 A 
ATOM     23 CL   UNL     1      -1.166  11.984  20.496  0.00  0.00    +0.000 Cl
ATOM     24  C   UNL     1       0.604  10.166  19.488  0.00  0.00    +0.000 A 
ENDBRANCH  16  17
BRANCH  16  25
ATOM     25  O   UNL     1       2.068   9.535  17.274  0.00  0.00    +0.000 OA
ATOM     26  H   UNL     1       1.180   9.967  17.376  0.00  0.00    +0.000 HD
ENDBRANCH  16  25
ENDBRANCH  15  16
ENDBRANCH   4  15
TORSDOF 6
ENDMDL
MODEL 4
REMARK VINA RESULT:      -7.0      2.668      4.708
REMARK  Name = 
REMARK  6 active torsions:
REMARK  status: ('A' for Active; 'I' for Inactive)
REMARK    1  A    between atoms: C_2  and  C_3
REMARK    2  A    between atoms: C_3  and  N_4
REMARK    3  A    between atoms: N_7  and  C_8
REMARK    4  A    between atoms: C_8  and  C_9
REMARK    5  A    between atoms: C_9  and  O_10
REMARK    6  A    between atoms: C_9  and  C_11
REMARK                            x       y       z     vdW  Elec       q    Type
REMARK                         _______ _______ _______ _____ _____    ______ ____
ROOT
ATOM      1  N   UNL     1       4.796   5.099  17.874  0.00  0.00    +0.000 N 
ATOM      2  C   UNL     1       4.050   6.172  17.486  0.00  0.00    +0.000 A 
ATOM      3  N   UNL     1       4.450   7.069  16.657  0.00  0.00    +0.000 NA
ATOM      4  N   UNL     1       2.822   6.197  18.075  0.00  0.00    +0.000 N 
ATOM      5  C   UNL     1       2.812   5.104  18.873  0.00  0.00    +0.000 A 
ATOM      6  C   UNL     1       1.801   4.634  19.720  0.00  0.00    +0.000 A 
ATOM      7  C   UNL     1       2.052   3.461  20.457  0.00  0.00    +0.000 A 
ATOM      8  C   UNL     1       3.288   2.790  20.336  0.00  0.00    +0.000 A 
ATOM      9  C   UNL     1       4.285   3.276  19.474  0.00  0.00    +0.000 A 
ATOM     10  C   UNL     1       4.009   4.442  18.752  0.00  0.00    +0.000 A 
ATOM     11  H   UNL     1       5.382   7.041  16.224  0.00  0.00    +0.000 HD
ENDROOT
BRANCH   1  12
ATOM     12  C   UNL     1       6.141   4.707  17.429  0.00  0.00    +0.000 C 
BRANCH  12  14
ATOM     13  C   UNL     1       6.511   4.504  15.001  0.00  0.00    +0.000 C 
ATOM     14  C   UNL     1       6.093   3.940  16.138  0.00  0.00    +0.000 C 
ENDBRANCH  12  14
ENDBRANCH   1  12
BRANCH   4  15
ATOM     15  C   UNL     1       1.752   7.197  17.900  0.00  0.00    +0.000 C 
BRANCH  15  16
ATOM     16  C   UNL     1       2.182   8.603  18.383  0.00  0.00    +0.000 C 
BRANCH  16  17
ATOM     17  C   UNL     1       1.375   9.066  19.589  0.00  0.00    +0.000 A 
ATOM     18  C   UNL     1       1.447   8.377  20.816  0.00  0.00    +0.000 A 
ATOM     19  C   UNL     1       0.692   8.797  21.915  0.00  0.00    +0.000 A 
ATOM     20  C   UNL     1      -0.150   9.908  21.809  0.00  0.00    +0.000 A 
ATOM     21 CL   UNL     1      -1.090  10.398  23.213  0.00  0.00    +0.000 Cl
ATOM     22  C   UNL     1      -0.233  10.605  20.593  0.00  0.00    +0.000 A 
ATOM     23 CL   UNL     1      -1.288  12.002  20.421  0.00  0.00    +0.000 Cl
ATOM     24  C   UNL     1       0.527  10.186  19.493  0.00  0.00    +0.000 A 
ENDBRANCH  16  17
BRANCH  16  25
ATOM     25  O   UNL     1       2.087   9.545  17.342  0.00  0.00    +0.000 OA
ATOM     26  H   UNL     1       1.125   9.717  17.167  0.00  0.00    +0.000 HD
ENDBRANCH  16  25
ENDBRANCH  15  16
ENDBRANCH   4  15
TORSDOF 6
ENDMDL
MODEL 5
REMARK VINA RESULT:      -6.9      2.507      4.562
REMARK  Name = 
REMARK  6 active torsions:
REMARK  status: ('A' for Active; 'I' for Inactive)
REMARK    1  A    between atoms: C_2  and  C_3
REMARK    2  A    between atoms: C_3  and  N_4
REMARK    3  A    between atoms: N_7  and  C_8
REMARK    4  A    between atoms: C_8  and  C_9
REMARK    5  A    between atoms: C_9  and  O_10
REMARK    6  A    between atoms: C_9  and  C_11
REMARK                            x       y       z     vdW  Elec       q    Type
REMARK                         _______ _______ _______ _____ _____    ______ ____
ROOT
ATOM      1  N   UNL     1       4.979   4.812  17.254  0.00  0.00    +0.000 N 
ATOM      2  C   UNL     1       4.596   6.110  17.417  0.00  0.00    +0.000 A 
ATOM      3  N   UNL     1       5.374   7.119  17.252  0.00  0.00    +0.000 NA
ATOM      4  N   UNL     1       3.288   6.229  17.778  0.00  0.00    +0.000 N 
ATOM      5  C   UNL     1       2.846   4.952  17.858  0.00  0.00    +0.000 A 
ATOM      6  C   UNL     1       1.574   4.474  18.195  0.00  0.00    +0.000 A 
ATOM      7  C   UNL     1       1.378   3.080  18.212  0.00  0.00    +0.000 A 
ATOM      8  C   UNL     1       2.439   2.204  17.898  0.00  0.00    +0.000 A 
ATOM      9  C   UNL     1       3.705   2.707  17.556  0.00  0.00    +0.000 A 
ATOM     10  C   UNL     1       3.873   4.096  17.544  0.00  0.00    +0.000 A 
ATOM     11  H   UNL     1       6.362   7.015  16.985  0.00  0.00    +0.000 HD
ENDROOT
BRANCH   1  12
ATOM     12  C   UNL     1       6.286   4.286  16.832  0.00  0.00    +0.000 C 
BRANCH  12  14
ATOM     13  C   UNL     1       6.309   4.792  14.420  0.00  0.00    +0.000 C 
ATOM     14  C   UNL     1       6.271   3.871  15.388  0.00  0.00    +0.000 C 
ENDBRANCH  12  14
ENDBRANCH   1  12
BRANCH   4  15
ATOM     15  C   UNL     1       2.528   7.466  18.040  0.00  0.00    +0.000 C 
BRANCH  15  16
ATOM     16  C   UNL     1       1.845   7.448  19.429  0.00  0.00    +0.000 C 
BRANCH  16  17
ATOM     17  C   UNL     1       1.227   8.794  19.782  0.00  0.00    +0.000 A 
ATOM     18  C   UNL     1       1.247   9.862  18.865  0.00  0.00    +0.000 A 
ATOM     19  C   UNL     1       0.692  11.100  19.200  0.00  0.00    +0.000 A 
ATOM     20  C   UNL     1       0.111  11.296  20.456  0.00  0.00    +0.000 A 
ATOM     21 CL   UNL     1      -0.568  12.872  20.843  0.00  0.00    +0.000 Cl
ATOM     22  C   UNL     1       0.083  10.241  21.382  0.00  0.00    +0.000 A 
ATOM     23 CL   UNL     1      -0.632  10.452  22.975  0.00  0.00    +0.000 Cl
ATOM     24  C   UNL     1       0.636   8.998  21.044  0.00  0.00    +0.000 A 
ENDBRANCH  16  17
BRANCH  16  25
ATOM     25  O   UNL     1       2.750   7.048  20.430  0.00  0.00    +0.000 OA
ATOM     26  H   UNL     1       2.833   6.060  20.396  0.00  0.00    +0.000 HD
ENDBRANCH  16  25
ENDBRANCH  15  16
ENDBRANCH   4  15
TORSDOF 6
ENDMDL
MODEL 6
REMARK VINA RESULT:      -6.9      2.724      5.042
REMARK  Name = 
REMARK  6 active torsions:
REMARK  status: ('A' for Active; 'I' for Inactive)
REMARK    1  A    between atoms: C_2  and  C_3
REMARK    2  A    between atoms: C_3  and  N_4
REMARK    3  A    between atoms: N_7  and  C_8
REMARK    4  A    between atoms: C_8  and  C_9
REMARK    5  A    between atoms: C_9  and  O_10
REMARK    6  A    between atoms: C_9  and  C_11
REMARK                            x       y       z     vdW  Elec       q    Type
REMARK                         _______ _______ _______ _____ _____    ______ ____
ROOT
ATOM      1  N   UNL     1       3.791   4.832  17.238  0.00  0.00    +0.000 N 
ATOM      2  C   UNL     1       3.716   6.060  17.828  0.00  0.00    +0.000 A 
ATOM      3  N   UNL     1       4.440   7.067  17.494  0.00  0.00    +0.000 NA
ATOM      4  N   UNL     1       2.783   6.109  18.819  0.00  0.00    +0.000 N 
ATOM      5  C   UNL     1       2.270   4.857  18.858  0.00  0.00    +0.000 A 
ATOM      6  C   UNL     1       1.276   4.331  19.691  0.00  0.00    +0.000 A 
ATOM      7  C   UNL     1       0.928   2.977  19.529  0.00  0.00    +0.000 A 
ATOM      8  C   UNL     1       1.569   2.185  18.552  0.00  0.00    +0.000 A 
ATOM      9  C   UNL     1       2.559   2.737  17.721  0.00  0.00    +0.000 A 
ATOM     10  C   UNL     1       2.884   4.085  17.902  0.00  0.00    +0.000 A 
ATOM     11  H   UNL     1       5.146   7.015  16.747  0.00  0.00    +0.000 HD
ENDROOT
BRANCH   1  12
ATOM     12  C   UNL     1       4.637   4.403  16.116  0.00  0.00    +0.000 C 
BRANCH  12  14
ATOM     13  C   UNL     1       7.085   4.694  16.144  0.00  0.00    +0.000 C 
ATOM     14  C   UNL     1       6.014   4.022  16.580  0.00  0.00    +0.000 C 
ENDBRANCH  12  14
ENDBRANCH   1  12
BRANCH   4  15
ATOM     15  C   UNL     1       2.425   7.258  19.672  0.00  0.00    +0.000 C 
BRANCH  15  16
ATOM     16  C   UNL     1       2.009   8.495  18.840  0.00  0.00    +0.000 C 
BRANCH  16  17
ATOM     17  C   UNL     1       1.027   9.386  19.589  0.00  0.00    +0.000 A 
ATOM     18  C   UNL     1       0.358  10.437  18.933  0.00  0.00    +0.000 A 
ATOM     19  C   UNL     1      -0.530  11.262  19.629  0.00  0.00    +0.000 A 
ATOM     20  C   UNL     1      -0.763  11.056  20.992  0.00  0.00    +0.000 A 
ATOM     21 CL   UNL     1      -1.881  12.122  21.834  0.00  0.00    +0.000 Cl
ATOM     22  C   UNL     1      -0.104  10.012  21.661  0.00  0.00    +0.000 A 
ATOM     23 CL   UNL     1      -0.366   9.728  23.377  0.00  0.00    +0.000 Cl
ATOM     24  C   UNL     1       0.783   9.183  20.961  0.00  0.00    +0.000 A 
ENDBRANCH  16  17
BRANCH  16  25
ATOM     25  O   UNL     1       1.469   8.108  17.599  0.00  0.00    +0.000 OA
ATOM     26  H   UNL     1       0.769   7.425  17.766  0.00  0.00    +0.000 HD
ENDBRANCH  16  25
ENDBRANCH  15  16
ENDBRANCH   4  15
TORSDOF 6
ENDMDL
MODEL 7
REMARK VINA RESULT:      -6.8      2.387      4.259
REMARK  Name = 
REMARK  6 active torsions:
REMARK  status: ('A' for Active; 'I' for Inactive)
REMARK    1  A    between atoms: C_2  and  C_3
REMARK    2  A    between atoms: C_3  and  N_4
REMARK    3  A    between atoms: N_7  and  C_8
REMARK    4  A    between atoms: C_8  and  C_9
REMARK    5  A    between atoms: C_9  and  O_10
REMARK    6  A    between atoms: C_9  and  C_11
REMARK                            x       y       z     vdW  Elec       q    Type
REMARK                         _______ _______ _______ _____ _____    ______ ____
ROOT
ATOM      1  N   UNL     1       4.997   4.824  17.064  0.00  0.00    +0.000 N 
ATOM      2  C   UNL     1       4.596   6.096  17.349  0.00  0.00    +0.000 A 
ATOM      3  N   UNL     1       5.333   7.137  17.192  0.00  0.00    +0.000 NA
ATOM      4  N   UNL     1       3.321   6.151  17.823  0.00  0.00    +0.000 N 
ATOM      5  C   UNL     1       2.918   4.858  17.849  0.00  0.00    +0.000 A 
ATOM      6  C   UNL     1       1.692   4.320  18.254  0.00  0.00    +0.000 A 
ATOM      7  C   UNL     1       1.532   2.922  18.189  0.00  0.00    +0.000 A 
ATOM      8  C   UNL     1       2.584   2.102  17.729  0.00  0.00    +0.000 A 
ATOM      9  C   UNL     1       3.804   2.666  17.320  0.00  0.00    +0.000 A 
ATOM     10  C   UNL     1       3.936   4.057  17.392  0.00  0.00    +0.000 A 
ATOM     11  H   UNL     1       6.298   7.081  16.838  0.00  0.00    +0.000 HD
ENDROOT
BRANCH   1  12
ATOM     12  C   UNL     1       6.276   4.368  16.501  0.00  0.00    +0.000 C 
BRANCH  12  14
ATOM     13  C   UNL     1       6.052   3.888  14.094  0.00  0.00    +0.000 C 
ATOM     14  C   UNL     1       6.406   4.749  15.054  0.00  0.00    +0.000 C 
ENDBRANCH  12  14
ENDBRANCH   1  12
BRANCH   4  15
ATOM     15  C   UNL     1       2.555   7.343  18.233  0.00  0.00    +0.000 C 
BRANCH  15  16
ATOM     16  C   UNL     1       1.902   7.167  19.624  0.00  0.00    +0.000 C 
BRANCH  16  17
ATOM     17  C   UNL     1       1.373   8.482  20.181  0.00  0.00    +0.000 A 
ATOM     18  C   UNL     1       1.095   8.628  21.554  0.00  0.00    +0.000 A 
ATOM     19  C   UNL     1       0.596   9.832  22.056  0.00  0.00    +0.000 A 
ATOM     20  C   UNL     1       0.360  10.911  21.198  0.00  0.00    +0.000 A 
ATOM     21 CL   UNL     1      -0.279  12.406  21.869  0.00  0.00    +0.000 Cl
ATOM     22  C   UNL     1       0.631  10.782  19.827  0.00  0.00    +0.000 A 
ATOM     23 CL   UNL     1       0.340  12.114  18.716  0.00  0.00    +0.000 Cl
ATOM     24  C   UNL     1       1.137   9.575  19.325  0.00  0.00    +0.000 A 
ENDBRANCH  16  17
BRANCH  16  25
ATOM     25  O   UNL     1       2.802   6.578  20.532  0.00  0.00    +0.000 OA
ATOM     26  H   UNL     1       3.283   7.306  21.006  0.00  0.00    +0.000 HD
ENDBRANCH  16  25
ENDBRANCH  15  16
ENDBRANCH   4  15
TORSDOF 6
ENDMDL
MODEL 8
REMARK VINA RESULT:      -6.8      2.788      4.552
REMARK  Name = 
REMARK  6 active torsions:
REMARK  status: ('A' for Active; 'I' for Inactive)
REMARK    1  A    between atoms: C_2  and  C_3
REMARK    2  A    between atoms: C_3  and  N_4
REMARK    3  A    between atoms: N_7  and  C_8
REMARK    4  A    between atoms: C_8  and  C_9
REMARK    5  A    between atoms: C_9  and  O_10
REMARK    6  A    between atoms: C_9  and  C_11
REMARK                            x       y       z     vdW  Elec       q    Type
REMARK                         _______ _______ _______ _____ _____    ______ ____
ROOT
ATOM      1  N   UNL     1       3.831   4.334  19.201  0.00  0.00    +0.000 N 
ATOM      2  C   UNL     1       2.695   5.066  19.019  0.00  0.00    +0.000 A 
ATOM      3  N   UNL     1       1.557   4.772  19.536  0.00  0.00    +0.000 NA
ATOM      4  N   UNL     1       2.894   6.153  18.223  0.00  0.00    +0.000 N 
ATOM      5  C   UNL     1       4.203   6.083  17.883  0.00  0.00    +0.000 A 
ATOM      6  C   UNL     1       4.955   6.942  17.073  0.00  0.00    +0.000 A 
ATOM      7  C   UNL     1       6.314   6.634  16.871  0.00  0.00    +0.000 A 
ATOM      8  C   UNL     1       6.887   5.493  17.472  0.00  0.00    +0.000 A 
ATOM      9  C   UNL     1       6.114   4.650  18.288  0.00  0.00    +0.000 A 
ATOM     10  C   UNL     1       4.767   4.979  18.474  0.00  0.00    +0.000 A 
ATOM     11  H   UNL     1       1.418   3.944  20.132  0.00  0.00    +0.000 HD
ENDROOT
BRANCH   1  12
ATOM     12  C   UNL     1       4.026   3.128  20.020  0.00  0.00    +0.000 C 
BRANCH  12  14
ATOM     13  C   UNL     1       3.125   1.742  18.192  0.00  0.00    +0.000 C 
ATOM     14  C   UNL     1       4.016   1.884  19.178  0.00  0.00    +0.000 C 
ENDBRANCH  12  14
ENDBRANCH   1  12
BRANCH   4  15
ATOM     15  C   UNL     1       1.906   7.166  17.808  0.00  0.00    +0.000 C 
BRANCH  15  16
ATOM     16  C   UNL     1       2.282   8.584  18.300  0.00  0.00    +0.000 C 
BRANCH  16  17
ATOM     17  C   UNL     1       1.466   9.004  19.515  0.00  0.00    +0.000 A 
ATOM     18  C   UNL     1       1.547   8.286  20.724  0.00  0.00    +0.000 A 
ATOM     19  C   UNL     1       0.784   8.667  21.832  0.00  0.00    +0.000 A 
ATOM     20  C   UNL     1      -0.075   9.767  21.752  0.00  0.00    +0.000 A 
ATOM     21 CL   UNL     1      -1.025  10.208  23.166  0.00  0.00    +0.000 Cl
ATOM     22  C   UNL     1      -0.167  10.493  20.554  0.00  0.00    +0.000 A 
ATOM     23 CL   UNL     1      -1.244  11.877  20.414  0.00  0.00    +0.000 Cl
ATOM     24  C   UNL     1       0.601  10.113  19.445  0.00  0.00    +0.000 A 
ENDBRANCH  16  17
BRANCH  16  25
ATOM     25  O   UNL     1       2.141   9.529  17.266  0.00  0.00    +0.000 OA
ATOM     26  H   UNL     1       3.001  10.015  17.173  0.00  0.00    +0.000 HD
ENDBRANCH  16  25
ENDBRANCH  15  16
ENDBRANCH   4  15
TORSDOF 6
ENDMDL
MODEL 9
REMARK VINA RESULT:      -6.7      2.775      4.969
REMARK  Name = 
REMARK  6 active torsions:
REMARK  status: ('A' for Active; 'I' for Inactive)
REMARK    1  A    between atoms: C_2  and  C_3
REMARK    2  A    between atoms: C_3  and  N_4
REMARK    3  A    between atoms: N_7  and  C_8
REMARK    4  A    between atoms: C_8  and  C_9
REMARK    5  A    between atoms: C_9  and  O_10
REMARK    6  A    between atoms: C_9  and  C_11
REMARK                            x       y       z     vdW  Elec       q    Type
REMARK                         _______ _______ _______ _____ _____    ______ ____
ROOT
ATOM      1  N   UNL     1       4.552   4.895  18.199  0.00  0.00    +0.000 N 
ATOM      2  C   UNL     1       3.863   5.986  17.759  0.00  0.00    +0.000 A 
ATOM      3  N   UNL     1       4.296   6.803  16.868  0.00  0.00    +0.000 NA
ATOM      4  N   UNL     1       2.653   6.123  18.369  0.00  0.00    +0.000 N 
ATOM      5  C   UNL     1       2.596   5.084  19.235  0.00  0.00    +0.000 A 
ATOM      6  C   UNL     1       1.580   4.730  20.130  0.00  0.00    +0.000 A 
ATOM      7  C   UNL     1       1.777   3.592  20.935  0.00  0.00    +0.000 A 
ATOM      8  C   UNL     1       2.968   2.840  20.833  0.00  0.00    +0.000 A 
ATOM      9  C   UNL     1       3.971   3.211  19.922  0.00  0.00    +0.000 A 
ATOM     10  C   UNL     1       3.749   4.344  19.133  0.00  0.00    +0.000 A 
ATOM     11  H   UNL     1       5.215   6.692  16.418  0.00  0.00    +0.000 HD
ENDROOT
BRANCH   1  12
ATOM     12  C   UNL     1       5.862   4.396  17.754  0.00  0.00    +0.000 C 
BRANCH  12  14
ATOM     13  C   UNL     1       7.215   5.586  19.435  0.00  0.00    +0.000 C 
ATOM     14  C   UNL     1       6.969   5.332  18.146  0.00  0.00    +0.000 C 
ENDBRANCH  12  14
ENDBRANCH   1  12
BRANCH   4  15
ATOM     15  C   UNL     1       1.641   7.174  18.152  0.00  0.00    +0.000 C 
BRANCH  15  16
ATOM     16  C   UNL     1       2.173   8.580  18.515  0.00  0.00    +0.000 C 
BRANCH  16  17
ATOM     17  C   UNL     1       1.204   9.348  19.405  0.00  0.00    +0.000 A 
ATOM     18  C   UNL     1       0.398  10.376  18.879  0.00  0.00    +0.000 A 
ATOM     19  C   UNL     1      -0.478  11.088  19.704  0.00  0.00    +0.000 A 
ATOM     20  C   UNL     1      -0.562  10.790  21.067  0.00  0.00    +0.000 A 
ATOM     21 CL   UNL     1      -1.669  11.716  22.073  0.00  0.00    +0.000 Cl
ATOM     22  C   UNL     1       0.235   9.768  21.607  0.00  0.00    +0.000 A 
ATOM     23 CL   UNL     1       0.163   9.371  23.319  0.00  0.00    +0.000 Cl
ATOM     24  C   UNL     1       1.110   9.052  20.779  0.00  0.00    +0.000 A 
ENDBRANCH  16  17
BRANCH  16  25
ATOM     25  O   UNL     1       2.464   9.323  17.356  0.00  0.00    +0.000 OA
ATOM     26  H   UNL     1       2.092   8.836  16.575  0.00  0.00    +0.000 HD
ENDBRANCH  16  25
ENDBRANCH  15  16
ENDBRANCH   4  15
TORSDOF 6
ENDMDL
