MODEL 1
REMARK VINA RESULT:      -7.4      0.000      0.000
REMARK  Name = 
REMARK  5 active torsions:
REMARK  status: ('A' for Active; 'I' for Inactive)
REMARK    1  A    between atoms: C_1  and  N_2
REMARK    2  A    between atoms: N_5  and  C_6
REMARK    3  A    between atoms: C_7  and  C_8
REMARK    4  A    between atoms: C_9  and  O_10
REMARK    5  A    between atoms: O_10  and  C_11
REMARK                            x       y       z     vdW  Elec       q    Type
REMARK                         _______ _______ _______ _____ _____    ______ ____
ROOT
ATOM      1  C   UNL     1       4.654   4.987  16.769  0.00  0.00    +0.000 A 
ATOM      2  C   UNL     1       4.845   6.378  16.945  0.00  0.00    +0.000 A 
ATOM      3  C   UNL     1       3.953   7.101  17.738  0.00  0.00    +0.000 A 
ATOM      4  C   UNL     1       2.869   6.465  18.343  0.00  0.00    +0.000 A 
ATOM      5  C   UNL     1       2.649   5.095  18.174  0.00  0.00    +0.000 A 
ATOM      6  C   UNL     1       1.536   4.489  18.780  0.00  0.00    +0.000 A 
ATOM      7  C   UNL     1       1.292   3.127  18.628  0.00  0.00    +0.000 A 
ATOM      8  C   UNL     1       2.164   2.352  17.876  0.00  0.00    +0.000 A 
ATOM      9  C   UNL     1       3.275   2.943  17.267  0.00  0.00    +0.000 A 
ATOM     10  C   UNL     1       3.548   4.328  17.390  0.00  0.00    +0.000 A 
ENDROOT
BRANCH   1  12
ATOM     11  C   UNL     1       5.566   4.310  14.578  0.00  0.00    +0.000 C 
ATOM     12  C   UNL     1       5.595   4.228  15.914  0.00  0.00    +0.000 C 
BRANCH  11  17
ATOM     13  C   UNL     1       6.912   1.792  10.656  0.00  0.00    +0.000 C 
ATOM     14  N   UNL     1       7.118   2.440  11.928  0.00  0.00    +0.000 N 
ATOM     15  C   UNL     1       6.075   3.071  12.562  0.00  0.00    +0.000 C 
ATOM     16  O   UNL     1       4.947   3.131  12.082  0.00  0.00    +0.000 OA
ATOM     17  N   UNL     1       6.440   3.622  13.771  0.00  0.00    +0.000 N 
ATOM     18  H   UNL     1       8.024   2.394  12.364  0.00  0.00    +0.000 HD
ATOM     19  H   UNL     1       7.393   3.505  14.081  0.00  0.00    +0.000 HD
ENDBRANCH  11  17
ENDBRANCH   1  12
BRANCH   2  20
ATOM     20  O   UNL     1       5.918   6.943  16.296  0.00  0.00    +0.000 OA
ATOM     21  C   UNL     1       6.990   7.417  17.101  0.00  0.00    +0.000 C 
ENDBRANCH   2  20
TORSDOF 3
ENDMDL
MODEL 2
REMARK VINA RESULT:      -7.1      2.258      3.962
REMARK  Name = 
REMARK  5 active torsions:
REMARK  status: ('A' for Active; 'I' for Inactive)
REMARK    1  A    between atoms: C_1  and  N_2
REMARK    2  A    between atoms: N_5  and  C_6
REMARK    3  A    between atoms: C_7  and  C_8
REMARK    4  A    between atoms: C_9  and  O_10
REMARK    5  A    between atoms: O_10  and  C_11
REMARK                            x       y       z     vdW  Elec       q    Type
REMARK                         _______ _______ _______ _____ _____    ______ ____
ROOT
ATOM      1  C   UNL     1       3.112   4.546  18.585  0.00  0.00    +0.000 A 
ATOM      2  C   UNL     1       2.929   3.663  19.675  0.00  0.00    +0.000 A 
ATOM      3  C   UNL     1       2.356   4.137  20.857  0.00  0.00    +0.000 A 
ATOM      4  C   UNL     1       1.982   5.475  20.974  0.00  0.00    +0.000 A 
ATOM      5  C   UNL     1       2.165   6.372  19.916  0.00  0.00    +0.000 A 
ATOM      6  C   UNL     1       1.796   7.717  20.075  0.00  0.00    +0.000 A 
ATOM      7  C   UNL     1       1.967   8.632  19.039  0.00  0.00    +0.000 A 
ATOM      8  C   UNL     1       2.502   8.210  17.830  0.00  0.00    +0.000 A 
ATOM      9  C   UNL     1       2.874   6.873  17.661  0.00  0.00    +0.000 A 
ATOM     10  C   UNL     1       2.725   5.917  18.696  0.00  0.00    +0.000 A 
ENDROOT
BRANCH   1  12
ATOM     11  C   UNL     1       5.058   4.060  17.147  0.00  0.00    +0.000 C 
ATOM     12  C   UNL     1       3.733   4.040  17.340  0.00  0.00    +0.000 C 
BRANCH  11  17
ATOM     13  C   UNL     1       7.019   4.385  12.721  0.00  0.00    +0.000 C 
ATOM     14  N   UNL     1       6.594   3.698  13.916  0.00  0.00    +0.000 N 
ATOM     15  C   UNL     1       6.009   4.394  14.946  0.00  0.00    +0.000 C 
ATOM     16  O   UNL     1       5.841   5.609  14.912  0.00  0.00    +0.000 OA
ATOM     17  N   UNL     1       5.650   3.584  16.002  0.00  0.00    +0.000 N 
ATOM     18  H   UNL     1       6.696   2.698  13.973  0.00  0.00    +0.000 HD
ATOM     19  H   UNL     1       5.822   2.593  15.924  0.00  0.00    +0.000 HD
ENDBRANCH  11  17
ENDBRANCH   1  12
BRANCH   2  20
ATOM     20  O   UNL     1       3.348   2.365  19.499  0.00  0.00    +0.000 OA
ATOM     21  C   UNL     1       4.497   1.947  20.225  0.00  0.00    +0.000 C 
ENDBRANCH   2  20
TORSDOF 3
ENDMDL
MODEL 3
REMARK VINA RESULT:      -7.1      4.862      8.019
REMARK  Name = 
REMARK  5 active torsions:
REMARK  status: ('A' for Active; 'I' for Inactive)
REMARK    1  A    between atoms: C_1  and  N_2
REMARK    2  A    between atoms: N_5  and  C_6
REMARK    3  A    between atoms: C_7  and  C_8
REMARK    4  A    between atoms: C_9  and  O_10
REMARK    5  A    between atoms: O_10  and  C_11
REMARK                            x       y       z     vdW  Elec       q    Type
REMARK                         _______ _______ _______ _____ _____    ______ ____
ROOT
ATOM      1  C   UNL     1       2.755   5.066  19.179  0.00  0.00    +0.000 A 
ATOM      2  C   UNL     1       1.921   3.925  19.255  0.00  0.00    +0.000 A 
ATOM      3  C   UNL     1       2.008   2.942  18.268  0.00  0.00    +0.000 A 
ATOM      4  C   UNL     1       2.896   3.086  17.202  0.00  0.00    +0.000 A 
ATOM      5  C   UNL     1       3.721   4.210  17.096  0.00  0.00    +0.000 A 
ATOM      6  C   UNL     1       4.589   4.333  15.999  0.00  0.00    +0.000 A 
ATOM      7  C   UNL     1       5.422   5.442  15.867  0.00  0.00    +0.000 A 
ATOM      8  C   UNL     1       5.401   6.436  16.836  0.00  0.00    +0.000 A 
ATOM      9  C   UNL     1       4.540   6.325  17.932  0.00  0.00    +0.000 A 
ATOM     10  C   UNL     1       3.671   5.217  18.092  0.00  0.00    +0.000 A 
ENDROOT
BRANCH   1  12
ATOM     11  C   UNL     1       1.851   7.179  20.078  0.00  0.00    +0.000 C 
ATOM     12  C   UNL     1       2.648   6.112  20.221  0.00  0.00    +0.000 C 
BRANCH  11  17
ATOM     13  C   UNL     1      -0.513  10.028  23.214  0.00  0.00    +0.000 C 
ATOM     14  N   UNL     1       0.653   9.507  22.542  0.00  0.00    +0.000 N 
ATOM     15  C   UNL     1       0.524   8.521  21.593  0.00  0.00    +0.000 C 
ATOM     16  O   UNL     1      -0.559   8.031  21.291  0.00  0.00    +0.000 OA
ATOM     17  N   UNL     1       1.732   8.152  21.041  0.00  0.00    +0.000 N 
ATOM     18  H   UNL     1       1.557   9.899  22.749  0.00  0.00    +0.000 HD
ATOM     19  H   UNL     1       2.565   8.628  21.352  0.00  0.00    +0.000 HD
ENDBRANCH  11  17
ENDBRANCH   1  12
BRANCH   2  20
ATOM     20  O   UNL     1       1.050   3.864  20.317  0.00  0.00    +0.000 OA
ATOM     21  C   UNL     1       1.285   2.860  21.296  0.00  0.00    +0.000 C 
ENDBRANCH   2  20
TORSDOF 3
ENDMDL
MODEL 4
REMARK VINA RESULT:      -7.0      3.892      6.483
REMARK  Name = 
REMARK  5 active torsions:
REMARK  status: ('A' for Active; 'I' for Inactive)
REMARK    1  A    between atoms: C_1  and  N_2
REMARK    2  A    between atoms: N_5  and  C_6
REMARK    3  A    between atoms: C_7  and  C_8
REMARK    4  A    between atoms: C_9  and  O_10
REMARK    5  A    between atoms: O_10  and  C_11
REMARK                            x       y       z     vdW  Elec       q    Type
REMARK                         _______ _______ _______ _____ _____    ______ ____
ROOT
ATOM      1  C   UNL     1       3.374   5.652  17.989  0.00  0.00    +0.000 A 
ATOM      2  C   UNL     1       4.241   5.134  16.998  0.00  0.00    +0.000 A 
ATOM      3  C   UNL     1       4.356   3.752  16.838  0.00  0.00    +0.000 A 
ATOM      4  C   UNL     1       3.638   2.882  17.657  0.00  0.00    +0.000 A 
ATOM      5  C   UNL     1       2.784   3.368  18.653  0.00  0.00    +0.000 A 
ATOM      6  C   UNL     1       2.091   2.464  19.474  0.00  0.00    +0.000 A 
ATOM      7  C   UNL     1       1.235   2.919  20.474  0.00  0.00    +0.000 A 
ATOM      8  C   UNL     1       1.056   4.283  20.659  0.00  0.00    +0.000 A 
ATOM      9  C   UNL     1       1.742   5.192  19.848  0.00  0.00    +0.000 A 
ATOM     10  C   UNL     1       2.629   4.766  18.829  0.00  0.00    +0.000 A 
ENDROOT
BRANCH   1  12
ATOM     11  C   UNL     1       2.242   7.821  17.662  0.00  0.00    +0.000 C 
ATOM     12  C   UNL     1       3.266   7.118  18.165  0.00  0.00    +0.000 C 
BRANCH  11  17
ATOM     13  C   UNL     1       0.733  11.894  19.822  0.00  0.00    +0.000 C 
ATOM     14  N   UNL     1       1.438  11.127  18.824  0.00  0.00    +0.000 N 
ATOM     15  C   UNL     1       1.411   9.753  18.859  0.00  0.00    +0.000 C 
ATOM     16  O   UNL     1       0.818   9.124  19.730  0.00  0.00    +0.000 OA
ATOM     17  N   UNL     1       2.121   9.180  17.826  0.00  0.00    +0.000 N 
ATOM     18  H   UNL     1       1.919  11.607  18.081  0.00  0.00    +0.000 HD
ATOM     19  H   UNL     1       2.563   9.788  17.154  0.00  0.00    +0.000 HD
ENDBRANCH  11  17
ENDBRANCH   1  12
BRANCH   2  20
ATOM     20  O   UNL     1       4.940   6.050  16.247  0.00  0.00    +0.000 OA
ATOM     21  C   UNL     1       5.652   5.559  15.118  0.00  0.00    +0.000 C 
ENDBRANCH   2  20
TORSDOF 3
ENDMDL
MODEL 5
REMARK VINA RESULT:      -7.0      4.095      6.543
REMARK  Name = 
REMARK  5 active torsions:
REMARK  status: ('A' for Active; 'I' for Inactive)
REMARK    1  A    between atoms: C_1  and  N_2
REMARK    2  A    between atoms: N_5  and  C_6
REMARK    3  A    between atoms: C_7  and  C_8
REMARK    4  A    between atoms: C_9  and  O_10
REMARK    5  A    between atoms: O_10  and  C_11
REMARK                            x       y       z     vdW  Elec       q    Type
REMARK                         _______ _______ _______ _____ _____    ______ ____
ROOT
ATOM      1  C   UNL     1       3.259   5.564  18.268  0.00  0.00    +0.000 A 
ATOM      2  C   UNL     1       4.575   5.444  17.763  0.00  0.00    +0.000 A 
ATOM      3  C   UNL     1       5.391   4.404  18.211  0.00  0.00    +0.000 A 
ATOM      4  C   UNL     1       4.924   3.497  19.162  0.00  0.00    +0.000 A 
ATOM      5  C   UNL     1       3.632   3.601  19.686  0.00  0.00    +0.000 A 
ATOM      6  C   UNL     1       3.200   2.684  20.657  0.00  0.00    +0.000 A 
ATOM      7  C   UNL     1       1.919   2.764  21.197  0.00  0.00    +0.000 A 
ATOM      8  C   UNL     1       1.052   3.759  20.766  0.00  0.00    +0.000 A 
ATOM      9  C   UNL     1       1.471   4.679  19.801  0.00  0.00    +0.000 A 
ATOM     10  C   UNL     1       2.771   4.635  19.238  0.00  0.00    +0.000 A 
ENDROOT
BRANCH   1  12
ATOM     11  C   UNL     1       2.494   7.910  18.315  0.00  0.00    +0.000 C 
ATOM     12  C   UNL     1       2.402   6.678  17.800  0.00  0.00    +0.000 C 
BRANCH  11  17
ATOM     13  C   UNL     1      -0.622  11.596  18.806  0.00  0.00    +0.000 C 
ATOM     14  N   UNL     1       0.255  10.713  18.076  0.00  0.00    +0.000 N 
ATOM     15  C   UNL     1       0.938   9.717  18.731  0.00  0.00    +0.000 C 
ATOM     16  O   UNL     1       0.855   9.543  19.943  0.00  0.00    +0.000 OA
ATOM     17  N   UNL     1       1.716   8.957  17.884  0.00  0.00    +0.000 N 
ATOM     18  H   UNL     1       0.333  10.811  17.077  0.00  0.00    +0.000 HD
ATOM     19  H   UNL     1       1.704   9.176  16.899  0.00  0.00    +0.000 HD
ENDBRANCH  11  17
ENDBRANCH   1  12
BRANCH   2  20
ATOM     20  O   UNL     1       4.978   6.390  16.851  0.00  0.00    +0.000 OA
ATOM     21  C   UNL     1       5.391   5.927  15.571  0.00  0.00    +0.000 C 
ENDBRANCH   2  20
TORSDOF 3
ENDMDL
MODEL 6
REMARK VINA RESULT:      -6.9      4.072      6.480
REMARK  Name = 
REMARK  5 active torsions:
REMARK  status: ('A' for Active; 'I' for Inactive)
REMARK    1  A    between atoms: C_1  and  N_2
REMARK    2  A    between atoms: N_5  and  C_6
REMARK    3  A    between atoms: C_7  and  C_8
REMARK    4  A    between atoms: C_9  and  O_10
REMARK    5  A    between atoms: O_10  and  C_11
REMARK                            x       y       z     vdW  Elec       q    Type
REMARK                         _______ _______ _______ _____ _____    ______ ____
ROOT
ATOM      1  C   UNL     1       3.322   5.862  18.024  0.00  0.00    +0.000 A 
ATOM      2  C   UNL     1       4.406   5.826  17.115  0.00  0.00    +0.000 A 
ATOM      3  C   UNL     1       4.756   4.619  16.508  0.00  0.00    +0.000 A 
ATOM      4  C   UNL     1       4.056   3.450  16.803  0.00  0.00    +0.000 A 
ATOM      5  C   UNL     1       2.990   3.455  17.708  0.00  0.00    +0.000 A 
ATOM      6  C   UNL     1       2.320   2.256  17.999  0.00  0.00    +0.000 A 
ATOM      7  C   UNL     1       1.255   2.231  18.897  0.00  0.00    +0.000 A 
ATOM      8  C   UNL     1       0.843   3.407  19.507  0.00  0.00    +0.000 A 
ATOM      9  C   UNL     1       1.503   4.607  19.226  0.00  0.00    +0.000 A 
ATOM     10  C   UNL     1       2.597   4.668  18.328  0.00  0.00    +0.000 A 
ENDROOT
BRANCH   1  12
ATOM     11  C   UNL     1       2.166   8.041  18.088  0.00  0.00    +0.000 C 
ATOM     12  C   UNL     1       2.965   7.142  18.676  0.00  0.00    +0.000 C 
BRANCH  11  17
ATOM     13  C   UNL     1      -0.653  11.898  18.936  0.00  0.00    +0.000 C 
ATOM     14  N   UNL     1       0.506  11.058  19.122  0.00  0.00    +0.000 N 
ATOM     15  C   UNL     1       0.647   9.900  18.395  0.00  0.00    +0.000 C 
ATOM     16  O   UNL     1      -0.193   9.520  17.586  0.00  0.00    +0.000 OA
ATOM     17  N   UNL     1       1.815   9.229  18.684  0.00  0.00    +0.000 N 
ATOM     18  H   UNL     1       1.227  11.347  19.762  0.00  0.00    +0.000 HD
ATOM     19  H   UNL     1       2.446   9.634  19.359  0.00  0.00    +0.000 HD
ENDBRANCH  11  17
ENDBRANCH   1  12
BRANCH   2  20
ATOM     20  O   UNL     1       5.068   7.011  16.894  0.00  0.00    +0.000 OA
ATOM     21  C   UNL     1       6.450   7.057  17.224  0.00  0.00    +0.000 C 
ENDBRANCH   2  20
TORSDOF 3
ENDMDL
MODEL 7
REMARK VINA RESULT:      -6.8      4.644      7.685
REMARK  Name = 
REMARK  5 active torsions:
REMARK  status: ('A' for Active; 'I' for Inactive)
REMARK    1  A    between atoms: C_1  and  N_2
REMARK    2  A    between atoms: N_5  and  C_6
REMARK    3  A    between atoms: C_7  and  C_8
REMARK    4  A    between atoms: C_9  and  O_10
REMARK    5  A    between atoms: O_10  and  C_11
REMARK                            x       y       z     vdW  Elec       q    Type
REMARK                         _______ _______ _______ _____ _____    ______ ____
ROOT
ATOM      1  C   UNL     1       3.467   4.746  18.832  0.00  0.00    +0.000 A 
ATOM      2  C   UNL     1       2.620   3.981  17.996  0.00  0.00    +0.000 A 
ATOM      3  C   UNL     1       3.152   3.345  16.873  0.00  0.00    +0.000 A 
ATOM      4  C   UNL     1       4.505   3.472  16.562  0.00  0.00    +0.000 A 
ATOM      5  C   UNL     1       5.361   4.233  17.364  0.00  0.00    +0.000 A 
ATOM      6  C   UNL     1       6.715   4.358  17.012  0.00  0.00    +0.000 A 
ATOM      7  C   UNL     1       7.591   5.110  17.791  0.00  0.00    +0.000 A 
ATOM      8  C   UNL     1       7.124   5.739  18.937  0.00  0.00    +0.000 A 
ATOM      9  C   UNL     1       5.778   5.623  19.298  0.00  0.00    +0.000 A 
ATOM     10  C   UNL     1       4.857   4.876  18.523  0.00  0.00    +0.000 A 
ENDROOT
BRANCH   1  12
ATOM     11  C   UNL     1       2.350   6.651  19.933  0.00  0.00    +0.000 C 
ATOM     12  C   UNL     1       2.895   5.430  20.013  0.00  0.00    +0.000 C 
BRANCH  11  17
ATOM     13  C   UNL     1       0.012  10.225  22.235  0.00  0.00    +0.000 C 
ATOM     14  N   UNL     1       0.693   8.956  22.139  0.00  0.00    +0.000 N 
ATOM     15  C   UNL     1       1.167   8.513  20.928  0.00  0.00    +0.000 C 
ATOM     16  O   UNL     1       1.022   9.149  19.888  0.00  0.00    +0.000 OA
ATOM     17  N   UNL     1       1.803   7.294  21.018  0.00  0.00    +0.000 N 
ATOM     18  H   UNL     1       0.849   8.416  22.974  0.00  0.00    +0.000 HD
ATOM     19  H   UNL     1       1.880   6.860  21.925  0.00  0.00    +0.000 HD
ENDBRANCH  11  17
ENDBRANCH   1  12
BRANCH   2  20
ATOM     20  O   UNL     1       1.291   3.923  18.347  0.00  0.00    +0.000 OA
ATOM     21  C   UNL     1       0.790   2.671  18.798  0.00  0.00    +0.000 C 
ENDBRANCH   2  20
TORSDOF 3
ENDMDL
MODEL 8
REMARK VINA RESULT:      -6.8      2.002      2.700
REMARK  Name = 
REMARK  5 active torsions:
REMARK  status: ('A' for Active; 'I' for Inactive)
REMARK    1  A    between atoms: C_1  and  N_2
REMARK    2  A    between atoms: N_5  and  C_6
REMARK    3  A    between atoms: C_7  and  C_8
REMARK    4  A    between atoms: C_9  and  O_10
REMARK    5  A    between atoms: O_10  and  C_11
REMARK                            x       y       z     vdW  Elec       q    Type
REMARK                         _______ _______ _______ _____ _____    ______ ____
ROOT
ATOM      1  C   UNL     1       3.526   5.611  17.941  0.00  0.00    +0.000 A 
ATOM      2  C   UNL     1       2.968   6.723  18.615  0.00  0.00    +0.000 A 
ATOM      3  C   UNL     1       2.095   6.512  19.684  0.00  0.00    +0.000 A 
ATOM      4  C   UNL     1       1.759   5.218  20.079  0.00  0.00    +0.000 A 
ATOM      5  C   UNL     1       2.286   4.103  19.421  0.00  0.00    +0.000 A 
ATOM      6  C   UNL     1       1.911   2.813  19.830  0.00  0.00    +0.000 A 
ATOM      7  C   UNL     1       2.419   1.684  19.193  0.00  0.00    +0.000 A 
ATOM      8  C   UNL     1       3.315   1.832  18.143  0.00  0.00    +0.000 A 
ATOM      9  C   UNL     1       3.696   3.111  17.726  0.00  0.00    +0.000 A 
ATOM     10  C   UNL     1       3.190   4.282  18.343  0.00  0.00    +0.000 A 
ENDROOT
BRANCH   1  12
ATOM     11  C   UNL     1       5.768   5.722  16.915  0.00  0.00    +0.000 C 
ATOM     12  C   UNL     1       4.439   5.840  16.798  0.00  0.00    +0.000 C 
BRANCH  11  17
ATOM     13  C   UNL     1       7.776   4.750  12.607  0.00  0.00    +0.000 C 
ATOM     14  N   UNL     1       7.594   5.500  13.826  0.00  0.00    +0.000 N 
ATOM     15  C   UNL     1       6.660   5.102  14.753  0.00  0.00    +0.000 C 
ATOM     16  O   UNL     1       5.938   4.124  14.587  0.00  0.00    +0.000 OA
ATOM     17  N   UNL     1       6.628   5.919  15.862  0.00  0.00    +0.000 N 
ATOM     18  H   UNL     1       8.182   6.297  14.007  0.00  0.00    +0.000 HD
ATOM     19  H   UNL     1       7.275   6.693  15.905  0.00  0.00    +0.000 HD
ENDBRANCH  11  17
ENDBRANCH   1  12
BRANCH   2  20
ATOM     20  O   UNL     1       3.321   7.969  18.153  0.00  0.00    +0.000 OA
ATOM     21  C   UNL     1       2.267   8.879  17.864  0.00  0.00    +0.000 C 
ENDBRANCH   2  20
TORSDOF 3
ENDMDL
MODEL 9
REMARK VINA RESULT:      -6.8      2.177      3.178
REMARK  Name = 
REMARK  5 active torsions:
REMARK  status: ('A' for Active; 'I' for Inactive)
REMARK    1  A    between atoms: C_1  and  N_2
REMARK    2  A    between atoms: N_5  and  C_6
REMARK    3  A    between atoms: C_7  and  C_8
REMARK    4  A    between atoms: C_9  and  O_10
REMARK    5  A    between atoms: O_10  and  C_11
REMARK                            x       y       z     vdW  Elec       q    Type
REMARK                         _______ _______ _______ _____ _____    ______ ____
ROOT
ATOM      1  C   UNL     1       3.003   6.219  18.468  0.00  0.00    +0.000 A 
ATOM      2  C   UNL     1       2.524   7.456  18.958  0.00  0.00    +0.000 A 
ATOM      3  C   UNL     1       1.774   7.486  20.136  0.00  0.00    +0.000 A 
ATOM      4  C   UNL     1       1.481   6.305  20.818  0.00  0.00    +0.000 A 
ATOM      5  C   UNL     1       1.932   5.068  20.347  0.00  0.00    +0.000 A 
ATOM      6  C   UNL     1       1.602   3.896  21.047  0.00  0.00    +0.000 A 
ATOM      7  C   UNL     1       2.037   2.651  20.600  0.00  0.00    +0.000 A 
ATOM      8  C   UNL     1       2.813   2.564  19.453  0.00  0.00    +0.000 A 
ATOM      9  C   UNL     1       3.146   3.723  18.747  0.00  0.00    +0.000 A 
ATOM     10  C   UNL     1       2.712   5.006  19.165  0.00  0.00    +0.000 A 
ENDROOT
BRANCH   1  12
ATOM     11  C   UNL     1       5.124   6.255  17.206  0.00  0.00    +0.000 C 
ATOM     12  C   UNL     1       3.786   6.192  17.211  0.00  0.00    +0.000 C 
BRANCH  11  17
ATOM     13  C   UNL     1       7.019   4.217  13.232  0.00  0.00    +0.000 C 
ATOM     14  N   UNL     1       6.770   5.296  14.157  0.00  0.00    +0.000 N 
ATOM     15  C   UNL     1       5.987   5.091  15.268  0.00  0.00    +0.000 C 
ATOM     16  O   UNL     1       5.457   4.012  15.514  0.00  0.00    +0.000 OA
ATOM     17  N   UNL     1       5.866   6.219  16.050  0.00  0.00    +0.000 N 
ATOM     18  H   UNL     1       7.205   6.190  13.999  0.00  0.00    +0.000 HD
ATOM     19  H   UNL     1       6.354   7.055  15.763  0.00  0.00    +0.000 HD
ENDBRANCH  11  17
ENDBRANCH   1  12
BRANCH   2  20
ATOM     20  O   UNL     1       2.825   8.576  18.219  0.00  0.00    +0.000 OA
ATOM     21  C   UNL     1       1.746   9.426  17.854  0.00  0.00    +0.000 C 
ENDBRANCH   2  20
TORSDOF 3
ENDMDL
