MODEL 1
REMARK VINA RESULT:      -6.5      0.000      0.000
REMARK  Name = 
REMARK  9 active torsions:
REMARK  status: ('A' for Active; 'I' for Inactive)
REMARK    1  A    between atoms: C_1  and  C_2
REMARK    2  A    between atoms: C_4  and  C_5
REMARK    3  A    between atoms: N_7  and  C_8
REMARK    4  A    between atoms: C_8  and  C_9
REMARK    5  A    between atoms: C_8  and  C_10
REMARK    6  A    between atoms: C_12  and  S_13
REMARK    7  A    between atoms: S_13  and  N_16
REMARK    8  A    between atoms: N_16  and  C_17
REMARK    9  A    between atoms: N_16  and  C_18
REMARK                            x       y       z     vdW  Elec       q    Type
REMARK                         _______ _______ _______ _____ _____    ______ ____
ROOT
ATOM      1  C   UNL     1       6.465   5.328  19.446  0.00  0.00    +0.000 C 
ATOM      2  C   UNL     1       6.033   4.878  18.088  0.00  0.00    +0.000 A 
ATOM      3  S   UNL     1       7.065   5.206  16.761  0.00  0.00    +0.000 S 
ATOM      4  C   UNL     1       5.999   4.490  15.632  0.00  0.00    +0.000 A 
ATOM      5  C   UNL     1       4.872   3.996  16.262  0.00  0.00    +0.000 A 
ATOM      6  C   UNL     1       4.875   4.239  17.674  0.00  0.00    +0.000 A 
ENDROOT
BRANCH   4   7
ATOM      7  C   UNL     1       6.306   4.451  14.204  0.00  0.00    +0.000 C 
ATOM      8  O   UNL     1       7.179   5.146  13.694  0.00  0.00    +0.000 OA
ATOM      9  N   UNL     1       5.545   3.570  13.461  0.00  0.00    +0.000 N 
ATOM     10  H   UNL     1       4.783   3.105  13.938  0.00  0.00    +0.000 HD
BRANCH   9  11
ATOM     11  C   UNL     1       5.664   3.422  12.021  0.00  0.00    +0.000 C 
ATOM     12  C   UNL     1       6.477   2.172  11.696  0.00  0.00    +0.000 C 
ATOM     13  C   UNL     1       4.285   3.350  11.371  0.00  0.00    +0.000 C 
ENDBRANCH   9  11
ENDBRANCH   4   7
BRANCH   6  14
ATOM     14  S   UNL     1       3.545   3.771  18.709  0.00  0.00    +0.000 S 
ATOM     15  O   UNL     1       2.478   3.426  17.798  0.00  0.00    +0.000 OA
ATOM     16  O   UNL     1       4.122   2.788  19.602  0.00  0.00    +0.000 OA
BRANCH  14  17
ATOM     17  N   UNL     1       3.070   5.121  19.617  0.00  0.00    +0.000 NA
ATOM     18  C   UNL     1       2.614   6.311  18.878  0.00  0.00    +0.000 C 
ATOM     19  C   UNL     1       2.288   4.861  20.835  0.00  0.00    +0.000 C 
ENDBRANCH  14  17
ENDBRANCH   6  14
TORSDOF 4
ENDMDL
MODEL 2
REMARK VINA RESULT:      -6.4      1.431      1.810
REMARK  Name = 
REMARK  9 active torsions:
REMARK  status: ('A' for Active; 'I' for Inactive)
REMARK    1  A    between atoms: C_1  and  C_2
REMARK    2  A    between atoms: C_4  and  C_5
REMARK    3  A    between atoms: N_7  and  C_8
REMARK    4  A    between atoms: C_8  and  C_9
REMARK    5  A    between atoms: C_8  and  C_10
REMARK    6  A    between atoms: C_12  and  S_13
REMARK    7  A    between atoms: S_13  and  N_16
REMARK    8  A    between atoms: N_16  and  C_17
REMARK    9  A    between atoms: N_16  and  C_18
REMARK                            x       y       z     vdW  Elec       q    Type
REMARK                         _______ _______ _______ _____ _____    ______ ____
ROOT
ATOM      1  C   UNL     1       6.808   5.196  19.350  0.00  0.00    +0.000 C 
ATOM      2  C   UNL     1       6.276   4.883  17.990  0.00  0.00    +0.000 A 
ATOM      3  S   UNL     1       7.355   4.960  16.661  0.00  0.00    +0.000 S 
ATOM      4  C   UNL     1       6.142   4.542  15.529  0.00  0.00    +0.000 A 
ATOM      5  C   UNL     1       4.930   4.335  16.159  0.00  0.00    +0.000 A 
ATOM      6  C   UNL     1       4.995   4.554  17.574  0.00  0.00    +0.000 A 
ENDROOT
BRANCH   4   7
ATOM      7  C   UNL     1       6.427   4.445  14.100  0.00  0.00    +0.000 C 
ATOM      8  O   UNL     1       7.282   5.130  13.545  0.00  0.00    +0.000 OA
ATOM      9  N   UNL     1       5.669   3.521  13.409  0.00  0.00    +0.000 N 
ATOM     10  H   UNL     1       4.922   3.066  13.918  0.00  0.00    +0.000 HD
BRANCH   9  11
ATOM     11  C   UNL     1       5.768   3.311  11.975  0.00  0.00    +0.000 C 
ATOM     12  C   UNL     1       6.619   2.077  11.691  0.00  0.00    +0.000 C 
ATOM     13  C   UNL     1       4.380   3.161  11.356  0.00  0.00    +0.000 C 
ENDBRANCH   9  11
ENDBRANCH   4   7
BRANCH   6  14
ATOM     14  S   UNL     1       3.593   4.418  18.611  0.00  0.00    +0.000 S 
ATOM     15  O   UNL     1       3.910   5.233  19.762  0.00  0.00    +0.000 OA
ATOM     16  O   UNL     1       2.480   4.741  17.742  0.00  0.00    +0.000 OA
BRANCH  14  17
ATOM     17  N   UNL     1       3.448   2.805  19.110  0.00  0.00    +0.000 NA
ATOM     18  C   UNL     1       3.114   1.803  18.084  0.00  0.00    +0.000 C 
ATOM     19  C   UNL     1       4.430   2.323  20.093  0.00  0.00    +0.000 C 
ENDBRANCH  14  17
ENDBRANCH   6  14
TORSDOF 4
ENDMDL
MODEL 3
REMARK VINA RESULT:      -6.2      1.916      2.519
REMARK  Name = 
REMARK  9 active torsions:
REMARK  status: ('A' for Active; 'I' for Inactive)
REMARK    1  A    between atoms: C_1  and  C_2
REMARK    2  A    between atoms: C_4  and  C_5
REMARK    3  A    between atoms: N_7  and  C_8
REMARK    4  A    between atoms: C_8  and  C_9
REMARK    5  A    between atoms: C_8  and  C_10
REMARK    6  A    between atoms: C_12  and  S_13
REMARK    7  A    between atoms: S_13  and  N_16
REMARK    8  A    between atoms: N_16  and  C_17
REMARK    9  A    between atoms: N_16  and  C_18
REMARK                            x       y       z     vdW  Elec       q    Type
REMARK                         _______ _______ _______ _____ _____    ______ ____
ROOT
ATOM      1  C   UNL     1       3.150   7.674  17.955  0.00  0.00    +0.000 C 
ATOM      2  C   UNL     1       3.898   6.497  17.417  0.00  0.00    +0.000 A 
ATOM      3  S   UNL     1       5.004   6.758  16.135  0.00  0.00    +0.000 S 
ATOM      4  C   UNL     1       5.424   5.104  16.034  0.00  0.00    +0.000 A 
ATOM      5  C   UNL     1       4.737   4.362  16.975  0.00  0.00    +0.000 A 
ATOM      6  C   UNL     1       3.838   5.156  17.759  0.00  0.00    +0.000 A 
ENDROOT
BRANCH   4   7
ATOM      7  C   UNL     1       6.386   4.616  15.049  0.00  0.00    +0.000 C 
ATOM      8  O   UNL     1       7.600   4.650  15.233  0.00  0.00    +0.000 OA
ATOM      9  N   UNL     1       5.836   4.105  13.890  0.00  0.00    +0.000 N 
ATOM     10  H   UNL     1       4.836   4.200  13.775  0.00  0.00    +0.000 HD
BRANCH   9  11
ATOM     11  C   UNL     1       6.626   3.617  12.773  0.00  0.00    +0.000 C 
ATOM     12  C   UNL     1       5.748   2.782  11.846  0.00  0.00    +0.000 C 
ATOM     13  C   UNL     1       7.257   4.780  12.011  0.00  0.00    +0.000 C 
ENDBRANCH   9  11
ENDBRANCH   4   7
BRANCH   6  14
ATOM     14  S   UNL     1       2.801   4.464  18.986  0.00  0.00    +0.000 S 
ATOM     15  O   UNL     1       3.215   5.103  20.216  0.00  0.00    +0.000 OA
ATOM     16  O   UNL     1       1.464   4.640  18.459  0.00  0.00    +0.000 OA
BRANCH  14  17
ATOM     17  N   UNL     1       3.132   2.806  19.098  0.00  0.00    +0.000 NA
ATOM     18  C   UNL     1       4.081   2.370  20.136  0.00  0.00    +0.000 C 
ATOM     19  C   UNL     1       1.995   1.889  18.930  0.00  0.00    +0.000 C 
ENDBRANCH  14  17
ENDBRANCH   6  14
TORSDOF 4
ENDMDL
MODEL 4
REMARK VINA RESULT:      -6.2      1.765      2.335
REMARK  Name = 
REMARK  9 active torsions:
REMARK  status: ('A' for Active; 'I' for Inactive)
REMARK    1  A    between atoms: C_1  and  C_2
REMARK    2  A    between atoms: C_4  and  C_5
REMARK    3  A    between atoms: N_7  and  C_8
REMARK    4  A    between atoms: C_8  and  C_9
REMARK    5  A    between atoms: C_8  and  C_10
REMARK    6  A    between atoms: C_12  and  S_13
REMARK    7  A    between atoms: S_13  and  N_16
REMARK    8  A    between atoms: N_16  and  C_17
REMARK    9  A    between atoms: N_16  and  C_18
REMARK                            x       y       z     vdW  Elec       q    Type
REMARK                         _______ _______ _______ _____ _____    ______ ____
ROOT
ATOM      1  C   UNL     1       2.731   6.601  18.401  0.00  0.00    +0.000 C 
ATOM      2  C   UNL     1       3.607   5.631  17.677  0.00  0.00    +0.000 A 
ATOM      3  S   UNL     1       4.922   6.249  16.769  0.00  0.00    +0.000 S 
ATOM      4  C   UNL     1       5.413   4.697  16.244  0.00  0.00    +0.000 A 
ATOM      5  C   UNL     1       4.589   3.717  16.764  0.00  0.00    +0.000 A 
ATOM      6  C   UNL     1       3.532   4.251  17.571  0.00  0.00    +0.000 A 
ENDROOT
BRANCH   4   7
ATOM      7  C   UNL     1       6.557   4.514  15.355  0.00  0.00    +0.000 C 
ATOM      8  O   UNL     1       7.719   4.580  15.747  0.00  0.00    +0.000 OA
ATOM      9  N   UNL     1       6.245   4.256  14.035  0.00  0.00    +0.000 N 
ATOM     10  H   UNL     1       5.269   4.313  13.774  0.00  0.00    +0.000 HD
BRANCH   9  11
ATOM     11  C   UNL     1       7.241   4.094  12.990  0.00  0.00    +0.000 C 
ATOM     12  C   UNL     1       6.655   3.278  11.842  0.00  0.00    +0.000 C 
ATOM     13  C   UNL     1       7.724   5.453  12.491  0.00  0.00    +0.000 C 
ENDBRANCH   9  11
ENDBRANCH   4   7
BRANCH   6  14
ATOM     14  S   UNL     1       2.310   3.239  18.307  0.00  0.00    +0.000 S 
ATOM     15  O   UNL     1       1.102   4.031  18.256  0.00  0.00    +0.000 OA
ATOM     16  O   UNL     1       2.418   1.982  17.597  0.00  0.00    +0.000 OA
BRANCH  14  17
ATOM     17  N   UNL     1       2.727   2.988  19.930  0.00  0.00    +0.000 NA
ATOM     18  C   UNL     1       4.084   2.493  20.216  0.00  0.00    +0.000 C 
ATOM     19  C   UNL     1       2.260   3.991  20.899  0.00  0.00    +0.000 C 
ENDBRANCH  14  17
ENDBRANCH   6  14
TORSDOF 4
ENDMDL
MODEL 5
REMARK VINA RESULT:      -6.0      1.927      2.560
REMARK  Name = 
REMARK  9 active torsions:
REMARK  status: ('A' for Active; 'I' for Inactive)
REMARK    1  A    between atoms: C_1  and  C_2
REMARK    2  A    between atoms: C_4  and  C_5
REMARK    3  A    between atoms: N_7  and  C_8
REMARK    4  A    between atoms: C_8  and  C_9
REMARK    5  A    between atoms: C_8  and  C_10
REMARK    6  A    between atoms: C_12  and  S_13
REMARK    7  A    between atoms: S_13  and  N_16
REMARK    8  A    between atoms: N_16  and  C_17
REMARK    9  A    between atoms: N_16  and  C_18
REMARK                            x       y       z     vdW  Elec       q    Type
REMARK                         _______ _______ _______ _____ _____    ______ ____
ROOT
ATOM      1  C   UNL     1       3.081   5.417  20.224  0.00  0.00    +0.000 C 
ATOM      2  C   UNL     1       3.695   4.968  18.938  0.00  0.00    +0.000 A 
ATOM      3  S   UNL     1       4.175   6.166  17.810  0.00  0.00    +0.000 S 
ATOM      4  C   UNL     1       4.718   5.011  16.671  0.00  0.00    +0.000 A 
ATOM      5  C   UNL     1       4.546   3.727  17.150  0.00  0.00    +0.000 A 
ATOM      6  C   UNL     1       3.935   3.695  18.446  0.00  0.00    +0.000 A 
ENDROOT
BRANCH   4   7
ATOM      7  C   UNL     1       5.272   5.409  15.379  0.00  0.00    +0.000 C 
ATOM      8  O   UNL     1       5.344   6.581  15.020  0.00  0.00    +0.000 OA
ATOM      9  N   UNL     1       5.718   4.372  14.583  0.00  0.00    +0.000 N 
ATOM     10  H   UNL     1       5.536   3.432  14.909  0.00  0.00    +0.000 HD
BRANCH   9  11
ATOM     11  C   UNL     1       6.254   4.559  13.246  0.00  0.00    +0.000 C 
ATOM     12  C   UNL     1       7.743   4.882  13.329  0.00  0.00    +0.000 C 
ATOM     13  C   UNL     1       6.021   3.314  12.394  0.00  0.00    +0.000 C 
ENDBRANCH   9  11
ENDBRANCH   4   7
BRANCH   6  14
ATOM     14  S   UNL     1       3.548   2.199  19.265  0.00  0.00    +0.000 S 
ATOM     15  O   UNL     1       3.826   1.168  18.290  0.00  0.00    +0.000 OA
ATOM     16  O   UNL     1       4.283   2.278  20.509  0.00  0.00    +0.000 OA
BRANCH  14  17
ATOM     17  N   UNL     1       1.889   2.188  19.609  0.00  0.00    +0.000 NA
ATOM     18  C   UNL     1       1.475   2.553  20.974  0.00  0.00    +0.000 C 
ATOM     19  C   UNL     1       0.991   2.715  18.570  0.00  0.00    +0.000 C 
ENDBRANCH  14  17
ENDBRANCH   6  14
TORSDOF 4
ENDMDL
MODEL 6
REMARK VINA RESULT:      -5.9      1.742      2.296
REMARK  Name = 
REMARK  9 active torsions:
REMARK  status: ('A' for Active; 'I' for Inactive)
REMARK    1  A    between atoms: C_1  and  C_2
REMARK    2  A    between atoms: C_4  and  C_5
REMARK    3  A    between atoms: N_7  and  C_8
REMARK    4  A    between atoms: C_8  and  C_9
REMARK    5  A    between atoms: C_8  and  C_10
REMARK    6  A    between atoms: C_12  and  S_13
REMARK    7  A    between atoms: S_13  and  N_16
REMARK    8  A    between atoms: N_16  and  C_17
REMARK    9  A    between atoms: N_16  and  C_18
REMARK                            x       y       z     vdW  Elec       q    Type
REMARK                         _______ _______ _______ _____ _____    ______ ____
ROOT
ATOM      1  C   UNL     1       3.096   7.257  18.137  0.00  0.00    +0.000 C 
ATOM      2  C   UNL     1       3.988   6.189  17.590  0.00  0.00    +0.000 A 
ATOM      3  S   UNL     1       4.890   6.534  16.174  0.00  0.00    +0.000 S 
ATOM      4  C   UNL     1       5.594   4.976  16.129  0.00  0.00    +0.000 A 
ATOM      5  C   UNL     1       5.156   4.205  17.188  0.00  0.00    +0.000 A 
ATOM      6  C   UNL     1       4.211   4.891  18.020  0.00  0.00    +0.000 A 
ENDROOT
BRANCH   4   7
ATOM      7  C   UNL     1       6.523   4.585  15.072  0.00  0.00    +0.000 C 
ATOM      8  O   UNL     1       7.739   4.729  15.170  0.00  0.00    +0.000 OA
ATOM      9  N   UNL     1       5.940   4.035  13.947  0.00  0.00    +0.000 N 
ATOM     10  H   UNL     1       4.929   4.040  13.905  0.00  0.00    +0.000 HD
BRANCH   9  11
ATOM     11  C   UNL     1       6.689   3.630  12.770  0.00  0.00    +0.000 C 
ATOM     12  C   UNL     1       5.777   2.862  11.818  0.00  0.00    +0.000 C 
ATOM     13  C   UNL     1       7.293   4.845  12.072  0.00  0.00    +0.000 C 
ENDBRANCH   9  11
ENDBRANCH   4   7
BRANCH   6  14
ATOM     14  S   UNL     1       3.450   4.131  19.399  0.00  0.00    +0.000 S 
ATOM     15  O   UNL     1       4.397   3.127  19.831  0.00  0.00    +0.000 OA
ATOM     16  O   UNL     1       3.085   5.240  20.256  0.00  0.00    +0.000 OA
BRANCH  14  17
ATOM     17  N   UNL     1       2.038   3.355  18.875  0.00  0.00    +0.000 NA
ATOM     18  C   UNL     1       2.187   2.243  17.922  0.00  0.00    +0.000 C 
ATOM     19  C   UNL     1       0.996   3.117  19.886  0.00  0.00    +0.000 C 
ENDBRANCH  14  17
ENDBRANCH   6  14
TORSDOF 4
ENDMDL
MODEL 7
REMARK VINA RESULT:      -5.8      3.539      6.108
REMARK  Name = 
REMARK  9 active torsions:
REMARK  status: ('A' for Active; 'I' for Inactive)
REMARK    1  A    between atoms: C_1  and  C_2
REMARK    2  A    between atoms: C_4  and  C_5
REMARK    3  A    between atoms: N_7  and  C_8
REMARK    4  A    between atoms: C_8  and  C_9
REMARK    5  A    between atoms: C_8  and  C_10
REMARK    6  A    between atoms: C_12  and  S_13
REMARK    7  A    between atoms: S_13  and  N_16
REMARK    8  A    between atoms: N_16  and  C_17
REMARK    9  A    between atoms: N_16  and  C_18
REMARK                            x       y       z     vdW  Elec       q    Type
REMARK                         _______ _______ _______ _____ _____    ______ ____
ROOT
ATOM      1  C   UNL     1       5.865   4.446  16.819  0.00  0.00    +0.000 C 
ATOM      2  C   UNL     1       4.708   5.183  17.414  0.00  0.00    +0.000 A 
ATOM      3  S   UNL     1       4.523   6.843  17.032  0.00  0.00    +0.000 S 
ATOM      4  C   UNL     1       3.128   7.010  18.007  0.00  0.00    +0.000 A 
ATOM      5  C   UNL     1       2.800   5.810  18.608  0.00  0.00    +0.000 A 
ATOM      6  C   UNL     1       3.721   4.759  18.289  0.00  0.00    +0.000 A 
ENDROOT
BRANCH   4   7
ATOM      7  C   UNL     1       2.434   8.288  18.141  0.00  0.00    +0.000 C 
ATOM      8  O   UNL     1       2.504   9.174  17.294  0.00  0.00    +0.000 OA
ATOM      9  N   UNL     1       1.684   8.434  19.292  0.00  0.00    +0.000 N 
ATOM     10  H   UNL     1       1.755   7.699  19.983  0.00  0.00    +0.000 HD
BRANCH   9  11
ATOM     11  C   UNL     1       0.963   9.648  19.632  0.00  0.00    +0.000 C 
ATOM     12  C   UNL     1      -0.186   9.858  18.650  0.00  0.00    +0.000 C 
ATOM     13  C   UNL     1       0.440   9.580  21.064  0.00  0.00    +0.000 C 
ENDBRANCH   9  11
ENDBRANCH   4   7
BRANCH   6  14
ATOM     14  S   UNL     1       3.578   3.150  18.959  0.00  0.00    +0.000 S 
ATOM     15  O   UNL     1       3.310   2.303  17.819  0.00  0.00    +0.000 OA
ATOM     16  O   UNL     1       4.780   2.990  19.751  0.00  0.00    +0.000 OA
BRANCH  14  17
ATOM     17  N   UNL     1       2.234   3.114  19.990  0.00  0.00    +0.000 NA
ATOM     18  C   UNL     1       0.972   2.588  19.444  0.00  0.00    +0.000 C 
ATOM     19  C   UNL     1       2.476   2.711  21.384  0.00  0.00    +0.000 C 
ENDBRANCH  14  17
ENDBRANCH   6  14
TORSDOF 4
ENDMDL
MODEL 8
REMARK VINA RESULT:      -5.8      1.330      1.427
REMARK  Name = 
REMARK  9 active torsions:
REMARK  status: ('A' for Active; 'I' for Inactive)
REMARK    1  A    between atoms: C_1  and  C_2
REMARK    2  A    between atoms: C_4  and  C_5
REMARK    3  A    between atoms: N_7  and  C_8
REMARK    4  A    between atoms: C_8  and  C_9
REMARK    5  A    between atoms: C_8  and  C_10
REMARK    6  A    between atoms: C_12  and  S_13
REMARK    7  A    between atoms: S_13  and  N_16
REMARK    8  A    between atoms: N_16  and  C_17
REMARK    9  A    between atoms: N_16  and  C_18
REMARK                            x       y       z     vdW  Elec       q    Type
REMARK                         _______ _______ _______ _____ _____    ______ ____
ROOT
ATOM      1  C   UNL     1       4.437   6.673  18.169  0.00  0.00    +0.000 C 
ATOM      2  C   UNL     1       4.741   5.585  17.189  0.00  0.00    +0.000 A 
ATOM      3  S   UNL     1       5.301   6.032  15.633  0.00  0.00    +0.000 S 
ATOM      4  C   UNL     1       5.402   4.411  15.099  0.00  0.00    +0.000 A 
ATOM      5  C   UNL     1       5.023   3.537  16.100  0.00  0.00    +0.000 A 
ATOM      6  C   UNL     1       4.618   4.210  17.300  0.00  0.00    +0.000 A 
ENDROOT
BRANCH   4   7
ATOM      7  C   UNL     1       5.832   4.074  13.745  0.00  0.00    +0.000 C 
ATOM      8  O   UNL     1       6.984   4.240  13.354  0.00  0.00    +0.000 OA
ATOM      9  N   UNL     1       4.851   3.548  12.927  0.00  0.00    +0.000 N 
ATOM     10  H   UNL     1       3.908   3.533  13.292  0.00  0.00    +0.000 HD
BRANCH   9  11
ATOM     11  C   UNL     1       5.069   3.198  11.534  0.00  0.00    +0.000 C 
ATOM     12  C   UNL     1       5.823   1.875  11.447  0.00  0.00    +0.000 C 
ATOM     13  C   UNL     1       3.741   3.109  10.787  0.00  0.00    +0.000 C 
ENDBRANCH   9  11
ENDBRANCH   4   7
BRANCH   6  14
ATOM     14  S   UNL     1       4.036   3.350  18.707  0.00  0.00    +0.000 S 
ATOM     15  O   UNL     1       3.671   2.042  18.210  0.00  0.00    +0.000 OA
ATOM     16  O   UNL     1       5.093   3.516  19.683  0.00  0.00    +0.000 OA
BRANCH  14  17
ATOM     17  N   UNL     1       2.641   4.126  19.273  0.00  0.00    +0.000 NA
ATOM     18  C   UNL     1       1.344   3.646  18.769  0.00  0.00    +0.000 C 
ATOM     19  C   UNL     1       2.612   4.485  20.699  0.00  0.00    +0.000 C 
ENDBRANCH  14  17
ENDBRANCH   6  14
TORSDOF 4
ENDMDL
MODEL 9
REMARK VINA RESULT:      -5.7      1.660      2.098
REMARK  Name = 
REMARK  9 active torsions:
REMARK  status: ('A' for Active; 'I' for Inactive)
REMARK    1  A    between atoms: C_1  and  C_2
REMARK    2  A    between atoms: C_4  and  C_5
REMARK    3  A    between atoms: N_7  and  C_8
REMARK    4  A    between atoms: C_8  and  C_9
REMARK    5  A    between atoms: C_8  and  C_10
REMARK    6  A    between atoms: C_12  and  S_13
REMARK    7  A    between atoms: S_13  and  N_16
REMARK    8  A    between atoms: N_16  and  C_17
REMARK    9  A    between atoms: N_16  and  C_18
REMARK                            x       y       z     vdW  Elec       q    Type
REMARK                         _______ _______ _______ _____ _____    ______ ____
ROOT
ATOM      1  C   UNL     1       3.655   5.751  19.680  0.00  0.00    +0.000 C 
ATOM      2  C   UNL     1       4.186   5.041  18.476  0.00  0.00    +0.000 A 
ATOM      3  S   UNL     1       4.742   5.987  17.159  0.00  0.00    +0.000 S 
ATOM      4  C   UNL     1       5.140   4.616  16.218  0.00  0.00    +0.000 A 
ATOM      5  C   UNL     1       4.862   3.449  16.905  0.00  0.00    +0.000 A 
ATOM      6  C   UNL     1       4.290   3.688  18.197  0.00  0.00    +0.000 A 
ENDROOT
BRANCH   4   7
ATOM      7  C   UNL     1       5.690   4.742  14.872  0.00  0.00    +0.000 C 
ATOM      8  O   UNL     1       5.954   5.827  14.361  0.00  0.00    +0.000 OA
ATOM      9  N   UNL     1       5.899   3.551  14.205  0.00  0.00    +0.000 N 
ATOM     10  H   UNL     1       5.567   2.708  14.655  0.00  0.00    +0.000 HD
BRANCH   9  11
ATOM     11  C   UNL     1       6.391   3.469  12.841  0.00  0.00    +0.000 C 
ATOM     12  C   UNL     1       5.215   3.426  11.869  0.00  0.00    +0.000 C 
ATOM     13  C   UNL     1       7.305   4.652  12.526  0.00  0.00    +0.000 C 
ENDBRANCH   9  11
ENDBRANCH   4   7
BRANCH   6  14
ATOM     14  S   UNL     1       3.789   2.390  19.256  0.00  0.00    +0.000 S 
ATOM     15  O   UNL     1       3.562   1.267  18.375  0.00  0.00    +0.000 OA
ATOM     16  O   UNL     1       4.815   2.351  20.277  0.00  0.00    +0.000 OA
BRANCH  14  17
ATOM     17  N   UNL     1       2.317   2.821  19.977  0.00  0.00    +0.000 NA
ATOM     18  C   UNL     1       1.080   2.473  19.257  0.00  0.00    +0.000 C 
ATOM     19  C   UNL     1       2.211   2.640  21.432  0.00  0.00    +0.000 C 
ENDBRANCH  14  17
ENDBRANCH   6  14
TORSDOF 4
ENDMDL
