MODEL 1
REMARK VINA RESULT:      -9.2      0.000      0.000
REMARK  Name = 
REMARK  4 active torsions:
REMARK  status: ('A' for Active; 'I' for Inactive)
REMARK    1  A    between atoms: N_3  and  C_4
REMARK    2  A    between atoms: C_7  and  C_8
REMARK    3  A    between atoms: C_11  and  C_12
REMARK    4  A    between atoms: C_12  and  C_13
REMARK                            x       y       z     vdW  Elec       q    Type
REMARK                         _______ _______ _______ _____ _____    ______ ____
ROOT
ATOM      1  C   UNL     1       1.357   8.966  19.439  0.00  0.00    +0.000 A 
ATOM      2  C   UNL     1       1.862   9.134  18.136  0.00  0.00    +0.000 A 
ATOM      3  C   UNL     1       2.689   8.157  17.579  0.00  0.00    +0.000 A 
ATOM      4  C   UNL     1       3.017   6.985  18.272  0.00  0.00    +0.000 A 
ATOM      5  C   UNL     1       2.487   6.816  19.560  0.00  0.00    +0.000 A 
ATOM      6  C   UNL     1       1.680   7.811  20.137  0.00  0.00    +0.000 A 
ENDROOT
BRANCH   1   9
ATOM      7  O   UNL     1      -1.201  10.248  18.592  0.00  0.00    +0.000 OA
ATOM      8  C   UNL     1      -0.612  10.528  19.631  0.00  0.00    +0.000 C 
ATOM      9  N   UNL     1       0.568   9.951  20.063  0.00  0.00    +0.000 N 
ATOM     10  N   UNL     1      -1.131  11.488  20.470  0.00  0.00    +0.000 N 
ATOM     11  C   UNL     1      -0.685  11.821  21.809  0.00  0.00    +0.000 C 
ATOM     12  C   UNL     1      -1.892  12.514  22.348  0.00  0.00    +0.000 A 
ATOM     13  C   UNL     1      -2.748  12.122  23.357  0.00  0.00    +0.000 A 
ATOM     14  C   UNL     1      -3.968  12.792  23.490  0.00  0.00    +0.000 A 
ATOM     15  C   UNL     1      -4.256  13.893  22.676  0.00  0.00    +0.000 A 
ATOM     16  C   UNL     1      -3.479  14.130  21.549  0.00  0.00    +0.000 A 
ATOM     17  C   UNL     1      -2.447  13.246  21.300  0.00  0.00    +0.000 A 
ATOM     18  C   UNL     1      -2.364  12.232  20.150  0.00  0.00    +0.000 C 
ATOM     19  H   UNL     1       0.955  10.320  20.928  0.00  0.00    +0.000 HD
ENDBRANCH   1   9
BRANCH   4  20
ATOM     20  C   UNL     1       3.875   5.968  17.655  0.00  0.00    +0.000 A 
ATOM     21  N   UNL     1       3.546   4.666  17.579  0.00  0.00    +0.000 NA
ATOM     22  O   UNL     1       4.653   4.076  16.953  0.00  0.00    +0.000 OA
ATOM     23  C   UNL     1       5.544   5.082  16.722  0.00  0.00    +0.000 A 
ATOM     24  N   UNL     1       5.119   6.258  17.129  0.00  0.00    +0.000 NA
BRANCH  23  25
ATOM     25  C   UNL     1       6.863   4.695  16.162  0.00  0.00    +0.000 C 
BRANCH  25  26
ATOM     26  C   UNL     1       6.862   4.553  14.660  0.00  0.00    +0.000 A 
ATOM     27  C   UNL     1       7.721   5.332  13.872  0.00  0.00    +0.000 A 
ATOM     28  C   UNL     1       7.741   5.176  12.486  0.00  0.00    +0.000 A 
ATOM     29  C   UNL     1       6.897   4.250  11.876  0.00  0.00    +0.000 A 
ATOM     30  C   UNL     1       6.022   3.487  12.648  0.00  0.00    +0.000 A 
ATOM     31  C   UNL     1       6.001   3.641  14.035  0.00  0.00    +0.000 A 
ENDBRANCH  25  26
ENDBRANCH  23  25
ENDBRANCH   4  20
TORSDOF 4
ENDMDL
MODEL 2
REMARK VINA RESULT:      -9.1      0.129      1.251
REMARK  Name = 
REMARK  4 active torsions:
REMARK  status: ('A' for Active; 'I' for Inactive)
REMARK    1  A    between atoms: N_3  and  C_4
REMARK    2  A    between atoms: C_7  and  C_8
REMARK    3  A    between atoms: C_11  and  C_12
REMARK    4  A    between atoms: C_12  and  C_13
REMARK                            x       y       z     vdW  Elec       q    Type
REMARK                         _______ _______ _______ _____ _____    ______ ____
ROOT
ATOM      1  C   UNL     1       1.364   9.000  19.544  0.00  0.00    +0.000 A 
ATOM      2  C   UNL     1       1.718   7.822  20.228  0.00  0.00    +0.000 A 
ATOM      3  C   UNL     1       2.482   6.848  19.584  0.00  0.00    +0.000 A 
ATOM      4  C   UNL     1       2.939   7.016  18.270  0.00  0.00    +0.000 A 
ATOM      5  C   UNL     1       2.602   8.206  17.608  0.00  0.00    +0.000 A 
ATOM      6  C   UNL     1       1.806   9.175  18.241  0.00  0.00    +0.000 A 
ENDROOT
BRANCH   1   9
ATOM      7  O   UNL     1      -1.215  10.199  18.637  0.00  0.00    +0.000 OA
ATOM      8  C   UNL     1      -0.643  10.521  19.673  0.00  0.00    +0.000 C 
ATOM      9  N   UNL     1       0.546   9.984  20.132  0.00  0.00    +0.000 N 
ATOM     10  N   UNL     1      -1.192  11.491  20.480  0.00  0.00    +0.000 N 
ATOM     11  C   UNL     1      -0.769  11.871  21.814  0.00  0.00    +0.000 C 
ATOM     12  C   UNL     1      -1.996  12.550  22.322  0.00  0.00    +0.000 A 
ATOM     13  C   UNL     1      -2.854  12.166  23.332  0.00  0.00    +0.000 A 
ATOM     14  C   UNL     1      -4.091  12.811  23.435  0.00  0.00    +0.000 A 
ATOM     15  C   UNL     1      -4.395  13.883  22.588  0.00  0.00    +0.000 A 
ATOM     16  C   UNL     1      -3.612  14.107  21.463  0.00  0.00    +0.000 A 
ATOM     17  C   UNL     1      -2.557  13.240  21.249  0.00  0.00    +0.000 A 
ATOM     18  C   UNL     1      -2.439  12.197  20.128  0.00  0.00    +0.000 C 
ATOM     19  H   UNL     1       0.914  10.385  20.991  0.00  0.00    +0.000 HD
ENDBRANCH   1   9
BRANCH   4  20
ATOM     20  C   UNL     1       3.754   5.982  17.626  0.00  0.00    +0.000 A 
ATOM     21  N   UNL     1       3.329   4.723  17.421  0.00  0.00    +0.000 NA
ATOM     22  O   UNL     1       4.427   4.091  16.819  0.00  0.00    +0.000 OA
ATOM     23  C   UNL     1       5.408   5.032  16.728  0.00  0.00    +0.000 A 
ATOM     24  N   UNL     1       5.051   6.206  17.205  0.00  0.00    +0.000 NA
BRANCH  23  25
ATOM     25  C   UNL     1       6.728   4.580  16.223  0.00  0.00    +0.000 C 
BRANCH  25  26
ATOM     26  C   UNL     1       6.787   4.454  14.720  0.00  0.00    +0.000 A 
ATOM     27  C   UNL     1       5.947   3.554  14.048  0.00  0.00    +0.000 A 
ATOM     28  C   UNL     1       5.981   3.463  12.657  0.00  0.00    +0.000 A 
ATOM     29  C   UNL     1       6.860   4.261  11.927  0.00  0.00    +0.000 A 
ATOM     30  C   UNL     1       7.715   5.143  12.586  0.00  0.00    +0.000 A 
ATOM     31  C   UNL     1       7.683   5.236  13.978  0.00  0.00    +0.000 A 
ENDBRANCH  25  26
ENDBRANCH  23  25
ENDBRANCH   4  20
TORSDOF 4
ENDMDL
MODEL 3
REMARK VINA RESULT:      -8.9      1.242      1.769
REMARK  Name = 
REMARK  4 active torsions:
REMARK  status: ('A' for Active; 'I' for Inactive)
REMARK    1  A    between atoms: N_3  and  C_4
REMARK    2  A    between atoms: C_7  and  C_8
REMARK    3  A    between atoms: C_11  and  C_12
REMARK    4  A    between atoms: C_12  and  C_13
REMARK                            x       y       z     vdW  Elec       q    Type
REMARK                         _______ _______ _______ _____ _____    ______ ____
ROOT
ATOM      1  C   UNL     1       1.392   8.882  19.642  0.00  0.00    +0.000 A 
ATOM      2  C   UNL     1       1.771   7.706  20.317  0.00  0.00    +0.000 A 
ATOM      3  C   UNL     1       2.524   6.737  19.654  0.00  0.00    +0.000 A 
ATOM      4  C   UNL     1       2.945   6.907  18.328  0.00  0.00    +0.000 A 
ATOM      5  C   UNL     1       2.584   8.094  17.675  0.00  0.00    +0.000 A 
ATOM      6  C   UNL     1       1.799   9.059  18.328  0.00  0.00    +0.000 A 
ENDROOT
BRANCH   1   9
ATOM      7  O   UNL     1       0.050   8.927  22.308  0.00  0.00    +0.000 OA
ATOM      8  C   UNL     1      -0.030   9.839  21.491  0.00  0.00    +0.000 C 
ATOM      9  N   UNL     1       0.584   9.861  20.252  0.00  0.00    +0.000 N 
ATOM     10  N   UNL     1      -0.778  10.955  21.789  0.00  0.00    +0.000 N 
ATOM     11  C   UNL     1      -0.843  12.197  21.042  0.00  0.00    +0.000 C 
ATOM     12  C   UNL     1      -1.368  13.129  22.082  0.00  0.00    +0.000 A 
ATOM     13  C   UNL     1      -0.748  14.202  22.690  0.00  0.00    +0.000 A 
ATOM     14  C   UNL     1      -1.335  14.746  23.836  0.00  0.00    +0.000 A 
ATOM     15  C   UNL     1      -2.570  14.267  24.287  0.00  0.00    +0.000 A 
ATOM     16  C   UNL     1      -3.060  13.067  23.786  0.00  0.00    +0.000 A 
ATOM     17  C   UNL     1      -2.281  12.411  22.852  0.00  0.00    +0.000 A 
ATOM     18  C   UNL     1      -1.530  11.087  23.052  0.00  0.00    +0.000 C 
ATOM     19  H   UNL     1       0.388  10.672  19.671  0.00  0.00    +0.000 HD
ENDBRANCH   1   9
BRANCH   4  20
ATOM     20  C   UNL     1       3.749   5.877  17.662  0.00  0.00    +0.000 A 
ATOM     21  N   UNL     1       3.320   4.619  17.456  0.00  0.00    +0.000 NA
ATOM     22  O   UNL     1       4.408   3.993  16.830  0.00  0.00    +0.000 OA
ATOM     23  C   UNL     1       5.388   4.934  16.730  0.00  0.00    +0.000 A 
ATOM     24  N   UNL     1       5.039   6.104  17.222  0.00  0.00    +0.000 NA
BRANCH  23  25
ATOM     25  C   UNL     1       6.699   4.485  16.199  0.00  0.00    +0.000 C 
BRANCH  25  26
ATOM     26  C   UNL     1       6.751   4.428  14.693  0.00  0.00    +0.000 A 
ATOM     27  C   UNL     1       7.646   5.238  13.980  0.00  0.00    +0.000 A 
ATOM     28  C   UNL     1       7.714   5.160  12.589  0.00  0.00    +0.000 A 
ATOM     29  C   UNL     1       6.883   4.281  11.899  0.00  0.00    +0.000 A 
ATOM     30  C   UNL     1       5.973   3.487  12.595  0.00  0.00    +0.000 A 
ATOM     31  C   UNL     1       5.903   3.563  13.986  0.00  0.00    +0.000 A 
ENDBRANCH  25  26
ENDBRANCH  23  25
ENDBRANCH   4  20
TORSDOF 4
ENDMDL
MODEL 4
REMARK VINA RESULT:      -8.9      2.266      3.658
REMARK  Name = 
REMARK  4 active torsions:
REMARK  status: ('A' for Active; 'I' for Inactive)
REMARK    1  A    between atoms: N_3  and  C_4
REMARK    2  A    between atoms: C_7  and  C_8
REMARK    3  A    between atoms: C_11  and  C_12
REMARK    4  A    between atoms: C_12  and  C_13
REMARK                            x       y       z     vdW  Elec       q    Type
REMARK                         _______ _______ _______ _____ _____    ______ ____
ROOT
ATOM      1  C   UNL     1      -0.322  10.421  21.577  0.00  0.00    +0.000 A 
ATOM      2  C   UNL     1      -0.182  10.529  20.181  0.00  0.00    +0.000 A 
ATOM      3  C   UNL     1       0.635   9.632  19.492  0.00  0.00    +0.000 A 
ATOM      4  C   UNL     1       1.310   8.594  20.149  0.00  0.00    +0.000 A 
ATOM      5  C   UNL     1       1.143   8.480  21.537  0.00  0.00    +0.000 A 
ATOM      6  C   UNL     1       0.347   9.401  22.239  0.00  0.00    +0.000 A 
ENDROOT
BRANCH   1   9
ATOM      7  O   UNL     1       0.146  13.300  22.209  0.00  0.00    +0.000 OA
ATOM      8  C   UNL     1      -0.830  12.669  22.600  0.00  0.00    +0.000 C 
ATOM      9  N   UNL     1      -1.088  11.339  22.321  0.00  0.00    +0.000 N 
ATOM     10  N   UNL     1      -1.777  13.293  23.379  0.00  0.00    +0.000 N 
ATOM     11  C   UNL     1      -3.071  12.774  23.778  0.00  0.00    +0.000 C 
ATOM     12  C   UNL     1      -3.786  14.034  24.137  0.00  0.00    +0.000 A 
ATOM     13  C   UNL     1      -4.864  14.634  23.520  0.00  0.00    +0.000 A 
ATOM     14  C   UNL     1      -5.177  15.953  23.864  0.00  0.00    +0.000 A 
ATOM     15  C   UNL     1      -4.466  16.600  24.881  0.00  0.00    +0.000 A 
ATOM     16  C   UNL     1      -3.271  16.053  25.331  0.00  0.00    +0.000 A 
ATOM     17  C   UNL     1      -2.853  14.878  24.736  0.00  0.00    +0.000 A 
ATOM     18  C   UNL     1      -1.646  14.700  23.804  0.00  0.00    +0.000 C 
ATOM     19  H   UNL     1      -1.921  10.946  22.751  0.00  0.00    +0.000 HD
ENDBRANCH   1   9
BRANCH   4  20
ATOM     20  C   UNL     1       2.149   7.656  19.396  0.00  0.00    +0.000 A 
ATOM     21  N   UNL     1       2.651   7.924  18.177  0.00  0.00    +0.000 NA
ATOM     22  O   UNL     1       3.347   6.754  17.837  0.00  0.00    +0.000 OA
ATOM     23  C   UNL     1       3.188   5.896  18.883  0.00  0.00    +0.000 A 
ATOM     24  N   UNL     1       2.466   6.395  19.863  0.00  0.00    +0.000 NA
BRANCH  23  25
ATOM     25  C   UNL     1       3.742   4.529  18.719  0.00  0.00    +0.000 C 
BRANCH  25  26
ATOM     26  C   UNL     1       4.924   4.466  17.784  0.00  0.00    +0.000 A 
ATOM     27  C   UNL     1       4.755   4.073  16.449  0.00  0.00    +0.000 A 
ATOM     28  C   UNL     1       5.845   4.047  15.579  0.00  0.00    +0.000 A 
ATOM     29  C   UNL     1       7.112   4.401  16.037  0.00  0.00    +0.000 A 
ATOM     30  C   UNL     1       7.296   4.771  17.368  0.00  0.00    +0.000 A 
ATOM     31  C   UNL     1       6.208   4.798  18.241  0.00  0.00    +0.000 A 
ENDBRANCH  25  26
ENDBRANCH  23  25
ENDBRANCH   4  20
TORSDOF 4
ENDMDL
MODEL 5
REMARK VINA RESULT:      -8.7      1.074      1.956
REMARK  Name = 
REMARK  4 active torsions:
REMARK  status: ('A' for Active; 'I' for Inactive)
REMARK    1  A    between atoms: N_3  and  C_4
REMARK    2  A    between atoms: C_7  and  C_8
REMARK    3  A    between atoms: C_11  and  C_12
REMARK    4  A    between atoms: C_12  and  C_13
REMARK                            x       y       z     vdW  Elec       q    Type
REMARK                         _______ _______ _______ _____ _____    ______ ____
ROOT
ATOM      1  C   UNL     1       1.297   8.897  19.459  0.00  0.00    +0.000 A 
ATOM      2  C   UNL     1       1.678   7.746  20.175  0.00  0.00    +0.000 A 
ATOM      3  C   UNL     1       2.542   6.819  19.591  0.00  0.00    +0.000 A 
ATOM      4  C   UNL     1       3.073   7.010  18.308  0.00  0.00    +0.000 A 
ATOM      5  C   UNL     1       2.707   8.173  17.616  0.00  0.00    +0.000 A 
ATOM      6  C   UNL     1       1.813   9.094  18.187  0.00  0.00    +0.000 A 
ENDROOT
BRANCH   1   9
ATOM      7  O   UNL     1       1.032  10.044  22.202  0.00  0.00    +0.000 OA
ATOM      8  C   UNL     1       0.287  10.330  21.271  0.00  0.00    +0.000 C 
ATOM      9  N   UNL     1       0.382   9.829  19.985  0.00  0.00    +0.000 N 
ATOM     10  N   UNL     1      -0.742  11.222  21.472  0.00  0.00    +0.000 N 
ATOM     11  C   UNL     1      -1.601  11.817  20.466  0.00  0.00    +0.000 C 
ATOM     12  C   UNL     1      -2.120  13.007  21.201  0.00  0.00    +0.000 A 
ATOM     13  C   UNL     1      -1.893  14.348  20.967  0.00  0.00    +0.000 A 
ATOM     14  C   UNL     1      -2.252  15.267  21.958  0.00  0.00    +0.000 A 
ATOM     15  C   UNL     1      -2.913  14.830  23.112  0.00  0.00    +0.000 A 
ATOM     16  C   UNL     1      -2.940  13.474  23.410  0.00  0.00    +0.000 A 
ATOM     17  C   UNL     1      -2.302  12.623  22.528  0.00  0.00    +0.000 A 
ATOM     18  C   UNL     1      -1.014  11.829  22.789  0.00  0.00    +0.000 C 
ATOM     19  H   UNL     1      -0.337  10.133  19.333  0.00  0.00    +0.000 HD
ENDBRANCH   1   9
BRANCH   4  20
ATOM     20  C   UNL     1       3.992   6.026  17.727  0.00  0.00    +0.000 A 
ATOM     21  N   UNL     1       3.786   4.698  17.779  0.00  0.00    +0.000 NA
ATOM     22  O   UNL     1       4.912   4.159  17.139  0.00  0.00    +0.000 OA
ATOM     23  C   UNL     1       5.688   5.217  16.772  0.00  0.00    +0.000 A 
ATOM     24  N   UNL     1       5.174   6.382  17.105  0.00  0.00    +0.000 NA
BRANCH  23  25
ATOM     25  C   UNL     1       7.007   4.905  16.168  0.00  0.00    +0.000 C 
BRANCH  25  26
ATOM     26  C   UNL     1       6.944   4.644  14.684  0.00  0.00    +0.000 A 
ATOM     27  C   UNL     1       6.053   3.694  14.166  0.00  0.00    +0.000 A 
ATOM     28  C   UNL     1       5.974   3.477  12.790  0.00  0.00    +0.000 A 
ATOM     29  C   UNL     1       6.791   4.199  11.923  0.00  0.00    +0.000 A 
ATOM     30  C   UNL     1       7.697   5.131  12.428  0.00  0.00    +0.000 A 
ATOM     31  C   UNL     1       7.778   5.349  13.804  0.00  0.00    +0.000 A 
ENDBRANCH  25  26
ENDBRANCH  23  25
ENDBRANCH   4  20
TORSDOF 4
ENDMDL
MODEL 6
REMARK VINA RESULT:      -8.7      2.268     12.024
REMARK  Name = 
REMARK  4 active torsions:
REMARK  status: ('A' for Active; 'I' for Inactive)
REMARK    1  A    between atoms: N_3  and  C_4
REMARK    2  A    between atoms: C_7  and  C_8
REMARK    3  A    between atoms: C_11  and  C_12
REMARK    4  A    between atoms: C_12  and  C_13
REMARK                            x       y       z     vdW  Elec       q    Type
REMARK                         _______ _______ _______ _____ _____    ______ ____
ROOT
ATOM      1  C   UNL     1       1.320   8.751  20.093  0.00  0.00    +0.000 A 
ATOM      2  C   UNL     1       0.581   9.684  19.342  0.00  0.00    +0.000 A 
ATOM      3  C   UNL     1      -0.294  10.559  19.987  0.00  0.00    +0.000 A 
ATOM      4  C   UNL     1      -0.444  10.559  21.380  0.00  0.00    +0.000 A 
ATOM      5  C   UNL     1       0.318   9.643  22.120  0.00  0.00    +0.000 A 
ATOM      6  C   UNL     1       1.176   8.739  21.472  0.00  0.00    +0.000 A 
ENDROOT
BRANCH   1   9
ATOM      7  O   UNL     1       2.779   8.837  17.490  0.00  0.00    +0.000 OA
ATOM      8  C   UNL     1       2.822   7.885  18.262  0.00  0.00    +0.000 C 
ATOM      9  N   UNL     1       2.170   7.810  19.480  0.00  0.00    +0.000 N 
ATOM     10  N   UNL     1       3.571   6.778  17.935  0.00  0.00    +0.000 N 
ATOM     11  C   UNL     1       3.889   5.647  18.786  0.00  0.00    +0.000 C 
ATOM     12  C   UNL     1       5.079   5.086  18.082  0.00  0.00    +0.000 A 
ATOM     13  C   UNL     1       6.394   5.026  18.496  0.00  0.00    +0.000 A 
ATOM     14  C   UNL     1       7.376   4.716  17.550  0.00  0.00    +0.000 A 
ATOM     15  C   UNL     1       7.007   4.381  16.242  0.00  0.00    +0.000 A 
ATOM     16  C   UNL     1       5.715   4.648  15.807  0.00  0.00    +0.000 A 
ATOM     17  C   UNL     1       4.856   5.238  16.715  0.00  0.00    +0.000 A 
ATOM     18  C   UNL     1       4.304   6.670  16.659  0.00  0.00    +0.000 C 
ATOM     19  H   UNL     1       2.273   6.936  19.988  0.00  0.00    +0.000 HD
ENDBRANCH   1   9
BRANCH   4  20
ATOM     20  C   UNL     1      -1.359  11.502  22.032  0.00  0.00    +0.000 A 
ATOM     21  N   UNL     1      -1.437  11.657  23.366  0.00  0.00    +0.000 NA
ATOM     22  O   UNL     1      -2.446  12.617  23.533  0.00  0.00    +0.000 OA
ATOM     23  C   UNL     1      -2.880  12.938  22.282  0.00  0.00    +0.000 A 
ATOM     24  N   UNL     1      -2.251  12.288  21.328  0.00  0.00    +0.000 NA
BRANCH  23  25
ATOM     25  C   UNL     1      -4.038  13.863  22.190  0.00  0.00    +0.000 C 
BRANCH  25  26
ATOM     26  C   UNL     1      -5.371  13.179  22.368  0.00  0.00    +0.000 A 
ATOM     27  C   UNL     1      -6.022  12.593  21.274  0.00  0.00    +0.000 A 
ATOM     28  C   UNL     1      -7.239  11.934  21.448  0.00  0.00    +0.000 A 
ATOM     29  C   UNL     1      -7.820  11.865  22.712  0.00  0.00    +0.000 A 
ATOM     30  C   UNL     1      -7.192  12.464  23.804  0.00  0.00    +0.000 A 
ATOM     31  C   UNL     1      -5.975  13.123  23.632  0.00  0.00    +0.000 A 
ENDBRANCH  25  26
ENDBRANCH  23  25
ENDBRANCH   4  20
TORSDOF 4
ENDMDL
MODEL 7
REMARK VINA RESULT:      -8.6      2.548     12.172
REMARK  Name = 
REMARK  4 active torsions:
REMARK  status: ('A' for Active; 'I' for Inactive)
REMARK    1  A    between atoms: N_3  and  C_4
REMARK    2  A    between atoms: C_7  and  C_8
REMARK    3  A    between atoms: C_11  and  C_12
REMARK    4  A    between atoms: C_12  and  C_13
REMARK                            x       y       z     vdW  Elec       q    Type
REMARK                         _______ _______ _______ _____ _____    ______ ____
ROOT
ATOM      1  C   UNL     1       1.068   8.732  20.938  0.00  0.00    +0.000 A 
ATOM      2  C   UNL     1       0.385   8.447  22.135  0.00  0.00    +0.000 A 
ATOM      3  C   UNL     1      -0.400   9.430  22.738  0.00  0.00    +0.000 A 
ATOM      4  C   UNL     1      -0.556  10.702  22.170  0.00  0.00    +0.000 A 
ATOM      5  C   UNL     1       0.108  10.965  20.963  0.00  0.00    +0.000 A 
ATOM      6  C   UNL     1       0.925   9.989  20.369  0.00  0.00    +0.000 A 
ENDROOT
BRANCH   1   9
ATOM      7  O   UNL     1       2.045   8.517  18.126  0.00  0.00    +0.000 OA
ATOM      8  C   UNL     1       2.340   7.720  19.010  0.00  0.00    +0.000 C 
ATOM      9  N   UNL     1       1.918   7.791  20.325  0.00  0.00    +0.000 N 
ATOM     10  N   UNL     1       3.161   6.655  18.720  0.00  0.00    +0.000 N 
ATOM     11  C   UNL     1       3.763   5.725  19.657  0.00  0.00    +0.000 C 
ATOM     12  C   UNL     1       4.880   5.174  18.836  0.00  0.00    +0.000 A 
ATOM     13  C   UNL     1       6.242   5.319  19.001  0.00  0.00    +0.000 A 
ATOM     14  C   UNL     1       7.082   4.952  17.945  0.00  0.00    +0.000 A 
ATOM     15  C   UNL     1       6.546   4.362  16.795  0.00  0.00    +0.000 A 
ATOM     16  C   UNL     1       5.176   4.419  16.574  0.00  0.00    +0.000 A 
ATOM     17  C   UNL     1       4.412   5.066  17.527  0.00  0.00    +0.000 A 
ATOM     18  C   UNL     1       3.678   6.404  17.360  0.00  0.00    +0.000 C 
ATOM     19  H   UNL     1       2.217   7.031  20.932  0.00  0.00    +0.000 HD
ENDBRANCH   1   9
BRANCH   4  20
ATOM     20  C   UNL     1      -1.402  11.710  22.818  0.00  0.00    +0.000 A 
ATOM     21  N   UNL     1      -0.984  12.956  23.102  0.00  0.00    +0.000 NA
ATOM     22  O   UNL     1      -2.090  13.544  23.734  0.00  0.00    +0.000 OA
ATOM     23  C   UNL     1      -3.061  12.590  23.774  0.00  0.00    +0.000 A 
ATOM     24  N   UNL     1      -2.696  11.450  23.228  0.00  0.00    +0.000 NA
BRANCH  23  25
ATOM     25  C   UNL     1      -4.308  12.931  24.503  0.00  0.00    +0.000 C 
BRANCH  25  26
ATOM     26  C   UNL     1      -5.524  13.009  23.613  0.00  0.00    +0.000 A 
ATOM     27  C   UNL     1      -5.406  13.434  22.282  0.00  0.00    +0.000 A 
ATOM     28  C   UNL     1      -6.526  13.474  21.453  0.00  0.00    +0.000 A 
ATOM     29  C   UNL     1      -7.774  13.101  21.948  0.00  0.00    +0.000 A 
ATOM     30  C   UNL     1      -7.907  12.697  23.276  0.00  0.00    +0.000 A 
ATOM     31  C   UNL     1      -6.788  12.656  24.107  0.00  0.00    +0.000 A 
ENDBRANCH  25  26
ENDBRANCH  23  25
ENDBRANCH   4  20
TORSDOF 4
ENDMDL
MODEL 8
REMARK VINA RESULT:      -8.6      6.669      9.306
REMARK  Name = 
REMARK  4 active torsions:
REMARK  status: ('A' for Active; 'I' for Inactive)
REMARK    1  A    between atoms: N_3  and  C_4
REMARK    2  A    between atoms: C_7  and  C_8
REMARK    3  A    between atoms: C_11  and  C_12
REMARK    4  A    between atoms: C_12  and  C_13
REMARK                            x       y       z     vdW  Elec       q    Type
REMARK                         _______ _______ _______ _____ _____    ______ ____
ROOT
ATOM      1  C   UNL     1       8.311   8.621  18.490  0.00  0.00    +0.000 A 
ATOM      2  C   UNL     1       8.534   7.376  19.107  0.00  0.00    +0.000 A 
ATOM      3  C   UNL     1       7.782   6.265  18.723  0.00  0.00    +0.000 A 
ATOM      4  C   UNL     1       6.816   6.341  17.711  0.00  0.00    +0.000 A 
ATOM      5  C   UNL     1       6.621   7.581  17.084  0.00  0.00    +0.000 A 
ATOM      6  C   UNL     1       7.354   8.709  17.489  0.00  0.00    +0.000 A 
ENDROOT
BRANCH   1   9
ATOM      7  O   UNL     1       8.332  11.374  17.339  0.00  0.00    +0.000 OA
ATOM      8  C   UNL     1       8.995  11.041  18.316  0.00  0.00    +0.000 C 
ATOM      9  N   UNL     1       9.004   9.780  18.885  0.00  0.00    +0.000 N 
ATOM     10  N   UNL     1       9.807  11.964  18.935  0.00  0.00    +0.000 N 
ATOM     11  C   UNL     1      10.514  11.813  20.192  0.00  0.00    +0.000 C 
ATOM     12  C   UNL     1      10.766  13.239  20.551  0.00  0.00    +0.000 A 
ATOM     13  C   UNL     1      10.253  13.982  21.595  0.00  0.00    +0.000 A 
ATOM     14  C   UNL     1      10.409  15.372  21.561  0.00  0.00    +0.000 A 
ATOM     15  C   UNL     1      11.154  15.969  20.538  0.00  0.00    +0.000 A 
ATOM     16  C   UNL     1      11.475  15.228  19.407  0.00  0.00    +0.000 A 
ATOM     17  C   UNL     1      11.032  13.920  19.365  0.00  0.00    +0.000 A 
ATOM     18  C   UNL     1       9.947  13.348  18.442  0.00  0.00    +0.000 C 
ATOM     19  H   UNL     1       9.638   9.650  19.670  0.00  0.00    +0.000 HD
ENDBRANCH   1   9
BRANCH   4  20
ATOM     20  C   UNL     1       6.052   5.152  17.317  0.00  0.00    +0.000 A 
ATOM     21  N   UNL     1       6.263   4.481  16.171  0.00  0.00    +0.000 NA
ATOM     22  O   UNL     1       5.302   3.459  16.199  0.00  0.00    +0.000 OA
ATOM     23  C   UNL     1       4.602   3.623  17.357  0.00  0.00    +0.000 A 
ATOM     24  N   UNL     1       5.019   4.641  18.079  0.00  0.00    +0.000 NA
BRANCH  23  25
ATOM     25  C   UNL     1       3.441   2.725  17.572  0.00  0.00    +0.000 C 
BRANCH  25  26
ATOM     26  C   UNL     1       2.744   2.946  18.891  0.00  0.00    +0.000 A 
ATOM     27  C   UNL     1       1.533   3.650  18.947  0.00  0.00    +0.000 A 
ATOM     28  C   UNL     1       0.874   3.826  20.164  0.00  0.00    +0.000 A 
ATOM     29  C   UNL     1       1.425   3.310  21.335  0.00  0.00    +0.000 A 
ATOM     30  C   UNL     1       2.640   2.628  21.295  0.00  0.00    +0.000 A 
ATOM     31  C   UNL     1       3.301   2.451  20.079  0.00  0.00    +0.000 A 
ENDBRANCH  25  26
ENDBRANCH  23  25
ENDBRANCH   4  20
TORSDOF 4
ENDMDL
MODEL 9
REMARK VINA RESULT:      -8.6      1.106      1.546
REMARK  Name = 
REMARK  4 active torsions:
REMARK  status: ('A' for Active; 'I' for Inactive)
REMARK    1  A    between atoms: N_3  and  C_4
REMARK    2  A    between atoms: C_7  and  C_8
REMARK    3  A    between atoms: C_11  and  C_12
REMARK    4  A    between atoms: C_12  and  C_13
REMARK                            x       y       z     vdW  Elec       q    Type
REMARK                         _______ _______ _______ _____ _____    ______ ____
ROOT
ATOM      1  C   UNL     1       1.180   9.064  19.383  0.00  0.00    +0.000 A 
ATOM      2  C   UNL     1       1.763   9.267  18.119  0.00  0.00    +0.000 A 
ATOM      3  C   UNL     1       2.705   8.359  17.634  0.00  0.00    +0.000 A 
ATOM      4  C   UNL     1       3.077   7.221  18.361  0.00  0.00    +0.000 A 
ATOM      5  C   UNL     1       2.469   7.015  19.609  0.00  0.00    +0.000 A 
ATOM      6  C   UNL     1       1.544   7.943  20.115  0.00  0.00    +0.000 A 
ENDROOT
BRANCH   1   9
ATOM      7  O   UNL     1       1.085  10.337  22.081  0.00  0.00    +0.000 OA
ATOM      8  C   UNL     1       0.255  10.545  21.202  0.00  0.00    +0.000 C 
ATOM      9  N   UNL     1       0.269   9.984  19.938  0.00  0.00    +0.000 N 
ATOM     10  N   UNL     1      -0.794  11.403  21.444  0.00  0.00    +0.000 N 
ATOM     11  C   UNL     1      -1.757  11.910  20.486  0.00  0.00    +0.000 C 
ATOM     12  C   UNL     1      -2.268  13.114  21.204  0.00  0.00    +0.000 A 
ATOM     13  C   UNL     1      -2.121  14.449  20.888  0.00  0.00    +0.000 A 
ATOM     14  C   UNL     1      -2.441  15.401  21.861  0.00  0.00    +0.000 A 
ATOM     15  C   UNL     1      -2.987  14.997  23.085  0.00  0.00    +0.000 A 
ATOM     16  C   UNL     1      -2.929  13.658  23.449  0.00  0.00    +0.000 A 
ATOM     17  C   UNL     1      -2.325  12.790  22.558  0.00  0.00    +0.000 A 
ATOM     18  C   UNL     1      -0.986  12.064  22.750  0.00  0.00    +0.000 C 
ATOM     19  H   UNL     1      -0.513  10.224  19.334  0.00  0.00    +0.000 HD
ENDBRANCH   1   9
BRANCH   4  20
ATOM     20  C   UNL     1       4.058   6.276  17.818  0.00  0.00    +0.000 A 
ATOM     21  N   UNL     1       4.059   4.962  18.105  0.00  0.00    +0.000 NA
ATOM     22  O   UNL     1       5.170   4.467  17.406  0.00  0.00    +0.000 OA
ATOM     23  C   UNL     1       5.732   5.535  16.775  0.00  0.00    +0.000 A 
ATOM     24  N   UNL     1       5.093   6.665  16.990  0.00  0.00    +0.000 NA
BRANCH  23  25
ATOM     25  C   UNL     1       7.004   5.293  16.050  0.00  0.00    +0.000 C 
BRANCH  25  26
ATOM     26  C   UNL     1       6.809   4.807  14.635  0.00  0.00    +0.000 A 
ATOM     27  C   UNL     1       7.701   5.186  13.622  0.00  0.00    +0.000 A 
ATOM     28  C   UNL     1       7.535   4.710  12.322  0.00  0.00    +0.000 A 
ATOM     29  C   UNL     1       6.473   3.860  12.021  0.00  0.00    +0.000 A 
ATOM     30  C   UNL     1       5.566   3.494  13.015  0.00  0.00    +0.000 A 
ATOM     31  C   UNL     1       5.730   3.970  14.316  0.00  0.00    +0.000 A 
ENDBRANCH  25  26
ENDBRANCH  23  25
ENDBRANCH   4  20
TORSDOF 4
ENDMDL
