MODEL 1
REMARK VINA RESULT:      -8.1      0.000      0.000
REMARK  Name = 
REMARK  5 active torsions:
REMARK  status: ('A' for Active; 'I' for Inactive)
REMARK    1  A    between atoms: N_1  and  C_2
REMARK    2  A    between atoms: C_8  and  C_9
REMARK    3  A    between atoms: N_19  and  C_20
REMARK    4  A    between atoms: N_23  and  C_24
REMARK    5  A    between atoms: C_24  and  C_25
REMARK                            x       y       z     vdW  Elec       q    Type
REMARK                         _______ _______ _______ _____ _____    ______ ____
ROOT
ATOM      1  C   UNL     1       1.359   4.083  19.503  0.00  0.00    +0.000 A 
ATOM      2  N   UNL     1       1.147   2.758  19.397  0.00  0.00    +0.000 NA
ATOM      3  C   UNL     1       1.890   2.058  18.524  0.00  0.00    +0.000 A 
ATOM      4  N   UNL     1       2.872   2.514  17.728  0.00  0.00    +0.000 NA
ATOM      5  C   UNL     1       3.058   3.840  17.860  0.00  0.00    +0.000 A 
ATOM      6  C   UNL     1       2.309   4.695  18.658  0.00  0.00    +0.000 A 
ATOM      7  C   UNL     1       2.773   6.022  18.365  0.00  0.00    +0.000 A 
ATOM      8  C   UNL     1       3.851   5.902  17.515  0.00  0.00    +0.000 A 
ATOM      9  N   UNL     1       4.048   4.566  17.239  0.00  0.00    +0.000 N 
ENDROOT
BRANCH   7  10
ATOM     10  C   UNL     1       2.329   7.302  18.897  0.00  0.00    +0.000 A 
ATOM     11  C   UNL     1       1.940   8.333  18.016  0.00  0.00    +0.000 A 
ATOM     12  C   UNL     1       1.121   9.380  18.450  0.00  0.00    +0.000 A 
ATOM     13  C   UNL     1       0.762   9.363  19.779  0.00  0.00    +0.000 A 
ATOM     14  C   UNL     1       1.284   8.451  20.666  0.00  0.00    +0.000 A 
ATOM     15  C   UNL     1       2.104   7.427  20.272  0.00  0.00    +0.000 A 
ATOM     16  O   UNL     1       0.741   8.580  21.914  0.00  0.00    +0.000 OA
ATOM     17  C   UNL     1      -0.422   9.346  21.557  0.00  0.00    +0.000 C 
ATOM     18  O   UNL     1      -0.213  10.121  20.351  0.00  0.00    +0.000 OA
ENDBRANCH   7  10
BRANCH   9  19
ATOM     19  C   UNL     1       5.079   4.054  16.352  0.00  0.00    +0.000 C 
ATOM     20  C   UNL     1       5.126   4.716  14.974  0.00  0.00    +0.000 C 
ATOM     21  C   UNL     1       6.542   4.440  14.508  0.00  0.00    +0.000 C 
ATOM     22  N   UNL     1       7.378   4.623  15.703  0.00  0.00    +0.000 NA
ATOM     23  C   UNL     1       6.537   4.173  16.838  0.00  0.00    +0.000 C 
BRANCH  22  24
ATOM     24  C   UNL     1       7.792   6.032  15.840  0.00  0.00    +0.000 C 
BRANCH  24  25
ATOM     25  C   UNL     1       7.407   6.597  17.175  0.00  0.00    +0.000 C 
ATOM     26  C   UNL     1       7.882   7.953  17.624  0.00  0.00    +0.000 C 
ATOM     27  O   UNL     1       6.553   7.749  17.124  0.00  0.00    +0.000 OA
ENDBRANCH  24  25
ENDBRANCH  22  24
ENDBRANCH   9  19
BRANCH   1  28
ATOM     28  N   UNL     1       0.598   4.722  20.454  0.00  0.00    +0.000 N 
ATOM     29  H   UNL     1      -0.286   5.095  20.142  0.00  0.00    +0.000 HD
ATOM     30  H   UNL     1       0.912   4.861  21.395  0.00  0.00    +0.000 HD
ENDBRANCH   1  28
TORSDOF 5
ENDMDL
MODEL 2
REMARK VINA RESULT:      -8.1      1.950      3.023
REMARK  Name = 
REMARK  5 active torsions:
REMARK  status: ('A' for Active; 'I' for Inactive)
REMARK    1  A    between atoms: N_1  and  C_2
REMARK    2  A    between atoms: C_8  and  C_9
REMARK    3  A    between atoms: N_19  and  C_20
REMARK    4  A    between atoms: N_23  and  C_24
REMARK    5  A    between atoms: C_24  and  C_25
REMARK                            x       y       z     vdW  Elec       q    Type
REMARK                         _______ _______ _______ _____ _____    ______ ____
ROOT
ATOM      1  C   UNL     1       1.822   4.259  19.078  0.00  0.00    +0.000 A 
ATOM      2  N   UNL     1       2.018   3.003  18.636  0.00  0.00    +0.000 NA
ATOM      3  C   UNL     1       3.000   2.781  17.749  0.00  0.00    +0.000 A 
ATOM      4  N   UNL     1       3.866   3.673  17.238  0.00  0.00    +0.000 NA
ATOM      5  C   UNL     1       3.644   4.917  17.701  0.00  0.00    +0.000 A 
ATOM      6  C   UNL     1       2.616   5.301  18.552  0.00  0.00    +0.000 A 
ATOM      7  C   UNL     1       2.693   6.732  18.648  0.00  0.00    +0.000 A 
ATOM      8  C   UNL     1       3.822   7.130  17.968  0.00  0.00    +0.000 A 
ATOM      9  N   UNL     1       4.424   6.015  17.422  0.00  0.00    +0.000 N 
ENDROOT
BRANCH   7  10
ATOM     10  C   UNL     1       1.852   7.661  19.389  0.00  0.00    +0.000 A 
ATOM     11  C   UNL     1       1.654   7.480  20.774  0.00  0.00    +0.000 A 
ATOM     12  C   UNL     1       1.239   8.539  21.587  0.00  0.00    +0.000 A 
ATOM     13  C   UNL     1       1.000   9.737  20.953  0.00  0.00    +0.000 A 
ATOM     14  C   UNL     1       1.030   9.858  19.583  0.00  0.00    +0.000 A 
ATOM     15  C   UNL     1       1.413   8.832  18.761  0.00  0.00    +0.000 A 
ATOM     16  O   UNL     1       0.824  11.147  19.176  0.00  0.00    +0.000 OA
ATOM     17  C   UNL     1       1.096  11.805  20.426  0.00  0.00    +0.000 C 
ATOM     18  O   UNL     1       0.838  10.943  21.562  0.00  0.00    +0.000 OA
ENDBRANCH   7  10
BRANCH   9  19
ATOM     19  C   UNL     1       5.627   6.047  16.609  0.00  0.00    +0.000 C 
ATOM     20  C   UNL     1       6.585   4.875  16.834  0.00  0.00    +0.000 C 
ATOM     21  C   UNL     1       7.393   4.840  15.552  0.00  0.00    +0.000 C 
ATOM     22  N   UNL     1       6.421   5.110  14.482  0.00  0.00    +0.000 NA
ATOM     23  C   UNL     1       5.435   6.042  15.080  0.00  0.00    +0.000 C 
BRANCH  22  24
ATOM     24  C   UNL     1       5.795   3.858  14.017  0.00  0.00    +0.000 C 
BRANCH  24  25
ATOM     25  C   UNL     1       5.954   3.675  12.537  0.00  0.00    +0.000 C 
ATOM     26  C   UNL     1       5.709   2.345  11.875  0.00  0.00    +0.000 C 
ATOM     27  O   UNL     1       4.738   3.399  11.825  0.00  0.00    +0.000 OA
ENDBRANCH  24  25
ENDBRANCH  22  24
ENDBRANCH   9  19
BRANCH   1  28
ATOM     28  N   UNL     1       0.834   4.399  20.023  0.00  0.00    +0.000 N 
ATOM     29  H   UNL     1       0.792   3.685  20.735  0.00  0.00    +0.000 HD
ATOM     30  H   UNL     1       0.155   5.136  19.992  0.00  0.00    +0.000 HD
ENDBRANCH   1  28
TORSDOF 5
ENDMDL
MODEL 3
REMARK VINA RESULT:      -7.7      0.962      1.607
REMARK  Name = 
REMARK  5 active torsions:
REMARK  status: ('A' for Active; 'I' for Inactive)
REMARK    1  A    between atoms: N_1  and  C_2
REMARK    2  A    between atoms: C_8  and  C_9
REMARK    3  A    between atoms: N_19  and  C_20
REMARK    4  A    between atoms: N_23  and  C_24
REMARK    5  A    between atoms: C_24  and  C_25
REMARK                            x       y       z     vdW  Elec       q    Type
REMARK                         _______ _______ _______ _____ _____    ______ ____
ROOT
ATOM      1  C   UNL     1       1.529   3.524  19.535  0.00  0.00    +0.000 A 
ATOM      2  N   UNL     1       1.580   2.181  19.463  0.00  0.00    +0.000 NA
ATOM      3  C   UNL     1       2.513   1.616  18.681  0.00  0.00    +0.000 A 
ATOM      4  N   UNL     1       3.457   2.232  17.950  0.00  0.00    +0.000 NA
ATOM      5  C   UNL     1       3.380   3.572  18.046  0.00  0.00    +0.000 A 
ATOM      6  C   UNL     1       2.418   4.286  18.747  0.00  0.00    +0.000 A 
ATOM      7  C   UNL     1       2.650   5.670  18.442  0.00  0.00    +0.000 A 
ATOM      8  C   UNL     1       3.800   5.738  17.687  0.00  0.00    +0.000 A 
ATOM      9  N   UNL     1       4.267   4.457  17.479  0.00  0.00    +0.000 N 
ENDROOT
BRANCH   7  10
ATOM     10  C   UNL     1       1.929   6.854  18.887  0.00  0.00    +0.000 A 
ATOM     11  C   UNL     1       1.723   7.075  20.265  0.00  0.00    +0.000 A 
ATOM     12  C   UNL     1       1.441   8.354  20.756  0.00  0.00    +0.000 A 
ATOM     13  C   UNL     1       1.339   9.358  19.819  0.00  0.00    +0.000 A 
ATOM     14  C   UNL     1       1.373   9.103  18.468  0.00  0.00    +0.000 A 
ATOM     15  C   UNL     1       1.626   7.857  17.959  0.00  0.00    +0.000 A 
ATOM     16  O   UNL     1       1.316  10.251  17.727  0.00  0.00    +0.000 OA
ATOM     17  C   UNL     1       1.674  11.183  18.762  0.00  0.00    +0.000 C 
ATOM     18  O   UNL     1       1.325  10.693  20.080  0.00  0.00    +0.000 OA
ENDBRANCH   7  10
BRANCH   9  19
ATOM     19  C   UNL     1       5.449   4.131  16.699  0.00  0.00    +0.000 C 
ATOM     20  C   UNL     1       5.446   4.680  15.271  0.00  0.00    +0.000 C 
ATOM     21  C   UNL     1       6.918   4.703  14.908  0.00  0.00    +0.000 C 
ATOM     22  N   UNL     1       7.602   5.163  16.126  0.00  0.00    +0.000 NA
ATOM     23  C   UNL     1       6.803   4.619  17.249  0.00  0.00    +0.000 C 
BRANCH  22  24
ATOM     24  C   UNL     1       7.678   6.636  16.157  0.00  0.00    +0.000 C 
BRANCH  24  25
ATOM     25  C   UNL     1       7.282   7.184  17.496  0.00  0.00    +0.000 C 
ATOM     26  C   UNL     1       8.291   7.812  18.420  0.00  0.00    +0.000 C 
ATOM     27  O   UNL     1       7.399   8.608  17.628  0.00  0.00    +0.000 OA
ENDBRANCH  24  25
ENDBRANCH  22  24
ENDBRANCH   9  19
BRANCH   1  28
ATOM     28  N   UNL     1       0.583   4.028  20.396  0.00  0.00    +0.000 N 
ATOM     29  H   UNL     1       0.929   4.568  21.174  0.00  0.00    +0.000 HD
ATOM     30  H   UNL     1      -0.396   3.837  20.297  0.00  0.00    +0.000 HD
ENDBRANCH   1  28
TORSDOF 5
ENDMDL
MODEL 4
REMARK VINA RESULT:      -7.4      2.305      6.819
REMARK  Name = 
REMARK  5 active torsions:
REMARK  status: ('A' for Active; 'I' for Inactive)
REMARK    1  A    between atoms: N_1  and  C_2
REMARK    2  A    between atoms: C_8  and  C_9
REMARK    3  A    between atoms: N_19  and  C_20
REMARK    4  A    between atoms: N_23  and  C_24
REMARK    5  A    between atoms: C_24  and  C_25
REMARK                            x       y       z     vdW  Elec       q    Type
REMARK                         _______ _______ _______ _____ _____    ______ ____
ROOT
ATOM      1  C   UNL     1       3.597   3.851  19.571  0.00  0.00    +0.000 A 
ATOM      2  N   UNL     1       2.986   3.179  20.564  0.00  0.00    +0.000 NA
ATOM      3  C   UNL     1       2.096   3.833  21.329  0.00  0.00    +0.000 A 
ATOM      4  N   UNL     1       1.699   5.112  21.219  0.00  0.00    +0.000 NA
ATOM      5  C   UNL     1       2.327   5.754  20.216  0.00  0.00    +0.000 A 
ATOM      6  C   UNL     1       3.323   5.226  19.406  0.00  0.00    +0.000 A 
ATOM      7  C   UNL     1       3.789   6.312  18.590  0.00  0.00    +0.000 A 
ATOM      8  C   UNL     1       2.979   7.396  18.847  0.00  0.00    +0.000 A 
ATOM      9  N   UNL     1       2.061   7.041  19.813  0.00  0.00    +0.000 N 
ENDROOT
BRANCH   7  10
ATOM     10  C   UNL     1       4.834   6.333  17.577  0.00  0.00    +0.000 A 
ATOM     11  C   UNL     1       6.171   6.589  17.951  0.00  0.00    +0.000 A 
ATOM     12  C   UNL     1       7.235   6.202  17.130  0.00  0.00    +0.000 A 
ATOM     13  C   UNL     1       6.898   5.605  15.936  0.00  0.00    +0.000 A 
ATOM     14  C   UNL     1       5.595   5.515  15.505  0.00  0.00    +0.000 A 
ATOM     15  C   UNL     1       4.535   5.904  16.280  0.00  0.00    +0.000 A 
ATOM     16  O   UNL     1       5.490   4.831  14.326  0.00  0.00    +0.000 OA
ATOM     17  C   UNL     1       6.774   4.183  14.347  0.00  0.00    +0.000 C 
ATOM     18  O   UNL     1       7.749   4.932  15.113  0.00  0.00    +0.000 OA
ENDBRANCH   7  10
BRANCH   9  19
ATOM     19  C   UNL     1       1.058   7.938  20.362  0.00  0.00    +0.000 C 
ATOM     20  C   UNL     1       1.450   8.608  21.681  0.00  0.00    +0.000 C 
ATOM     21  C   UNL     1       0.560   9.835  21.721  0.00  0.00    +0.000 C 
ATOM     22  N   UNL     1       0.547  10.340  20.340  0.00  0.00    +0.000 NA
ATOM     23  C   UNL     1       0.638   9.134  19.484  0.00  0.00    +0.000 C 
BRANCH  22  24
ATOM     24  C   UNL     1       1.669  11.271  20.114  0.00  0.00    +0.000 C 
BRANCH  24  25
ATOM     25  C   UNL     1       1.559  11.961  18.787  0.00  0.00    +0.000 C 
ATOM     26  C   UNL     1       2.541  13.022  18.365  0.00  0.00    +0.000 C 
ATOM     27  O   UNL     1       2.623  11.680  17.866  0.00  0.00    +0.000 OA
ENDBRANCH  24  25
ENDBRANCH  22  24
ENDBRANCH   9  19
BRANCH   1  28
ATOM     28  N   UNL     1       4.453   3.103  18.799  0.00  0.00    +0.000 N 
ATOM     29  H   UNL     1       4.058   2.286  18.357  0.00  0.00    +0.000 HD
ATOM     30  H   UNL     1       5.428   3.315  18.711  0.00  0.00    +0.000 HD
ENDBRANCH   1  28
TORSDOF 5
ENDMDL
MODEL 5
REMARK VINA RESULT:      -7.2      2.049      7.080
REMARK  Name = 
REMARK  5 active torsions:
REMARK  status: ('A' for Active; 'I' for Inactive)
REMARK    1  A    between atoms: N_1  and  C_2
REMARK    2  A    between atoms: C_8  and  C_9
REMARK    3  A    between atoms: N_19  and  C_20
REMARK    4  A    between atoms: N_23  and  C_24
REMARK    5  A    between atoms: C_24  and  C_25
REMARK                            x       y       z     vdW  Elec       q    Type
REMARK                         _______ _______ _______ _____ _____    ______ ____
ROOT
ATOM      1  C   UNL     1       2.566   3.355  18.670  0.00  0.00    +0.000 A 
ATOM      2  N   UNL     1       1.585   2.575  19.163  0.00  0.00    +0.000 NA
ATOM      3  C   UNL     1       0.762   3.090  20.090  0.00  0.00    +0.000 A 
ATOM      4  N   UNL     1       0.769   4.334  20.597  0.00  0.00    +0.000 NA
ATOM      5  C   UNL     1       1.759   5.087  20.083  0.00  0.00    +0.000 A 
ATOM      6  C   UNL     1       2.728   4.659  19.184  0.00  0.00    +0.000 A 
ATOM      7  C   UNL     1       3.646   5.753  19.039  0.00  0.00    +0.000 A 
ATOM      8  C   UNL     1       3.131   6.819  19.742  0.00  0.00    +0.000 A 
ATOM      9  N   UNL     1       1.957   6.421  20.348  0.00  0.00    +0.000 N 
ENDROOT
BRANCH   7  10
ATOM     10  C   UNL     1       4.858   5.851  18.238  0.00  0.00    +0.000 A 
ATOM     11  C   UNL     1       6.099   5.471  18.791  0.00  0.00    +0.000 A 
ATOM     12  C   UNL     1       7.181   5.137  17.970  0.00  0.00    +0.000 A 
ATOM     13  C   UNL     1       6.973   5.241  16.613  0.00  0.00    +0.000 A 
ATOM     14  C   UNL     1       5.818   5.774  16.090  0.00  0.00    +0.000 A 
ATOM     15  C   UNL     1       4.750   6.128  16.871  0.00  0.00    +0.000 A 
ATOM     16  O   UNL     1       5.801   5.722  14.724  0.00  0.00    +0.000 OA
ATOM     17  C   UNL     1       6.838   4.742  14.540  0.00  0.00    +0.000 C 
ATOM     18  O   UNL     1       7.780   4.736  15.641  0.00  0.00    +0.000 OA
ENDBRANCH   7  10
BRANCH   9  19
ATOM     19  C   UNL     1       1.144   7.272  21.200  0.00  0.00    +0.000 C 
ATOM     20  C   UNL     1       1.861   8.511  21.740  0.00  0.00    +0.000 C 
ATOM     21  C   UNL     1       0.718   9.449  22.078  0.00  0.00    +0.000 C 
ATOM     22  N   UNL     1      -0.245   9.285  20.980  0.00  0.00    +0.000 NA
ATOM     23  C   UNL     1      -0.136   7.863  20.576  0.00  0.00    +0.000 C 
BRANCH  22  24
ATOM     24  C   UNL     1       0.065  10.206  19.870  0.00  0.00    +0.000 C 
BRANCH  24  25
ATOM     25  C   UNL     1      -1.153  10.950  19.409  0.00  0.00    +0.000 C 
ATOM     26  C   UNL     1      -1.067  12.037  18.370  0.00  0.00    +0.000 C 
ATOM     27  O   UNL     1      -1.525  10.717  18.043  0.00  0.00    +0.000 OA
ENDBRANCH  24  25
ENDBRANCH  22  24
ENDBRANCH   9  19
BRANCH   1  28
ATOM     28  N   UNL     1       3.334   2.776  17.687  0.00  0.00    +0.000 N 
ATOM     29  H   UNL     1       4.055   2.143  17.998  0.00  0.00    +0.000 HD
ATOM     30  H   UNL     1       3.229   3.000  16.716  0.00  0.00    +0.000 HD
ENDBRANCH   1  28
TORSDOF 5
ENDMDL
MODEL 6
REMARK VINA RESULT:      -7.2      2.689      7.039
REMARK  Name = 
REMARK  5 active torsions:
REMARK  status: ('A' for Active; 'I' for Inactive)
REMARK    1  A    between atoms: N_1  and  C_2
REMARK    2  A    between atoms: C_8  and  C_9
REMARK    3  A    between atoms: N_19  and  C_20
REMARK    4  A    between atoms: N_23  and  C_24
REMARK    5  A    between atoms: C_24  and  C_25
REMARK                            x       y       z     vdW  Elec       q    Type
REMARK                         _______ _______ _______ _____ _____    ______ ____
ROOT
ATOM      1  C   UNL     1       3.464   4.519  19.478  0.00  0.00    +0.000 A 
ATOM      2  N   UNL     1       2.772   4.045  20.530  0.00  0.00    +0.000 NA
ATOM      3  C   UNL     1       1.866   4.845  21.116  0.00  0.00    +0.000 A 
ATOM      4  N   UNL     1       1.526   6.096  20.766  0.00  0.00    +0.000 NA
ATOM      5  C   UNL     1       2.234   6.539  19.711  0.00  0.00    +0.000 A 
ATOM      6  C   UNL     1       3.254   5.853  19.065  0.00  0.00    +0.000 A 
ATOM      7  C   UNL     1       3.807   6.769  18.108  0.00  0.00    +0.000 A 
ATOM      8  C   UNL     1       3.026   7.904  18.127  0.00  0.00    +0.000 A 
ATOM      9  N   UNL     1       2.042   7.746  19.079  0.00  0.00    +0.000 N 
ENDROOT
BRANCH   7  10
ATOM     10  C   UNL     1       4.908   6.587  17.174  0.00  0.00    +0.000 A 
ATOM     11  C   UNL     1       6.240   6.658  17.635  0.00  0.00    +0.000 A 
ATOM     12  C   UNL     1       7.286   6.080  16.908  0.00  0.00    +0.000 A 
ATOM     13  C   UNL     1       6.943   5.483  15.716  0.00  0.00    +0.000 A 
ATOM     14  C   UNL     1       5.673   5.567  15.195  0.00  0.00    +0.000 A 
ATOM     15  C   UNL     1       4.635   6.146  15.875  0.00  0.00    +0.000 A 
ATOM     16  O   UNL     1       5.544   4.851  14.037  0.00  0.00    +0.000 OA
ATOM     17  C   UNL     1       6.710   4.022  14.175  0.00  0.00    +0.000 C 
ATOM     18  O   UNL     1       7.734   4.653  14.983  0.00  0.00    +0.000 OA
ENDBRANCH   7  10
BRANCH   9  19
ATOM     19  C   UNL     1       1.045   8.752  19.404  0.00  0.00    +0.000 C 
ATOM     20  C   UNL     1       1.367   9.600  20.636  0.00  0.00    +0.000 C 
ATOM     21  C   UNL     1       0.537  10.850  20.420  0.00  0.00    +0.000 C 
ATOM     22  N   UNL     1       0.653  11.139  18.983  0.00  0.00    +0.000 NA
ATOM     23  C   UNL     1       0.750   9.814  18.327  0.00  0.00    +0.000 C 
BRANCH  22  24
ATOM     24  C   UNL     1       1.832  11.983  18.713  0.00  0.00    +0.000 C 
BRANCH  24  25
ATOM     25  C   UNL     1       1.856  13.200  19.589  0.00  0.00    +0.000 C 
ATOM     26  C   UNL     1       3.037  14.134  19.611  0.00  0.00    +0.000 C 
ATOM     27  O   UNL     1       1.839  14.453  18.889  0.00  0.00    +0.000 OA
ENDBRANCH  24  25
ENDBRANCH  22  24
ENDBRANCH   9  19
BRANCH   1  28
ATOM     28  N   UNL     1       4.333   3.625  18.899  0.00  0.00    +0.000 N 
ATOM     29  H   UNL     1       5.224   3.995  18.604  0.00  0.00    +0.000 HD
ATOM     30  H   UNL     1       4.091   2.668  18.727  0.00  0.00    +0.000 HD
ENDBRANCH   1  28
TORSDOF 5
ENDMDL
MODEL 7
REMARK VINA RESULT:      -6.9      1.966      2.872
REMARK  Name = 
REMARK  5 active torsions:
REMARK  status: ('A' for Active; 'I' for Inactive)
REMARK    1  A    between atoms: N_1  and  C_2
REMARK    2  A    between atoms: C_8  and  C_9
REMARK    3  A    between atoms: N_19  and  C_20
REMARK    4  A    between atoms: N_23  and  C_24
REMARK    5  A    between atoms: C_24  and  C_25
REMARK                            x       y       z     vdW  Elec       q    Type
REMARK                         _______ _______ _______ _____ _____    ______ ____
ROOT
ATOM      1  C   UNL     1       1.859   4.590  18.908  0.00  0.00    +0.000 A 
ATOM      2  N   UNL     1       1.900   3.292  18.552  0.00  0.00    +0.000 NA
ATOM      3  C   UNL     1       2.825   2.901  17.660  0.00  0.00    +0.000 A 
ATOM      4  N   UNL     1       3.768   3.654  17.069  0.00  0.00    +0.000 NA
ATOM      5  C   UNL     1       3.700   4.943  17.448  0.00  0.00    +0.000 A 
ATOM      6  C   UNL     1       2.747   5.497  18.292  0.00  0.00    +0.000 A 
ATOM      7  C   UNL     1       2.985   6.913  18.286  0.00  0.00    +0.000 A 
ATOM      8  C   UNL     1       4.131   7.134  17.554  0.00  0.00    +0.000 A 
ATOM      9  N   UNL     1       4.588   5.925  17.075  0.00  0.00    +0.000 N 
ENDROOT
BRANCH   7  10
ATOM     10  C   UNL     1       2.275   7.979  18.978  0.00  0.00    +0.000 A 
ATOM     11  C   UNL     1       1.549   8.937  18.238  0.00  0.00    +0.000 A 
ATOM     12  C   UNL     1       0.531   9.687  18.834  0.00  0.00    +0.000 A 
ATOM     13  C   UNL     1       0.316   9.465  20.176  0.00  0.00    +0.000 A 
ATOM     14  C   UNL     1       1.139   8.657  20.925  0.00  0.00    +0.000 A 
ATOM     15  C   UNL     1       2.156   7.926  20.370  0.00  0.00    +0.000 A 
ATOM     16  O   UNL     1       0.701   8.533  22.214  0.00  0.00    +0.000 OA
ATOM     17  C   UNL     1      -0.650   8.986  22.020  0.00  0.00    +0.000 C 
ATOM     18  O   UNL     1      -0.764   9.885  20.890  0.00  0.00    +0.000 OA
ENDBRANCH   7  10
BRANCH   9  19
ATOM     19  C   UNL     1       5.762   5.766  16.234  0.00  0.00    +0.000 C 
ATOM     20  C   UNL     1       6.511   4.445  16.423  0.00  0.00    +0.000 C 
ATOM     21  C   UNL     1       7.276   4.295  15.122  0.00  0.00    +0.000 C 
ATOM     22  N   UNL     1       6.342   4.742  14.078  0.00  0.00    +0.000 NA
ATOM     23  C   UNL     1       5.540   5.817  14.710  0.00  0.00    +0.000 C 
BRANCH  22  24
ATOM     24  C   UNL     1       5.503   3.621  13.612  0.00  0.00    +0.000 C 
BRANCH  24  25
ATOM     25  C   UNL     1       5.629   3.412  12.133  0.00  0.00    +0.000 C 
ATOM     26  C   UNL     1       5.584   2.036  11.524  0.00  0.00    +0.000 C 
ATOM     27  O   UNL     1       4.449   2.912  11.487  0.00  0.00    +0.000 OA
ENDBRANCH  24  25
ENDBRANCH  22  24
ENDBRANCH   9  19
BRANCH   1  28
ATOM     28  N   UNL     1       0.921   4.904  19.864  0.00  0.00    +0.000 N 
ATOM     29  H   UNL     1       0.643   4.155  20.479  0.00  0.00    +0.000 HD
ATOM     30  H   UNL     1       0.493   5.808  19.925  0.00  0.00    +0.000 HD
ENDBRANCH   1  28
TORSDOF 5
ENDMDL
MODEL 8
REMARK VINA RESULT:      -6.9      2.308      7.374
REMARK  Name = 
REMARK  5 active torsions:
REMARK  status: ('A' for Active; 'I' for Inactive)
REMARK    1  A    between atoms: N_1  and  C_2
REMARK    2  A    between atoms: C_8  and  C_9
REMARK    3  A    between atoms: N_19  and  C_20
REMARK    4  A    between atoms: N_23  and  C_24
REMARK    5  A    between atoms: C_24  and  C_25
REMARK                            x       y       z     vdW  Elec       q    Type
REMARK                         _______ _______ _______ _____ _____    ______ ____
ROOT
ATOM      1  C   UNL     1       2.784   4.926  20.001  0.00  0.00    +0.000 A 
ATOM      2  N   UNL     1       2.038   5.126  21.104  0.00  0.00    +0.000 NA
ATOM      3  C   UNL     1       1.459   6.325  21.278  0.00  0.00    +0.000 A 
ATOM      4  N   UNL     1       1.504   7.387  20.457  0.00  0.00    +0.000 NA
ATOM      5  C   UNL     1       2.256   7.154  19.365  0.00  0.00    +0.000 A 
ATOM      6  C   UNL     1       2.975   5.996  19.101  0.00  0.00    +0.000 A 
ATOM      7  C   UNL     1       3.731   6.261  17.909  0.00  0.00    +0.000 A 
ATOM      8  C   UNL     1       3.343   7.497  17.442  0.00  0.00    +0.000 A 
ATOM      9  N   UNL     1       2.412   8.024  18.312  0.00  0.00    +0.000 N 
ENDROOT
BRANCH   7  10
ATOM     10  C   UNL     1       4.669   5.408  17.193  0.00  0.00    +0.000 A 
ATOM     11  C   UNL     1       4.248   4.151  16.710  0.00  0.00    +0.000 A 
ATOM     12  C   UNL     1       4.940   3.508  15.679  0.00  0.00    +0.000 A 
ATOM     13  C   UNL     1       6.062   4.149  15.204  0.00  0.00    +0.000 A 
ATOM     14  C   UNL     1       6.559   5.286  15.796  0.00  0.00    +0.000 A 
ATOM     15  C   UNL     1       5.913   5.926  16.820  0.00  0.00    +0.000 A 
ATOM     16  O   UNL     1       7.641   5.784  15.123  0.00  0.00    +0.000 OA
ATOM     17  C   UNL     1       7.451   5.087  13.880  0.00  0.00    +0.000 C 
ATOM     18  O   UNL     1       6.731   3.842  14.059  0.00  0.00    +0.000 OA
ENDBRANCH   7  10
BRANCH   9  19
ATOM     19  C   UNL     1       1.795   9.331  18.161  0.00  0.00    +0.000 C 
ATOM     20  C   UNL     1       0.305   9.300  17.813  0.00  0.00    +0.000 C 
ATOM     21  C   UNL     1      -0.181  10.665  18.261  0.00  0.00    +0.000 C 
ATOM     22  N   UNL     1       0.516  10.918  19.531  0.00  0.00    +0.000 NA
ATOM     23  C   UNL     1       1.841  10.269  19.383  0.00  0.00    +0.000 C 
BRANCH  22  24
ATOM     24  C   UNL     1      -0.250  10.370  20.666  0.00  0.00    +0.000 C 
BRANCH  24  25
ATOM     25  C   UNL     1      -0.146  11.246  21.879  0.00  0.00    +0.000 C 
ATOM     26  C   UNL     1      -1.284  11.377  22.857  0.00  0.00    +0.000 C 
ATOM     27  O   UNL     1      -0.145  10.548  23.133  0.00  0.00    +0.000 OA
ENDBRANCH  24  25
ENDBRANCH  22  24
ENDBRANCH   9  19
BRANCH   1  28
ATOM     28  N   UNL     1       3.301   3.659  19.866  0.00  0.00    +0.000 N 
ATOM     29  H   UNL     1       4.248   3.597  19.527  0.00  0.00    +0.000 HD
ATOM     30  H   UNL     1       2.761   2.833  20.044  0.00  0.00    +0.000 HD
ENDBRANCH   1  28
TORSDOF 5
ENDMDL
MODEL 9
REMARK VINA RESULT:      -6.9      4.185      8.846
REMARK  Name = 
REMARK  5 active torsions:
REMARK  status: ('A' for Active; 'I' for Inactive)
REMARK    1  A    between atoms: N_1  and  C_2
REMARK    2  A    between atoms: C_8  and  C_9
REMARK    3  A    between atoms: N_19  and  C_20
REMARK    4  A    between atoms: N_23  and  C_24
REMARK    5  A    between atoms: C_24  and  C_25
REMARK                            x       y       z     vdW  Elec       q    Type
REMARK                         _______ _______ _______ _____ _____    ______ ____
ROOT
ATOM      1  C   UNL     1       0.934   9.592  21.435  0.00  0.00    +0.000 A 
ATOM      2  N   UNL     1       0.248  10.492  22.164  0.00  0.00    +0.000 NA
ATOM      3  C   UNL     1      -0.644  11.277  21.540  0.00  0.00    +0.000 A 
ATOM      4  N   UNL     1      -0.977  11.271  20.238  0.00  0.00    +0.000 NA
ATOM      5  C   UNL     1      -0.276  10.360  19.539  0.00  0.00    +0.000 A 
ATOM      6  C   UNL     1       0.731   9.545  20.039  0.00  0.00    +0.000 A 
ATOM      7  C   UNL     1       1.282   8.854  18.907  0.00  0.00    +0.000 A 
ATOM      8  C   UNL     1       0.511   9.178  17.812  0.00  0.00    +0.000 A 
ATOM      9  N   UNL     1      -0.464  10.068  18.209  0.00  0.00    +0.000 N 
ENDROOT
BRANCH   7  10
ATOM     10  C   UNL     1       2.373   7.892  18.845  0.00  0.00    +0.000 A 
ATOM     11  C   UNL     1       2.349   6.748  19.671  0.00  0.00    +0.000 A 
ATOM     12  C   UNL     1       3.106   5.616  19.356  0.00  0.00    +0.000 A 
ATOM     13  C   UNL     1       3.895   5.703  18.230  0.00  0.00    +0.000 A 
ATOM     14  C   UNL     1       4.041   6.878  17.530  0.00  0.00    +0.000 A 
ATOM     15  C   UNL     1       3.327   8.008  17.829  0.00  0.00    +0.000 A 
ATOM     16  O   UNL     1       4.819   6.718  16.417  0.00  0.00    +0.000 OA
ATOM     17  C   UNL     1       4.747   5.286  16.316  0.00  0.00    +0.000 C 
ATOM     18  O   UNL     1       4.507   4.662  17.602  0.00  0.00    +0.000 OA
ENDBRANCH   7  10
BRANCH   9  19
ATOM     19  C   UNL     1      -1.449  10.656  17.317  0.00  0.00    +0.000 C 
ATOM     20  C   UNL     1      -2.561   9.704  16.872  0.00  0.00    +0.000 C 
ATOM     21  C   UNL     1      -3.679  10.645  16.469  0.00  0.00    +0.000 C 
ATOM     22  N   UNL     1      -3.660  11.713  17.478  0.00  0.00    +0.000 NA
ATOM     23  C   UNL     1      -2.234  11.872  17.849  0.00  0.00    +0.000 C 
BRANCH  22  24
ATOM     24  C   UNL     1      -4.501  11.354  18.636  0.00  0.00    +0.000 C 
BRANCH  24  25
ATOM     25  C   UNL     1      -5.918  11.079  18.228  0.00  0.00    +0.000 C 
ATOM     26  C   UNL     1      -6.796  10.137  19.009  0.00  0.00    +0.000 C 
ATOM     27  O   UNL     1      -6.917  11.561  19.139  0.00  0.00    +0.000 OA
ENDBRANCH  24  25
ENDBRANCH  22  24
ENDBRANCH   9  19
BRANCH   1  28
ATOM     28  N   UNL     1       1.790   8.789  22.151  0.00  0.00    +0.000 N 
ATOM     29  H   UNL     1       1.674   7.794  22.032  0.00  0.00    +0.000 HD
ATOM     30  H   UNL     1       2.463   9.155  22.797  0.00  0.00    +0.000 HD
ENDBRANCH   1  28
TORSDOF 5
ENDMDL
