MODEL 1
REMARK VINA RESULT:      -7.2      0.000      0.000
REMARK  Name = 
REMARK  5 active torsions:
REMARK  status: ('A' for Active; 'I' for Inactive)
REMARK    1  A    between atoms: C_1  and  O_2
REMARK    2  A    between atoms: O_2  and  C_3
REMARK    3  A    between atoms: C_3  and  C_5
REMARK    4  A    between atoms: N_10  and  S_11
REMARK    5  A    between atoms: S_11  and  C_14
REMARK                            x       y       z     vdW  Elec       q    Type
REMARK                         _______ _______ _______ _____ _____    ______ ____
ROOT
ATOM      1  C   UNL     1       1.927   4.569  19.418  0.00  0.00    +0.000 C 
ATOM      2  C   UNL     1       1.082   4.197  20.625  0.00  0.00    +0.000 C 
ATOM      3  C   UNL     1       1.807   3.041  21.218  0.00  0.00    +0.000 C 
ATOM      4  O   UNL     1       1.458   2.504  22.265  0.00  0.00    +0.000 OA
ATOM      5  C   UNL     1       2.970   2.574  20.391  0.00  0.00    +0.000 C 
ATOM      6  N   UNL     1       3.078   3.610  19.340  0.00  0.00    +0.000 NA
ENDROOT
BRANCH   6   7
ATOM      7  S   UNL     1       3.372   3.054  17.764  0.00  0.00    +0.000 S 
ATOM      8  O   UNL     1       3.704   1.650  17.887  0.00  0.00    +0.000 OA
ATOM      9  O   UNL     1       2.268   3.491  16.941  0.00  0.00    +0.000 OA
BRANCH   7  10
ATOM     10  C   UNL     1       4.815   3.942  17.248  0.00  0.00    +0.000 A 
ATOM     11  C   UNL     1       5.745   4.379  18.196  0.00  0.00    +0.000 A 
ATOM     12  C   UNL     1       6.911   5.017  17.770  0.00  0.00    +0.000 A 
ATOM     13  C   UNL     1       7.142   5.213  16.407  0.00  0.00    +0.000 A 
ATOM     14  C   UNL     1       6.209   4.775  15.464  0.00  0.00    +0.000 A 
ATOM     15  C   UNL     1       5.041   4.136  15.882  0.00  0.00    +0.000 A 
ENDBRANCH   7  10
ENDBRANCH   6   7
BRANCH   1  16
ATOM     16  C   UNL     1       2.315   6.035  19.513  0.00  0.00    +0.000 C 
ATOM     17  O   UNL     1       2.979   6.598  18.647  0.00  0.00    +0.000 OA
BRANCH  16  19
ATOM     18  C   UNL     1       1.629   8.070  20.429  0.00  0.00    +0.000 C 
ATOM     19  O   UNL     1       1.792   6.660  20.603  0.00  0.00    +0.000 OA
ENDBRANCH  16  19
ENDBRANCH   1  16
TORSDOF 4
ENDMDL
MODEL 2
REMARK VINA RESULT:      -7.1      0.597      1.474
REMARK  Name = 
REMARK  5 active torsions:
REMARK  status: ('A' for Active; 'I' for Inactive)
REMARK    1  A    between atoms: C_1  and  O_2
REMARK    2  A    between atoms: O_2  and  C_3
REMARK    3  A    between atoms: C_3  and  C_5
REMARK    4  A    between atoms: N_10  and  S_11
REMARK    5  A    between atoms: S_11  and  C_14
REMARK                            x       y       z     vdW  Elec       q    Type
REMARK                         _______ _______ _______ _____ _____    ______ ____
ROOT
ATOM      1  C   UNL     1       1.885   4.516  19.300  0.00  0.00    +0.000 C 
ATOM      2  C   UNL     1       1.051   4.169  20.522  0.00  0.00    +0.000 C 
ATOM      3  C   UNL     1       1.829   3.082  21.178  0.00  0.00    +0.000 C 
ATOM      4  O   UNL     1       1.499   2.585  22.251  0.00  0.00    +0.000 OA
ATOM      5  C   UNL     1       3.018   2.630  20.382  0.00  0.00    +0.000 C 
ATOM      6  N   UNL     1       3.082   3.613  19.278  0.00  0.00    +0.000 NA
ENDROOT
BRANCH   6   7
ATOM      7  S   UNL     1       3.414   2.989  17.736  0.00  0.00    +0.000 S 
ATOM      8  O   UNL     1       3.797   1.606  17.932  0.00  0.00    +0.000 OA
ATOM      9  O   UNL     1       2.302   3.340  16.882  0.00  0.00    +0.000 OA
BRANCH   7  10
ATOM     10  C   UNL     1       4.827   3.905  17.186  0.00  0.00    +0.000 A 
ATOM     11  C   UNL     1       5.014   4.151  15.822  0.00  0.00    +0.000 A 
ATOM     12  C   UNL     1       6.094   4.933  15.408  0.00  0.00    +0.000 A 
ATOM     13  C   UNL     1       6.976   5.462  16.352  0.00  0.00    +0.000 A 
ATOM     14  C   UNL     1       6.785   5.210  17.714  0.00  0.00    +0.000 A 
ATOM     15  C   UNL     1       5.707   4.431  18.136  0.00  0.00    +0.000 A 
ENDBRANCH   7  10
ENDBRANCH   6   7
BRANCH   1  16
ATOM     16  C   UNL     1       2.201   6.002  19.318  0.00  0.00    +0.000 C 
ATOM     17  O   UNL     1       2.113   6.683  20.337  0.00  0.00    +0.000 OA
BRANCH  16  19
ATOM     18  C   UNL     1       2.644   7.897  18.027  0.00  0.00    +0.000 C 
ATOM     19  O   UNL     1       2.657   6.470  18.124  0.00  0.00    +0.000 OA
ENDBRANCH  16  19
ENDBRANCH   1  16
TORSDOF 4
ENDMDL
MODEL 3
REMARK VINA RESULT:      -6.9      2.513      5.612
REMARK  Name = 
REMARK  5 active torsions:
REMARK  status: ('A' for Active; 'I' for Inactive)
REMARK    1  A    between atoms: C_1  and  O_2
REMARK    2  A    between atoms: O_2  and  C_3
REMARK    3  A    between atoms: C_3  and  C_5
REMARK    4  A    between atoms: N_10  and  S_11
REMARK    5  A    between atoms: S_11  and  C_14
REMARK                            x       y       z     vdW  Elec       q    Type
REMARK                         _______ _______ _______ _____ _____    ______ ____
ROOT
ATOM      1  C   UNL     1       6.784   4.715  17.382  0.00  0.00    +0.000 C 
ATOM      2  C   UNL     1       7.399   4.440  16.019  0.00  0.00    +0.000 C 
ATOM      3  C   UNL     1       6.218   4.292  15.126  0.00  0.00    +0.000 C 
ATOM      4  O   UNL     1       6.319   4.128  13.914  0.00  0.00    +0.000 OA
ATOM      5  C   UNL     1       4.907   4.318  15.856  0.00  0.00    +0.000 C 
ATOM      6  N   UNL     1       5.291   4.689  17.235  0.00  0.00    +0.000 NA
ENDROOT
BRANCH   6   7
ATOM      7  S   UNL     1       4.518   3.841  18.485  0.00  0.00    +0.000 S 
ATOM      8  O   UNL     1       3.778   2.771  17.849  0.00  0.00    +0.000 OA
ATOM      9  O   UNL     1       5.512   3.563  19.496  0.00  0.00    +0.000 OA
BRANCH   7  10
ATOM     10  C   UNL     1       3.371   5.009  19.163  0.00  0.00    +0.000 A 
ATOM     11  C   UNL     1       2.565   4.649  20.248  0.00  0.00    +0.000 A 
ATOM     12  C   UNL     1       1.716   5.600  20.816  0.00  0.00    +0.000 A 
ATOM     13  C   UNL     1       1.676   6.897  20.302  0.00  0.00    +0.000 A 
ATOM     14  C   UNL     1       2.482   7.250  19.217  0.00  0.00    +0.000 A 
ATOM     15  C   UNL     1       3.335   6.306  18.644  0.00  0.00    +0.000 A 
ENDBRANCH   7  10
ENDBRANCH   6   7
BRANCH   1  16
ATOM     16  C   UNL     1       7.353   6.012  17.933  0.00  0.00    +0.000 C 
ATOM     17  O   UNL     1       7.790   6.107  19.076  0.00  0.00    +0.000 OA
BRANCH  16  19
ATOM     18  C   UNL     1       7.746   8.285  17.568  0.00  0.00    +0.000 C 
ATOM     19  O   UNL     1       7.396   7.014  17.013  0.00  0.00    +0.000 OA
ENDBRANCH  16  19
ENDBRANCH   1  16
TORSDOF 4
ENDMDL
MODEL 4
REMARK VINA RESULT:      -6.8      1.577      3.425
REMARK  Name = 
REMARK  5 active torsions:
REMARK  status: ('A' for Active; 'I' for Inactive)
REMARK    1  A    between atoms: C_1  and  O_2
REMARK    2  A    between atoms: O_2  and  C_3
REMARK    3  A    between atoms: C_3  and  C_5
REMARK    4  A    between atoms: N_10  and  S_11
REMARK    5  A    between atoms: S_11  and  C_14
REMARK                            x       y       z     vdW  Elec       q    Type
REMARK                         _______ _______ _______ _____ _____    ______ ____
ROOT
ATOM      1  C   UNL     1       2.654   4.753  19.942  0.00  0.00    +0.000 C 
ATOM      2  C   UNL     1       1.887   5.986  20.389  0.00  0.00    +0.000 C 
ATOM      3  C   UNL     1       2.360   7.049  19.462  0.00  0.00    +0.000 C 
ATOM      4  O   UNL     1       1.905   8.189  19.471  0.00  0.00    +0.000 OA
ATOM      5  C   UNL     1       3.470   6.603  18.555  0.00  0.00    +0.000 C 
ATOM      6  N   UNL     1       3.552   5.148  18.806  0.00  0.00    +0.000 NA
ENDROOT
BRANCH   6   7
ATOM      7  S   UNL     1       5.112   4.494  18.936  0.00  0.00    +0.000 S 
ATOM      8  O   UNL     1       5.890   5.453  19.692  0.00  0.00    +0.000 OA
ATOM      9  O   UNL     1       4.970   3.129  19.387  0.00  0.00    +0.000 OA
BRANCH   7  10
ATOM     10  C   UNL     1       5.712   4.453  17.270  0.00  0.00    +0.000 A 
ATOM     11  C   UNL     1       4.850   4.106  16.225  0.00  0.00    +0.000 A 
ATOM     12  C   UNL     1       5.317   4.145  14.910  0.00  0.00    +0.000 A 
ATOM     13  C   UNL     1       6.633   4.528  14.647  0.00  0.00    +0.000 A 
ATOM     14  C   UNL     1       7.490   4.872  15.696  0.00  0.00    +0.000 A 
ATOM     15  C   UNL     1       7.031   4.837  17.013  0.00  0.00    +0.000 A 
ENDBRANCH   7  10
ENDBRANCH   6   7
BRANCH   1  16
ATOM     16  C   UNL     1       1.669   3.640  19.625  0.00  0.00    +0.000 C 
ATOM     17  O   UNL     1       1.595   3.120  18.515  0.00  0.00    +0.000 OA
BRANCH  16  19
ATOM     18  C   UNL     1       1.726   2.559  21.695  0.00  0.00    +0.000 C 
ATOM     19  O   UNL     1       0.947   3.238  20.706  0.00  0.00    +0.000 OA
ENDBRANCH  16  19
ENDBRANCH   1  16
TORSDOF 4
ENDMDL
MODEL 5
REMARK VINA RESULT:      -6.8      2.470      5.633
REMARK  Name = 
REMARK  5 active torsions:
REMARK  status: ('A' for Active; 'I' for Inactive)
REMARK    1  A    between atoms: C_1  and  O_2
REMARK    2  A    between atoms: O_2  and  C_3
REMARK    3  A    between atoms: C_3  and  C_5
REMARK    4  A    between atoms: N_10  and  S_11
REMARK    5  A    between atoms: S_11  and  C_14
REMARK                            x       y       z     vdW  Elec       q    Type
REMARK                         _______ _______ _______ _____ _____    ______ ____
ROOT
ATOM      1  C   UNL     1       6.758   4.742  17.492  0.00  0.00    +0.000 C 
ATOM      2  C   UNL     1       7.421   4.482  16.149  0.00  0.00    +0.000 C 
ATOM      3  C   UNL     1       6.273   4.269  15.227  0.00  0.00    +0.000 C 
ATOM      4  O   UNL     1       6.414   4.097  14.020  0.00  0.00    +0.000 OA
ATOM      5  C   UNL     1       4.943   4.240  15.922  0.00  0.00    +0.000 C 
ATOM      6  N   UNL     1       5.273   4.644  17.306  0.00  0.00    +0.000 NA
ENDROOT
BRANCH   6   7
ATOM      7  S   UNL     1       4.506   3.774  18.545  0.00  0.00    +0.000 S 
ATOM      8  O   UNL     1       3.711   2.755  17.891  0.00  0.00    +0.000 OA
ATOM      9  O   UNL     1       5.519   3.422  19.513  0.00  0.00    +0.000 OA
BRANCH   7  10
ATOM     10  C   UNL     1       3.422   4.952  19.302  0.00  0.00    +0.000 A 
ATOM     11  C   UNL     1       3.354   6.259  18.810  0.00  0.00    +0.000 A 
ATOM     12  C   UNL     1       2.445   7.157  19.371  0.00  0.00    +0.000 A 
ATOM     13  C   UNL     1       1.613   6.749  20.414  0.00  0.00    +0.000 A 
ATOM     14  C   UNL     1       1.686   5.442  20.903  0.00  0.00    +0.000 A 
ATOM     15  C   UNL     1       2.591   4.537  20.347  0.00  0.00    +0.000 A 
ENDBRANCH   7  10
ENDBRANCH   6   7
BRANCH   1  16
ATOM     16  C   UNL     1       7.252   6.069  18.042  0.00  0.00    +0.000 C 
ATOM     17  O   UNL     1       7.814   6.164  19.129  0.00  0.00    +0.000 OA
BRANCH  16  19
ATOM     18  C   UNL     1       7.769   8.297  17.567  0.00  0.00    +0.000 C 
ATOM     19  O   UNL     1       7.073   7.108  17.181  0.00  0.00    +0.000 OA
ENDBRANCH  16  19
ENDBRANCH   1  16
TORSDOF 4
ENDMDL
MODEL 6
REMARK VINA RESULT:      -6.8      2.924      4.882
REMARK  Name = 
REMARK  5 active torsions:
REMARK  status: ('A' for Active; 'I' for Inactive)
REMARK    1  A    between atoms: C_1  and  O_2
REMARK    2  A    between atoms: O_2  and  C_3
REMARK    3  A    between atoms: C_3  and  C_5
REMARK    4  A    between atoms: N_10  and  S_11
REMARK    5  A    between atoms: S_11  and  C_14
REMARK                            x       y       z     vdW  Elec       q    Type
REMARK                         _______ _______ _______ _____ _____    ______ ____
ROOT
ATOM      1  C   UNL     1       5.227   5.066  18.343  0.00  0.00    +0.000 C 
ATOM      2  C   UNL     1       4.219   6.053  18.908  0.00  0.00    +0.000 C 
ATOM      3  C   UNL     1       3.834   6.874  17.729  0.00  0.00    +0.000 C 
ATOM      4  O   UNL     1       2.972   7.747  17.781  0.00  0.00    +0.000 OA
ATOM      5  C   UNL     1       4.630   6.563  16.495  0.00  0.00    +0.000 C 
ATOM      6  N   UNL     1       5.407   5.366  16.884  0.00  0.00    +0.000 NA
ENDROOT
BRANCH   6   7
ATOM      7  S   UNL     1       7.032   5.334  16.396  0.00  0.00    +0.000 S 
ATOM      8  O   UNL     1       7.493   6.706  16.436  0.00  0.00    +0.000 OA
ATOM      9  O   UNL     1       7.691   4.302  17.164  0.00  0.00    +0.000 OA
BRANCH   7  10
ATOM     10  C   UNL     1       6.973   4.796  14.709  0.00  0.00    +0.000 A 
ATOM     11  C   UNL     1       6.058   3.814  14.319  0.00  0.00    +0.000 A 
ATOM     12  C   UNL     1       5.974   3.450  12.974  0.00  0.00    +0.000 A 
ATOM     13  C   UNL     1       6.801   4.065  12.031  0.00  0.00    +0.000 A 
ATOM     14  C   UNL     1       7.715   5.044  12.428  0.00  0.00    +0.000 A 
ATOM     15  C   UNL     1       7.804   5.415  13.770  0.00  0.00    +0.000 A 
ENDBRANCH   7  10
ENDBRANCH   6   7
BRANCH   1  16
ATOM     16  C   UNL     1       4.770   3.651  18.657  0.00  0.00    +0.000 C 
ATOM     17  O   UNL     1       5.228   3.002  19.593  0.00  0.00    +0.000 OA
BRANCH  16  19
ATOM     18  C   UNL     1       3.468   1.828  17.995  0.00  0.00    +0.000 C 
ATOM     19  O   UNL     1       3.762   3.220  17.850  0.00  0.00    +0.000 OA
ENDBRANCH  16  19
ENDBRANCH   1  16
TORSDOF 4
ENDMDL
MODEL 7
REMARK VINA RESULT:      -6.8      2.409      5.594
REMARK  Name = 
REMARK  5 active torsions:
REMARK  status: ('A' for Active; 'I' for Inactive)
REMARK    1  A    between atoms: C_1  and  O_2
REMARK    2  A    between atoms: O_2  and  C_3
REMARK    3  A    between atoms: C_3  and  C_5
REMARK    4  A    between atoms: N_10  and  S_11
REMARK    5  A    between atoms: S_11  and  C_14
REMARK                            x       y       z     vdW  Elec       q    Type
REMARK                         _______ _______ _______ _____ _____    ______ ____
ROOT
ATOM      1  C   UNL     1       6.156   5.675  17.173  0.00  0.00    +0.000 C 
ATOM      2  C   UNL     1       7.214   6.178  18.141  0.00  0.00    +0.000 C 
ATOM      3  C   UNL     1       6.939   5.415  19.389  0.00  0.00    +0.000 C 
ATOM      4  O   UNL     1       7.644   5.504  20.390  0.00  0.00    +0.000 OA
ATOM      5  C   UNL     1       5.700   4.571  19.315  0.00  0.00    +0.000 C 
ATOM      6  N   UNL     1       5.302   4.673  17.894  0.00  0.00    +0.000 NA
ENDROOT
BRANCH   6   7
ATOM      7  S   UNL     1       3.645   4.875  17.590  0.00  0.00    +0.000 S 
ATOM      8  O   UNL     1       3.416   6.304  17.534  0.00  0.00    +0.000 OA
ATOM      9  O   UNL     1       3.305   4.021  16.475  0.00  0.00    +0.000 OA
BRANCH   7  10
ATOM     10  C   UNL     1       2.852   4.221  19.032  0.00  0.00    +0.000 A 
ATOM     11  C   UNL     1       2.511   2.866  19.090  0.00  0.00    +0.000 A 
ATOM     12  C   UNL     1       1.949   2.350  20.259  0.00  0.00    +0.000 A 
ATOM     13  C   UNL     1       1.733   3.183  21.357  0.00  0.00    +0.000 A 
ATOM     14  C   UNL     1       2.074   4.537  21.293  0.00  0.00    +0.000 A 
ATOM     15  C   UNL     1       2.636   5.061  20.129  0.00  0.00    +0.000 A 
ENDBRANCH   7  10
ENDBRANCH   6   7
BRANCH   1  16
ATOM     16  C   UNL     1       6.837   5.154  15.918  0.00  0.00    +0.000 C 
ATOM     17  O   UNL     1       7.875   4.500  15.954  0.00  0.00    +0.000 OA
BRANCH  16  19
ATOM     18  C   UNL     1       5.773   4.250  14.046  0.00  0.00    +0.000 C 
ATOM     19  O   UNL     1       6.141   5.421  14.779  0.00  0.00    +0.000 OA
ENDBRANCH  16  19
ENDBRANCH   1  16
TORSDOF 4
ENDMDL
MODEL 8
REMARK VINA RESULT:      -6.8      2.354      5.603
REMARK  Name = 
REMARK  5 active torsions:
REMARK  status: ('A' for Active; 'I' for Inactive)
REMARK    1  A    between atoms: C_1  and  O_2
REMARK    2  A    between atoms: O_2  and  C_3
REMARK    3  A    between atoms: C_3  and  C_5
REMARK    4  A    between atoms: N_10  and  S_11
REMARK    5  A    between atoms: S_11  and  C_14
REMARK                            x       y       z     vdW  Elec       q    Type
REMARK                         _______ _______ _______ _____ _____    ______ ____
ROOT
ATOM      1  C   UNL     1       6.022   5.551  17.054  0.00  0.00    +0.000 C 
ATOM      2  C   UNL     1       7.122   6.101  17.948  0.00  0.00    +0.000 C 
ATOM      3  C   UNL     1       6.904   5.400  19.242  0.00  0.00    +0.000 C 
ATOM      4  O   UNL     1       7.654   5.536  20.205  0.00  0.00    +0.000 OA
ATOM      5  C   UNL     1       5.665   4.554  19.265  0.00  0.00    +0.000 C 
ATOM      6  N   UNL     1       5.203   4.587  17.860  0.00  0.00    +0.000 NA
ENDROOT
BRANCH   6   7
ATOM      7  S   UNL     1       3.534   4.775  17.622  0.00  0.00    +0.000 S 
ATOM      8  O   UNL     1       3.289   6.201  17.587  0.00  0.00    +0.000 OA
ATOM      9  O   UNL     1       3.159   3.925  16.515  0.00  0.00    +0.000 OA
BRANCH   7  10
ATOM     10  C   UNL     1       2.803   4.102  19.089  0.00  0.00    +0.000 A 
ATOM     11  C   UNL     1       2.598   4.919  20.206  0.00  0.00    +0.000 A 
ATOM     12  C   UNL     1       1.957   4.394  21.330  0.00  0.00    +0.000 A 
ATOM     13  C   UNL     1       1.528   3.066  21.333  0.00  0.00    +0.000 A 
ATOM     14  C   UNL     1       1.738   2.255  20.215  0.00  0.00    +0.000 A 
ATOM     15  C   UNL     1       2.375   2.771  19.087  0.00  0.00    +0.000 A 
ENDBRANCH   7  10
ENDBRANCH   6   7
BRANCH   1  16
ATOM     16  C   UNL     1       6.646   4.970  15.796  0.00  0.00    +0.000 C 
ATOM     17  O   UNL     1       7.820   4.613  15.747  0.00  0.00    +0.000 OA
BRANCH  16  19
ATOM     18  C   UNL     1       6.228   3.967  13.729  0.00  0.00    +0.000 C 
ATOM     19  O   UNL     1       5.758   4.822  14.775  0.00  0.00    +0.000 OA
ENDBRANCH  16  19
ENDBRANCH   1  16
TORSDOF 4
ENDMDL
MODEL 9
REMARK VINA RESULT:      -6.8      2.146      5.345
REMARK  Name = 
REMARK  5 active torsions:
REMARK  status: ('A' for Active; 'I' for Inactive)
REMARK    1  A    between atoms: C_1  and  O_2
REMARK    2  A    between atoms: O_2  and  C_3
REMARK    3  A    between atoms: C_3  and  C_5
REMARK    4  A    between atoms: N_10  and  S_11
REMARK    5  A    between atoms: S_11  and  C_14
REMARK                            x       y       z     vdW  Elec       q    Type
REMARK                         _______ _______ _______ _____ _____    ______ ____
ROOT
ATOM      1  C   UNL     1       5.185   4.986  16.714  0.00  0.00    +0.000 C 
ATOM      2  C   UNL     1       5.039   6.459  16.369  0.00  0.00    +0.000 C 
ATOM      3  C   UNL     1       4.055   6.956  17.369  0.00  0.00    +0.000 C 
ATOM      4  O   UNL     1       3.731   8.137  17.450  0.00  0.00    +0.000 OA
ATOM      5  C   UNL     1       3.472   5.872  18.227  0.00  0.00    +0.000 C 
ATOM      6  N   UNL     1       4.274   4.683  17.866  0.00  0.00    +0.000 NA
ENDROOT
BRANCH   6   7
ATOM      7  S   UNL     1       3.418   3.231  17.670  0.00  0.00    +0.000 S 
ATOM      8  O   UNL     1       2.420   3.484  16.652  0.00  0.00    +0.000 OA
ATOM      9  O   UNL     1       4.393   2.175  17.513  0.00  0.00    +0.000 OA
BRANCH   7  10
ATOM     10  C   UNL     1       2.605   2.987  19.225  0.00  0.00    +0.000 A 
ATOM     11  C   UNL     1       3.350   2.649  20.359  0.00  0.00    +0.000 A 
ATOM     12  C   UNL     1       2.706   2.528  21.592  0.00  0.00    +0.000 A 
ATOM     13  C   UNL     1       1.330   2.745  21.685  0.00  0.00    +0.000 A 
ATOM     14  C   UNL     1       0.591   3.080  20.548  0.00  0.00    +0.000 A 
ATOM     15  C   UNL     1       1.227   3.204  19.312  0.00  0.00    +0.000 A 
ENDBRANCH   7  10
ENDBRANCH   6   7
BRANCH   1  16
ATOM     16  C   UNL     1       6.653   4.674  16.955  0.00  0.00    +0.000 C 
ATOM     17  O   UNL     1       7.482   4.662  16.050  0.00  0.00    +0.000 OA
BRANCH  16  19
ATOM     18  C   UNL     1       7.670   5.584  18.851  0.00  0.00    +0.000 C 
ATOM     19  O   UNL     1       6.954   4.490  18.270  0.00  0.00    +0.000 OA
ENDBRANCH  16  19
ENDBRANCH   1  16
TORSDOF 4
ENDMDL
