MODEL 1
REMARK VINA RESULT:      -9.5      0.000      0.000
REMARK  Name = 
REMARK  8 active torsions:
REMARK  status: ('A' for Active; 'I' for Inactive)
REMARK    1  A    between atoms: C_1  and  C_2
REMARK    2  A    between atoms: C_2  and  C_3
REMARK    3  A    between atoms: C_3  and  C_4
REMARK    4  A    between atoms: C_4  and  C_5
REMARK    5  A    between atoms: C_8  and  C_9
REMARK    6  A    between atoms: C_22  and  N_23
REMARK    7  A    between atoms: C_24  and  C_26
REMARK    8  A    between atoms: C_26  and  O_27
REMARK                            x       y       z     vdW  Elec       q    Type
REMARK                         _______ _______ _______ _____ _____    ______ ____
ROOT
ATOM      1  C   UNL     1       2.896   6.684  18.645  0.00  0.00    +0.000 A 
ATOM      2  C   UNL     1       2.534   6.181  19.913  0.00  0.00    +0.000 A 
ATOM      3  C   UNL     1       1.740   6.891  20.818  0.00  0.00    +0.000 A 
ATOM      4  C   UNL     1       1.275   8.160  20.461  0.00  0.00    +0.000 A 
ATOM      5  C   UNL     1       0.520   9.141  21.119  0.00  0.00    +0.000 A 
ATOM      6  C   UNL     1       0.276  10.154  20.227  0.00  0.00    +0.000 A 
ATOM      7  N   UNL     1       0.961   9.920  19.081  0.00  0.00    +0.000 N 
ATOM      8  C   UNL     1       1.593   8.678  19.196  0.00  0.00    +0.000 A 
ATOM      9  C   UNL     1       2.421   7.969  18.299  0.00  0.00    +0.000 A 
ATOM     10  F   UNL     1       2.739   8.524  17.119  0.00  0.00    +0.000 F 
ATOM     11  C   UNL     1      -0.523  11.168  20.844  0.00  0.00    +0.000 A 
ATOM     12  C   UNL     1      -1.128  12.303  20.368  0.00  0.00    +0.000 A 
ATOM     13  C   UNL     1      -1.849  13.090  21.281  0.00  0.00    +0.000 A 
ATOM     14  C   UNL     1      -1.929  12.761  22.651  0.00  0.00    +0.000 A 
ATOM     15  C   UNL     1      -1.332  11.575  23.110  0.00  0.00    +0.000 A 
ATOM     16  C   UNL     1      -0.670  10.762  22.196  0.00  0.00    +0.000 A 
ATOM     17  C   UNL     1      -0.072   9.373  22.472  0.00  0.00    +0.000 C 
ATOM     18  H   UNL     1       1.033  10.533  18.281  0.00  0.00    +0.000 HD
ENDROOT
BRANCH   1  22
ATOM     19  C   UNL     1       5.260   4.357  15.844  0.00  0.00    +0.000 A 
ATOM     20  C   UNL     1       5.501   5.715  16.044  0.00  0.00    +0.000 A 
ATOM     21  C   UNL     1       4.778   6.428  17.004  0.00  0.00    +0.000 A 
ATOM     22  C   UNL     1       3.752   5.836  17.768  0.00  0.00    +0.000 A 
ATOM     23  C   UNL     1       3.543   4.458  17.580  0.00  0.00    +0.000 A 
ATOM     24  C   UNL     1       4.283   3.733  16.630  0.00  0.00    +0.000 A 
BRANCH  19  25
ATOM     25  C   UNL     1       6.019   3.600  14.778  0.00  0.00    +0.000 C 
BRANCH  25  26
ATOM     26  C   UNL     1       6.558   4.470  13.634  0.00  0.00    +0.000 C 
BRANCH  26  28
ATOM     27  C   UNL     1       5.132   3.180  12.005  0.00  0.00    +0.000 C 
ATOM     28  C   UNL     1       6.509   3.765  12.279  0.00  0.00    +0.000 C 
ENDBRANCH  26  28
ENDBRANCH  25  26
ENDBRANCH  19  25
ENDBRANCH   1  22
BRANCH  14  29
ATOM     29  N   UNL     1      -2.586  13.569  23.612  0.00  0.00    +0.000 N 
ATOM     30  C   UNL     1      -2.019  14.542  24.410  0.00  0.00    +0.000 C 
ATOM     31  O   UNL     1      -0.848  14.918  24.394  0.00  0.00    +0.000 OA
ATOM     32  H   UNL     1      -3.587  13.435  23.696  0.00  0.00    +0.000 HD
BRANCH  30  33
ATOM     33  C   UNL     1      -2.992  15.201  25.394  0.00  0.00    +0.000 C 
BRANCH  33  34
ATOM     34  O   UNL     1      -4.280  15.369  24.815  0.00  0.00    +0.000 OA
ATOM     35  H   UNL     1      -4.716  14.494  24.881  0.00  0.00    +0.000 HD
ENDBRANCH  33  34
ENDBRANCH  30  33
ENDBRANCH  14  29
TORSDOF 7
ENDMDL
MODEL 2
REMARK VINA RESULT:      -9.3      1.797      2.391
REMARK  Name = 
REMARK  8 active torsions:
REMARK  status: ('A' for Active; 'I' for Inactive)
REMARK    1  A    between atoms: C_1  and  C_2
REMARK    2  A    between atoms: C_2  and  C_3
REMARK    3  A    between atoms: C_3  and  C_4
REMARK    4  A    between atoms: C_4  and  C_5
REMARK    5  A    between atoms: C_8  and  C_9
REMARK    6  A    between atoms: C_22  and  N_23
REMARK    7  A    between atoms: C_24  and  C_26
REMARK    8  A    between atoms: C_26  and  O_27
REMARK                            x       y       z     vdW  Elec       q    Type
REMARK                         _______ _______ _______ _____ _____    ______ ____
ROOT
ATOM      1  C   UNL     1       2.599   7.631  18.321  0.00  0.00    +0.000 A 
ATOM      2  C   UNL     1       2.296   8.727  17.485  0.00  0.00    +0.000 A 
ATOM      3  C   UNL     1       1.457   9.775  17.874  0.00  0.00    +0.000 A 
ATOM      4  C   UNL     1       0.888   9.749  19.150  0.00  0.00    +0.000 A 
ATOM      5  C   UNL     1      -0.010  10.582  19.833  0.00  0.00    +0.000 A 
ATOM      6  C   UNL     1      -0.128  10.112  21.116  0.00  0.00    +0.000 A 
ATOM      7  N   UNL     1       0.543   8.940  21.230  0.00  0.00    +0.000 N 
ATOM      8  C   UNL     1       1.192   8.688  20.018  0.00  0.00    +0.000 A 
ATOM      9  C   UNL     1       2.015   7.618  19.608  0.00  0.00    +0.000 A 
ATOM     10  F   UNL     1       2.240   6.599  20.454  0.00  0.00    +0.000 F 
ATOM     11  C   UNL     1      -1.011  10.952  21.865  0.00  0.00    +0.000 A 
ATOM     12  C   UNL     1      -1.368  10.991  23.189  0.00  0.00    +0.000 A 
ATOM     13  C   UNL     1      -2.290  11.974  23.588  0.00  0.00    +0.000 A 
ATOM     14  C   UNL     1      -2.868  12.874  22.666  0.00  0.00    +0.000 A 
ATOM     15  C   UNL     1      -2.461  12.839  21.323  0.00  0.00    +0.000 A 
ATOM     16  C   UNL     1      -1.502  11.907  20.938  0.00  0.00    +0.000 A 
ATOM     17  C   UNL     1      -0.835  11.798  19.557  0.00  0.00    +0.000 C 
ATOM     18  H   UNL     1       0.565   8.329  22.035  0.00  0.00    +0.000 HD
ENDROOT
BRANCH   1  22
ATOM     19  C   UNL     1       5.166   4.644  16.495  0.00  0.00    +0.000 A 
ATOM     20  C   UNL     1       5.512   5.994  16.498  0.00  0.00    +0.000 A 
ATOM     21  C   UNL     1       4.708   6.929  17.155  0.00  0.00    +0.000 A 
ATOM     22  C   UNL     1       3.503   6.571  17.794  0.00  0.00    +0.000 A 
ATOM     23  C   UNL     1       3.185   5.201  17.813  0.00  0.00    +0.000 A 
ATOM     24  C   UNL     1       4.002   4.254  17.170  0.00  0.00    +0.000 A 
BRANCH  19  25
ATOM     25  C   UNL     1       6.020   3.643  15.750  0.00  0.00    +0.000 C 
BRANCH  25  26
ATOM     26  C   UNL     1       6.653   4.176  14.457  0.00  0.00    +0.000 C 
BRANCH  26  28
ATOM     27  C   UNL     1       6.818   3.724  11.983  0.00  0.00    +0.000 C 
ATOM     28  C   UNL     1       5.907   3.725  13.201  0.00  0.00    +0.000 C 
ENDBRANCH  26  28
ENDBRANCH  25  26
ENDBRANCH  19  25
ENDBRANCH   1  22
BRANCH  14  29
ATOM     29  N   UNL     1      -3.853  13.828  23.020  0.00  0.00    +0.000 N 
ATOM     30  C   UNL     1      -5.193  13.594  23.256  0.00  0.00    +0.000 C 
ATOM     31  O   UNL     1      -5.763  12.504  23.252  0.00  0.00    +0.000 OA
ATOM     32  H   UNL     1      -3.527  14.780  23.142  0.00  0.00    +0.000 HD
BRANCH  30  33
ATOM     33  C   UNL     1      -6.012  14.853  23.563  0.00  0.00    +0.000 C 
BRANCH  33  34
ATOM     34  O   UNL     1      -7.090  14.569  24.445  0.00  0.00    +0.000 OA
ATOM     35  H   UNL     1      -6.762  14.785  25.342  0.00  0.00    +0.000 HD
ENDBRANCH  33  34
ENDBRANCH  30  33
ENDBRANCH  14  29
TORSDOF 7
ENDMDL
MODEL 3
REMARK VINA RESULT:      -9.1      0.775      1.177
REMARK  Name = 
REMARK  8 active torsions:
REMARK  status: ('A' for Active; 'I' for Inactive)
REMARK    1  A    between atoms: C_1  and  C_2
REMARK    2  A    between atoms: C_2  and  C_3
REMARK    3  A    between atoms: C_3  and  C_4
REMARK    4  A    between atoms: C_4  and  C_5
REMARK    5  A    between atoms: C_8  and  C_9
REMARK    6  A    between atoms: C_22  and  N_23
REMARK    7  A    between atoms: C_24  and  C_26
REMARK    8  A    between atoms: C_26  and  O_27
REMARK                            x       y       z     vdW  Elec       q    Type
REMARK                         _______ _______ _______ _____ _____    ______ ____
ROOT
ATOM      1  C   UNL     1       2.499   7.327  18.719  0.00  0.00    +0.000 A 
ATOM      2  C   UNL     1       2.215   6.901  20.034  0.00  0.00    +0.000 A 
ATOM      3  C   UNL     1       1.447   7.651  20.931  0.00  0.00    +0.000 A 
ATOM      4  C   UNL     1       0.928   8.880  20.515  0.00  0.00    +0.000 A 
ATOM      5  C   UNL     1       0.179   9.884  21.145  0.00  0.00    +0.000 A 
ATOM      6  C   UNL     1      -0.139  10.828  20.202  0.00  0.00    +0.000 A 
ATOM      7  N   UNL     1       0.495  10.534  19.040  0.00  0.00    +0.000 N 
ATOM      8  C   UNL     1       1.168   9.320  19.204  0.00  0.00    +0.000 A 
ATOM      9  C   UNL     1       1.970   8.574  18.314  0.00  0.00    +0.000 A 
ATOM     10  F   UNL     1       2.213   9.056  17.085  0.00  0.00    +0.000 F 
ATOM     11  C   UNL     1      -0.934  11.860  20.792  0.00  0.00    +0.000 A 
ATOM     12  C   UNL     1      -1.595  12.945  20.274  0.00  0.00    +0.000 A 
ATOM     13  C   UNL     1      -2.292  13.773  21.169  0.00  0.00    +0.000 A 
ATOM     14  C   UNL     1      -2.294  13.534  22.561  0.00  0.00    +0.000 A 
ATOM     15  C   UNL     1      -1.641  12.398  23.065  0.00  0.00    +0.000 A 
ATOM     16  C   UNL     1      -1.002  11.543  22.173  0.00  0.00    +0.000 A 
ATOM     17  C   UNL     1      -0.351  10.191  22.509  0.00  0.00    +0.000 C 
ATOM     18  H   UNL     1       0.510  11.094  18.199  0.00  0.00    +0.000 HD
ENDROOT
BRANCH   1  22
ATOM     19  C   UNL     1       5.035   4.616  16.469  0.00  0.00    +0.000 A 
ATOM     20  C   UNL     1       3.888   4.165  17.119  0.00  0.00    +0.000 A 
ATOM     21  C   UNL     1       3.046   5.067  17.776  0.00  0.00    +0.000 A 
ATOM     22  C   UNL     1       3.334   6.444  17.857  0.00  0.00    +0.000 A 
ATOM     23  C   UNL     1       4.476   6.890  17.168  0.00  0.00    +0.000 A 
ATOM     24  C   UNL     1       5.315   5.988  16.489  0.00  0.00    +0.000 A 
BRANCH  19  25
ATOM     25  C   UNL     1       5.962   3.631  15.793  0.00  0.00    +0.000 C 
BRANCH  25  26
ATOM     26  C   UNL     1       6.453   4.062  14.404  0.00  0.00    +0.000 C 
BRANCH  26  28
ATOM     27  C   UNL     1       5.764   3.195  12.139  0.00  0.00    +0.000 C 
ATOM     28  C   UNL     1       5.348   4.023  13.347  0.00  0.00    +0.000 C 
ENDBRANCH  26  28
ENDBRANCH  25  26
ENDBRANCH  19  25
ENDBRANCH   1  22
BRANCH  14  29
ATOM     29  N   UNL     1      -2.925  14.388  23.498  0.00  0.00    +0.000 N 
ATOM     30  C   UNL     1      -2.311  15.225  24.409  0.00  0.00    +0.000 C 
ATOM     31  O   UNL     1      -1.103  15.418  24.535  0.00  0.00    +0.000 OA
ATOM     32  H   UNL     1      -3.938  14.406  23.472  0.00  0.00    +0.000 HD
BRANCH  30  33
ATOM     33  C   UNL     1      -3.277  15.979  25.329  0.00  0.00    +0.000 C 
BRANCH  33  34
ATOM     34  O   UNL     1      -4.628  15.807  24.915  0.00  0.00    +0.000 OA
ATOM     35  H   UNL     1      -5.162  16.363  25.518  0.00  0.00    +0.000 HD
ENDBRANCH  33  34
ENDBRANCH  30  33
ENDBRANCH  14  29
TORSDOF 7
ENDMDL
MODEL 4
REMARK VINA RESULT:      -9.1      1.353      2.018
REMARK  Name = 
REMARK  8 active torsions:
REMARK  status: ('A' for Active; 'I' for Inactive)
REMARK    1  A    between atoms: C_1  and  C_2
REMARK    2  A    between atoms: C_2  and  C_3
REMARK    3  A    between atoms: C_3  and  C_4
REMARK    4  A    between atoms: C_4  and  C_5
REMARK    5  A    between atoms: C_8  and  C_9
REMARK    6  A    between atoms: C_22  and  N_23
REMARK    7  A    between atoms: C_24  and  C_26
REMARK    8  A    between atoms: C_26  and  O_27
REMARK                            x       y       z     vdW  Elec       q    Type
REMARK                         _______ _______ _______ _____ _____    ______ ____
ROOT
ATOM      1  C   UNL     1       2.670   7.590  18.330  0.00  0.00    +0.000 A 
ATOM      2  C   UNL     1       2.427   8.715  17.513  0.00  0.00    +0.000 A 
ATOM      3  C   UNL     1       1.607   9.778  17.901  0.00  0.00    +0.000 A 
ATOM      4  C   UNL     1       0.995   9.738  19.157  0.00  0.00    +0.000 A 
ATOM      5  C   UNL     1       0.101  10.581  19.832  0.00  0.00    +0.000 A 
ATOM      6  C   UNL     1      -0.074  10.083  21.098  0.00  0.00    +0.000 A 
ATOM      7  N   UNL     1       0.559   8.889  21.204  0.00  0.00    +0.000 N 
ATOM      8  C   UNL     1       1.239   8.648  20.007  0.00  0.00    +0.000 A 
ATOM      9  C   UNL     1       2.043   7.563  19.596  0.00  0.00    +0.000 A 
ATOM     10  F   UNL     1       2.209   6.518  20.423  0.00  0.00    +0.000 F 
ATOM     11  C   UNL     1      -0.955  10.931  21.840  0.00  0.00    +0.000 A 
ATOM     12  C   UNL     1      -1.355  10.949  23.152  0.00  0.00    +0.000 A 
ATOM     13  C   UNL     1      -2.259  11.949  23.545  0.00  0.00    +0.000 A 
ATOM     14  C   UNL     1      -2.779  12.889  22.630  0.00  0.00    +0.000 A 
ATOM     15  C   UNL     1      -2.330  12.875  21.299  0.00  0.00    +0.000 A 
ATOM     16  C   UNL     1      -1.387  11.924  20.922  0.00  0.00    +0.000 A 
ATOM     17  C   UNL     1      -0.678  11.829  19.561  0.00  0.00    +0.000 C 
ATOM     18  H   UNL     1       0.536   8.258  21.993  0.00  0.00    +0.000 HD
ENDROOT
BRANCH   1  22
ATOM     19  C   UNL     1       5.226   4.587  16.515  0.00  0.00    +0.000 A 
ATOM     20  C   UNL     1       5.644   5.909  16.651  0.00  0.00    +0.000 A 
ATOM     21  C   UNL     1       4.835   6.843  17.304  0.00  0.00    +0.000 A 
ATOM     22  C   UNL     1       3.559   6.516  17.805  0.00  0.00    +0.000 A 
ATOM     23  C   UNL     1       3.165   5.171  17.691  0.00  0.00    +0.000 A 
ATOM     24  C   UNL     1       3.984   4.223  17.052  0.00  0.00    +0.000 A 
BRANCH  19  25
ATOM     25  C   UNL     1       6.088   3.590  15.773  0.00  0.00    +0.000 C 
BRANCH  25  26
ATOM     26  C   UNL     1       6.498   4.024  14.359  0.00  0.00    +0.000 C 
BRANCH  26  28
ATOM     27  C   UNL     1       5.788   3.187  12.090  0.00  0.00    +0.000 C 
ATOM     28  C   UNL     1       5.353   3.918  13.351  0.00  0.00    +0.000 C 
ENDBRANCH  26  28
ENDBRANCH  25  26
ENDBRANCH  19  25
ENDBRANCH   1  22
BRANCH  14  29
ATOM     29  N   UNL     1      -3.747  13.864  22.976  0.00  0.00    +0.000 N 
ATOM     30  C   UNL     1      -3.515  15.113  23.518  0.00  0.00    +0.000 C 
ATOM     31  O   UNL     1      -2.421  15.623  23.751  0.00  0.00    +0.000 OA
ATOM     32  H   UNL     1      -4.710  13.626  22.771  0.00  0.00    +0.000 HD
BRANCH  30  33
ATOM     33  C   UNL     1      -4.784  15.911  23.834  0.00  0.00    +0.000 C 
BRANCH  33  34
ATOM     34  O   UNL     1      -5.821  15.066  24.319  0.00  0.00    +0.000 OA
ATOM     35  H   UNL     1      -6.549  15.666  24.583  0.00  0.00    +0.000 HD
ENDBRANCH  33  34
ENDBRANCH  30  33
ENDBRANCH  14  29
TORSDOF 7
ENDMDL
MODEL 5
REMARK VINA RESULT:      -9.0      0.951      1.139
REMARK  Name = 
REMARK  8 active torsions:
REMARK  status: ('A' for Active; 'I' for Inactive)
REMARK    1  A    between atoms: C_1  and  C_2
REMARK    2  A    between atoms: C_2  and  C_3
REMARK    3  A    between atoms: C_3  and  C_4
REMARK    4  A    between atoms: C_4  and  C_5
REMARK    5  A    between atoms: C_8  and  C_9
REMARK    6  A    between atoms: C_22  and  N_23
REMARK    7  A    between atoms: C_24  and  C_26
REMARK    8  A    between atoms: C_26  and  O_27
REMARK                            x       y       z     vdW  Elec       q    Type
REMARK                         _______ _______ _______ _____ _____    ______ ____
ROOT
ATOM      1  C   UNL     1       3.093   6.649  18.399  0.00  0.00    +0.000 A 
ATOM      2  C   UNL     1       2.772   6.113  19.665  0.00  0.00    +0.000 A 
ATOM      3  C   UNL     1       1.963   6.775  20.592  0.00  0.00    +0.000 A 
ATOM      4  C   UNL     1       1.437   8.026  20.260  0.00  0.00    +0.000 A 
ATOM      5  C   UNL     1       0.650   8.964  20.944  0.00  0.00    +0.000 A 
ATOM      6  C   UNL     1       0.348   9.978  20.070  0.00  0.00    +0.000 A 
ATOM      7  N   UNL     1       1.025   9.790  18.911  0.00  0.00    +0.000 N 
ATOM      8  C   UNL     1       1.712   8.576  18.998  0.00  0.00    +0.000 A 
ATOM      9  C   UNL     1       2.556   7.917  18.079  0.00  0.00    +0.000 A 
ATOM     10  F   UNL     1       2.832   8.502  16.902  0.00  0.00    +0.000 F 
ATOM     11  C   UNL     1      -0.485  10.946  20.714  0.00  0.00    +0.000 A 
ATOM     12  C   UNL     1      -1.146  12.061  20.264  0.00  0.00    +0.000 A 
ATOM     13  C   UNL     1      -1.887  12.802  21.199  0.00  0.00    +0.000 A 
ATOM     14  C   UNL     1      -1.932  12.450  22.565  0.00  0.00    +0.000 A 
ATOM     15  C   UNL     1      -1.276  11.286  22.998  0.00  0.00    +0.000 A 
ATOM     16  C   UNL     1      -0.593  10.516  22.062  0.00  0.00    +0.000 A 
ATOM     17  C   UNL     1       0.070   9.151  22.309  0.00  0.00    +0.000 C 
ATOM     18  H   UNL     1       1.058  10.417  18.119  0.00  0.00    +0.000 HD
ENDROOT
BRANCH   1  22
ATOM     19  C   UNL     1       5.487   4.438  15.530  0.00  0.00    +0.000 A 
ATOM     20  C   UNL     1       5.577   5.825  15.635  0.00  0.00    +0.000 A 
ATOM     21  C   UNL     1       4.852   6.509  16.615  0.00  0.00    +0.000 A 
ATOM     22  C   UNL     1       3.971   5.852  17.498  0.00  0.00    +0.000 A 
ATOM     23  C   UNL     1       3.917   4.450  17.403  0.00  0.00    +0.000 A 
ATOM     24  C   UNL     1       4.660   3.756  16.432  0.00  0.00    +0.000 A 
BRANCH  19  25
ATOM     25  C   UNL     1       6.243   3.707  14.444  0.00  0.00    +0.000 C 
BRANCH  25  26
ATOM     26  C   UNL     1       5.570   3.735  13.065  0.00  0.00    +0.000 C 
BRANCH  26  28
ATOM     27  C   UNL     1       5.816   1.873  11.385  0.00  0.00    +0.000 C 
ATOM     28  C   UNL     1       6.445   3.130  11.966  0.00  0.00    +0.000 C 
ENDBRANCH  26  28
ENDBRANCH  25  26
ENDBRANCH  19  25
ENDBRANCH   1  22
BRANCH  14  29
ATOM     29  N   UNL     1      -2.608  13.215  23.547  0.00  0.00    +0.000 N 
ATOM     30  C   UNL     1      -3.964  13.221  23.811  0.00  0.00    +0.000 C 
ATOM     31  O   UNL     1      -4.822  12.523  23.274  0.00  0.00    +0.000 OA
ATOM     32  H   UNL     1      -2.025  13.796  24.138  0.00  0.00    +0.000 HD
BRANCH  30  33
ATOM     33  C   UNL     1      -4.392  14.207  24.903  0.00  0.00    +0.000 C 
BRANCH  33  34
ATOM     34  O   UNL     1      -3.268  14.729  25.601  0.00  0.00    +0.000 OA
ATOM     35  H   UNL     1      -2.509  14.633  24.989  0.00  0.00    +0.000 HD
ENDBRANCH  33  34
ENDBRANCH  30  33
ENDBRANCH  14  29
TORSDOF 7
ENDMDL
MODEL 6
REMARK VINA RESULT:      -9.0      1.072      1.072
REMARK  Name = 
REMARK  8 active torsions:
REMARK  status: ('A' for Active; 'I' for Inactive)
REMARK    1  A    between atoms: C_1  and  C_2
REMARK    2  A    between atoms: C_2  and  C_3
REMARK    3  A    between atoms: C_3  and  C_4
REMARK    4  A    between atoms: C_4  and  C_5
REMARK    5  A    between atoms: C_8  and  C_9
REMARK    6  A    between atoms: C_22  and  N_23
REMARK    7  A    between atoms: C_24  and  C_26
REMARK    8  A    between atoms: C_26  and  O_27
REMARK                            x       y       z     vdW  Elec       q    Type
REMARK                         _______ _______ _______ _____ _____    ______ ____
ROOT
ATOM      1  C   UNL     1       2.752   6.886  18.704  0.00  0.00    +0.000 A 
ATOM      2  C   UNL     1       2.373   6.459  19.995  0.00  0.00    +0.000 A 
ATOM      3  C   UNL     1       1.575   7.226  20.849  0.00  0.00    +0.000 A 
ATOM      4  C   UNL     1       1.122   8.474  20.414  0.00  0.00    +0.000 A 
ATOM      5  C   UNL     1       0.368   9.497  21.007  0.00  0.00    +0.000 A 
ATOM      6  C   UNL     1       0.140  10.458  20.055  0.00  0.00    +0.000 A 
ATOM      7  N   UNL     1       0.835  10.153  18.932  0.00  0.00    +0.000 N 
ATOM      8  C   UNL     1       1.457   8.917  19.125  0.00  0.00    +0.000 A 
ATOM      9  C   UNL     1       2.289   8.152  18.279  0.00  0.00    +0.000 A 
ATOM     10  F   UNL     1       2.623   8.636  17.072  0.00  0.00    +0.000 F 
ATOM     11  C   UNL     1      -0.658  11.510  20.604  0.00  0.00    +0.000 A 
ATOM     12  C   UNL     1      -1.250  12.620  20.057  0.00  0.00    +0.000 A 
ATOM     13  C   UNL     1      -1.975  13.463  20.916  0.00  0.00    +0.000 A 
ATOM     14  C   UNL     1      -2.071  13.214  22.302  0.00  0.00    +0.000 A 
ATOM     15  C   UNL     1      -1.487  12.053  22.835  0.00  0.00    +0.000 A 
ATOM     16  C   UNL     1      -0.821  11.185  21.976  0.00  0.00    +0.000 A 
ATOM     17  C   UNL     1      -0.236   9.810  22.339  0.00  0.00    +0.000 C 
ATOM     18  H   UNL     1       0.920  10.719  18.098  0.00  0.00    +0.000 HD
ENDROOT
BRANCH   1  22
ATOM     19  C   UNL     1       5.161   4.416  16.069  0.00  0.00    +0.000 A 
ATOM     20  C   UNL     1       5.500   5.742  16.331  0.00  0.00    +0.000 A 
ATOM     21  C   UNL     1       4.752   6.497  17.240  0.00  0.00    +0.000 A 
ATOM     22  C   UNL     1       3.610   5.983  17.887  0.00  0.00    +0.000 A 
ATOM     23  C   UNL     1       3.301   4.634  17.639  0.00  0.00    +0.000 A 
ATOM     24  C   UNL     1       4.062   3.865  16.742  0.00  0.00    +0.000 A 
BRANCH  19  25
ATOM     25  C   UNL     1       5.950   3.616  15.058  0.00  0.00    +0.000 C 
BRANCH  25  26
ATOM     26  C   UNL     1       6.455   4.424  13.855  0.00  0.00    +0.000 C 
BRANCH  26  28
ATOM     27  C   UNL     1       4.969   3.368  12.114  0.00  0.00    +0.000 C 
ATOM     28  C   UNL     1       6.404   3.636  12.546  0.00  0.00    +0.000 C 
ENDBRANCH  26  28
ENDBRANCH  25  26
ENDBRANCH  19  25
ENDBRANCH   1  22
BRANCH  14  29
ATOM     29  N   UNL     1      -2.732  14.081  23.207  0.00  0.00    +0.000 N 
ATOM     30  C   UNL     1      -4.016  14.579  23.098  0.00  0.00    +0.000 C 
ATOM     31  O   UNL     1      -4.835  14.318  22.219  0.00  0.00    +0.000 OA
ATOM     32  H   UNL     1      -2.213  14.334  24.040  0.00  0.00    +0.000 HD
BRANCH  30  33
ATOM     33  C   UNL     1      -4.418  15.543  24.219  0.00  0.00    +0.000 C 
BRANCH  33  34
ATOM     34  O   UNL     1      -5.814  15.477  24.484  0.00  0.00    +0.000 OA
ATOM     35  H   UNL     1      -6.118  14.632  24.094  0.00  0.00    +0.000 HD
ENDBRANCH  33  34
ENDBRANCH  30  33
ENDBRANCH  14  29
TORSDOF 7
ENDMDL
MODEL 7
REMARK VINA RESULT:      -8.8      1.313      1.988
REMARK  Name = 
REMARK  8 active torsions:
REMARK  status: ('A' for Active; 'I' for Inactive)
REMARK    1  A    between atoms: C_1  and  C_2
REMARK    2  A    between atoms: C_2  and  C_3
REMARK    3  A    between atoms: C_3  and  C_4
REMARK    4  A    between atoms: C_4  and  C_5
REMARK    5  A    between atoms: C_8  and  C_9
REMARK    6  A    between atoms: C_22  and  N_23
REMARK    7  A    between atoms: C_24  and  C_26
REMARK    8  A    between atoms: C_26  and  O_27
REMARK                            x       y       z     vdW  Elec       q    Type
REMARK                         _______ _______ _______ _____ _____    ______ ____
ROOT
ATOM      1  C   UNL     1       2.099   7.794  18.990  0.00  0.00    +0.000 A 
ATOM      2  C   UNL     1       1.809   7.418  20.319  0.00  0.00    +0.000 A 
ATOM      3  C   UNL     1       1.073   8.220  21.196  0.00  0.00    +0.000 A 
ATOM      4  C   UNL     1       0.593   9.453  20.746  0.00  0.00    +0.000 A 
ATOM      5  C   UNL     1      -0.117  10.500  21.349  0.00  0.00    +0.000 A 
ATOM      6  C   UNL     1      -0.409  11.425  20.379  0.00  0.00    +0.000 A 
ATOM      7  N   UNL     1       0.207  11.075  19.223  0.00  0.00    +0.000 N 
ATOM      8  C   UNL     1       0.839   9.844  19.420  0.00  0.00    +0.000 A 
ATOM      9  C   UNL     1       1.610   9.044  18.549  0.00  0.00    +0.000 A 
ATOM     10  F   UNL     1       1.862   9.481  17.305  0.00  0.00    +0.000 F 
ATOM     11  C   UNL     1      -1.166  12.501  20.941  0.00  0.00    +0.000 A 
ATOM     12  C   UNL     1      -1.793  13.592  20.394  0.00  0.00    +0.000 A 
ATOM     13  C   UNL     1      -2.456  14.469  21.267  0.00  0.00    +0.000 A 
ATOM     14  C   UNL     1      -2.457  14.274  22.665  0.00  0.00    +0.000 A 
ATOM     15  C   UNL     1      -1.840  13.132  23.200  0.00  0.00    +0.000 A 
ATOM     16  C   UNL     1      -1.235  12.229  22.332  0.00  0.00    +0.000 A 
ATOM     17  C   UNL     1      -0.628  10.866  22.706  0.00  0.00    +0.000 C 
ATOM     18  H   UNL     1       0.235  11.608  18.365  0.00  0.00    +0.000 HD
ENDROOT
BRANCH   1  22
ATOM     19  C   UNL     1       4.525   4.928  16.810  0.00  0.00    +0.000 A 
ATOM     20  C   UNL     1       3.359   4.540  17.468  0.00  0.00    +0.000 A 
ATOM     21  C   UNL     1       2.554   5.491  18.101  0.00  0.00    +0.000 A 
ATOM     22  C   UNL     1       2.899   6.857  18.151  0.00  0.00    +0.000 A 
ATOM     23  C   UNL     1       4.059   7.239  17.454  0.00  0.00    +0.000 A 
ATOM     24  C   UNL     1       4.861   6.288  16.799  0.00  0.00    +0.000 A 
BRANCH  19  25
ATOM     25  C   UNL     1       5.412   3.890  16.160  0.00  0.00    +0.000 C 
BRANCH  25  26
ATOM     26  C   UNL     1       6.791   4.406  15.725  0.00  0.00    +0.000 C 
BRANCH  26  28
ATOM     27  C   UNL     1       6.063   3.740  13.406  0.00  0.00    +0.000 C 
ATOM     28  C   UNL     1       6.856   4.740  14.234  0.00  0.00    +0.000 C 
ENDBRANCH  26  28
ENDBRANCH  25  26
ENDBRANCH  19  25
ENDBRANCH   1  22
BRANCH  14  29
ATOM     29  N   UNL     1      -3.053  15.177  23.580  0.00  0.00    +0.000 N 
ATOM     30  C   UNL     1      -4.401  15.429  23.743  0.00  0.00    +0.000 C 
ATOM     31  O   UNL     1      -5.331  14.876  23.158  0.00  0.00    +0.000 OA
ATOM     32  H   UNL     1      -2.418  15.664  24.200  0.00  0.00    +0.000 HD
BRANCH  30  33
ATOM     33  C   UNL     1      -4.721  16.510  24.781  0.00  0.00    +0.000 C 
BRANCH  33  34
ATOM     34  O   UNL     1      -3.540  17.156  25.238  0.00  0.00    +0.000 OA
ATOM     35  H   UNL     1      -3.760  18.109  25.284  0.00  0.00    +0.000 HD
ENDBRANCH  33  34
ENDBRANCH  30  33
ENDBRANCH  14  29
TORSDOF 7
ENDMDL
MODEL 8
REMARK VINA RESULT:      -8.6      1.825      2.766
REMARK  Name = 
REMARK  8 active torsions:
REMARK  status: ('A' for Active; 'I' for Inactive)
REMARK    1  A    between atoms: C_1  and  C_2
REMARK    2  A    between atoms: C_2  and  C_3
REMARK    3  A    between atoms: C_3  and  C_4
REMARK    4  A    between atoms: C_4  and  C_5
REMARK    5  A    between atoms: C_8  and  C_9
REMARK    6  A    between atoms: C_22  and  N_23
REMARK    7  A    between atoms: C_24  and  C_26
REMARK    8  A    between atoms: C_26  and  O_27
REMARK                            x       y       z     vdW  Elec       q    Type
REMARK                         _______ _______ _______ _____ _____    ______ ____
ROOT
ATOM      1  C   UNL     1       1.977   8.001  19.159  0.00  0.00    +0.000 A 
ATOM      2  C   UNL     1       1.733   7.662  20.507  0.00  0.00    +0.000 A 
ATOM      3  C   UNL     1       0.967   8.455  21.366  0.00  0.00    +0.000 A 
ATOM      4  C   UNL     1       0.408   9.639  20.878  0.00  0.00    +0.000 A 
ATOM      5  C   UNL     1      -0.351  10.668  21.454  0.00  0.00    +0.000 A 
ATOM      6  C   UNL     1      -0.713  11.535  20.455  0.00  0.00    +0.000 A 
ATOM      7  N   UNL     1      -0.098  11.175  19.302  0.00  0.00    +0.000 N 
ATOM      8  C   UNL     1       0.608   9.991  19.534  0.00  0.00    +0.000 A 
ATOM      9  C   UNL     1       1.408   9.203  18.680  0.00  0.00    +0.000 A 
ATOM     10  F   UNL     1       1.612   9.603  17.414  0.00  0.00    +0.000 F 
ATOM     11  C   UNL     1      -1.521  12.587  20.989  0.00  0.00    +0.000 A 
ATOM     12  C   UNL     1      -2.220  13.617  20.413  0.00  0.00    +0.000 A 
ATOM     13  C   UNL     1      -2.918  14.489  21.264  0.00  0.00    +0.000 A 
ATOM     14  C   UNL     1      -2.883  14.350  22.668  0.00  0.00    +0.000 A 
ATOM     15  C   UNL     1      -2.191  13.268  23.236  0.00  0.00    +0.000 A 
ATOM     16  C   UNL     1      -1.550  12.367  22.391  0.00  0.00    +0.000 A 
ATOM     17  C   UNL     1      -0.858  11.058  22.805  0.00  0.00    +0.000 C 
ATOM     18  H   UNL     1      -0.116  11.674  18.423  0.00  0.00    +0.000 HD
ENDROOT
BRANCH   1  22
ATOM     19  C   UNL     1       4.573   5.241  17.039  0.00  0.00    +0.000 A 
ATOM     20  C   UNL     1       3.596   4.785  17.922  0.00  0.00    +0.000 A 
ATOM     21  C   UNL     1       2.723   5.686  18.537  0.00  0.00    +0.000 A 
ATOM     22  C   UNL     1       2.815   7.079  18.341  0.00  0.00    +0.000 A 
ATOM     23  C   UNL     1       3.783   7.521  17.421  0.00  0.00    +0.000 A 
ATOM     24  C   UNL     1       4.650   6.616  16.784  0.00  0.00    +0.000 A 
BRANCH  19  25
ATOM     25  C   UNL     1       5.539   4.265  16.405  0.00  0.00    +0.000 C 
BRANCH  25  26
ATOM     26  C   UNL     1       7.019   4.647  16.545  0.00  0.00    +0.000 C 
BRANCH  26  28
ATOM     27  C   UNL     1       7.740   6.106  18.469  0.00  0.00    +0.000 C 
ATOM     28  C   UNL     1       7.489   4.681  17.999  0.00  0.00    +0.000 C 
ENDBRANCH  26  28
ENDBRANCH  25  26
ENDBRANCH  19  25
ENDBRANCH   1  22
BRANCH  14  29
ATOM     29  N   UNL     1      -3.515  15.253  23.559  0.00  0.00    +0.000 N 
ATOM     30  C   UNL     1      -4.870  15.486  23.688  0.00  0.00    +0.000 C 
ATOM     31  O   UNL     1      -5.777  14.913  23.086  0.00  0.00    +0.000 OA
ATOM     32  H   UNL     1      -2.902  15.757  24.190  0.00  0.00    +0.000 HD
BRANCH  30  33
ATOM     33  C   UNL     1      -5.231  16.572  24.706  0.00  0.00    +0.000 C 
BRANCH  33  34
ATOM     34  O   UNL     1      -4.067  17.151  25.283  0.00  0.00    +0.000 OA
ATOM     35  H   UNL     1      -4.160  17.024  26.250  0.00  0.00    +0.000 HD
ENDBRANCH  33  34
ENDBRANCH  30  33
ENDBRANCH  14  29
TORSDOF 7
ENDMDL
MODEL 9
REMARK VINA RESULT:      -8.5      4.467     11.960
REMARK  Name = 
REMARK  8 active torsions:
REMARK  status: ('A' for Active; 'I' for Inactive)
REMARK    1  A    between atoms: C_1  and  C_2
REMARK    2  A    between atoms: C_2  and  C_3
REMARK    3  A    between atoms: C_3  and  C_4
REMARK    4  A    between atoms: C_4  and  C_5
REMARK    5  A    between atoms: C_8  and  C_9
REMARK    6  A    between atoms: C_22  and  N_23
REMARK    7  A    between atoms: C_24  and  C_26
REMARK    8  A    between atoms: C_26  and  O_27
REMARK                            x       y       z     vdW  Elec       q    Type
REMARK                         _______ _______ _______ _____ _____    ______ ____
ROOT
ATOM      1  C   UNL     1      -0.479  11.345  21.727  0.00  0.00    +0.000 A 
ATOM      2  C   UNL     1      -0.408  11.685  20.359  0.00  0.00    +0.000 A 
ATOM      3  C   UNL     1       0.253  10.899  19.410  0.00  0.00    +0.000 A 
ATOM      4  C   UNL     1       0.875   9.718  19.824  0.00  0.00    +0.000 A 
ATOM      5  C   UNL     1       1.644   8.743  19.174  0.00  0.00    +0.000 A 
ATOM      6  C   UNL     1       1.900   7.739  20.072  0.00  0.00    +0.000 A 
ATOM      7  N   UNL     1       1.448   8.105  21.296  0.00  0.00    +0.000 N 
ATOM      8  C   UNL     1       0.798   9.336  21.173  0.00  0.00    +0.000 A 
ATOM      9  C   UNL     1       0.156  10.149  22.131  0.00  0.00    +0.000 A 
ATOM     10  F   UNL     1       0.149   9.769  23.418  0.00  0.00    +0.000 F 
ATOM     11  C   UNL     1       2.656   6.701  19.443  0.00  0.00    +0.000 A 
ATOM     12  C   UNL     1       3.061   5.455  19.854  0.00  0.00    +0.000 A 
ATOM     13  C   UNL     1       3.815   4.685  18.954  0.00  0.00    +0.000 A 
ATOM     14  C   UNL     1       4.186   5.171  17.682  0.00  0.00    +0.000 A 
ATOM     15  C   UNL     1       3.732   6.434  17.268  0.00  0.00    +0.000 A 
ATOM     16  C   UNL     1       2.932   7.174  18.134  0.00  0.00    +0.000 A 
ATOM     17  C   UNL     1       2.233   8.506  17.819  0.00  0.00    +0.000 C 
ATOM     18  H   UNL     1       1.568   7.600  22.164  0.00  0.00    +0.000 HD
ENDROOT
BRANCH   1  22
ATOM     19  C   UNL     1      -2.815  14.069  24.172  0.00  0.00    +0.000 A 
ATOM     20  C   UNL     1      -3.280  12.792  23.860  0.00  0.00    +0.000 A 
ATOM     21  C   UNL     1      -2.481  11.906  23.134  0.00  0.00    +0.000 A 
ATOM     22  C   UNL     1      -1.209  12.265  22.644  0.00  0.00    +0.000 A 
ATOM     23  C   UNL     1      -0.738  13.544  22.995  0.00  0.00    +0.000 A 
ATOM     24  C   UNL     1      -1.532  14.431  23.743  0.00  0.00    +0.000 A 
BRANCH  19  25
ATOM     25  C   UNL     1      -3.699  15.037  24.925  0.00  0.00    +0.000 C 
BRANCH  25  26
ATOM     26  C   UNL     1      -3.025  16.365  25.296  0.00  0.00    +0.000 C 
BRANCH  26  28
ATOM     27  C   UNL     1      -5.320  17.203  24.677  0.00  0.00    +0.000 C 
ATOM     28  C   UNL     1      -3.866  17.584  24.918  0.00  0.00    +0.000 C 
ENDBRANCH  26  28
ENDBRANCH  25  26
ENDBRANCH  19  25
ENDBRANCH   1  22
BRANCH  14  29
ATOM     29  N   UNL     1       5.006   4.450  16.779  0.00  0.00    +0.000 N 
ATOM     30  C   UNL     1       5.602   4.930  15.629  0.00  0.00    +0.000 C 
ATOM     31  O   UNL     1       5.570   6.086  15.209  0.00  0.00    +0.000 OA
ATOM     32  H   UNL     1       5.198   3.486  17.025  0.00  0.00    +0.000 HD
BRANCH  30  33
ATOM     33  C   UNL     1       6.383   3.879  14.835  0.00  0.00    +0.000 C 
BRANCH  33  34
ATOM     34  O   UNL     1       6.043   3.913  13.454  0.00  0.00    +0.000 OA
ATOM     35  H   UNL     1       5.279   4.522  13.384  0.00  0.00    +0.000 HD
ENDBRANCH  33  34
ENDBRANCH  30  33
ENDBRANCH  14  29
TORSDOF 7
ENDMDL
