MODEL 1
REMARK VINA RESULT:      -7.0      0.000      0.000
REMARK  Name = 
REMARK  10 active torsions:
REMARK  status: ('A' for Active; 'I' for Inactive)
REMARK    1  A    between atoms: C_1  and  C_2
REMARK    2  A    between atoms: C_2  and  C_3
REMARK    3  A    between atoms: C_3  and  C_4
REMARK    4  A    between atoms: C_4  and  N_5
REMARK    5  A    between atoms: C_9  and  N_10
REMARK    6  A    between atoms: C_11  and  C_12
REMARK    7  A    between atoms: C_12  and  O_14
REMARK    8  A    between atoms: O_14  and  C_15
REMARK    9  A    between atoms: C_15  and  C_16
REMARK   10  A    between atoms: C_17  and  C_18
REMARK                            x       y       z     vdW  Elec       q    Type
REMARK                         _______ _______ _______ _____ _____    ______ ____
ROOT
ATOM      1  N   UNL     1       6.757   6.634  17.173  0.00  0.00    +0.000 N 
ATOM      2  N   UNL     1       7.669   5.659  16.946  0.00  0.00    +0.000 NA
ATOM      3  C   UNL     1       6.957   4.536  17.089  0.00  0.00    +0.000 A 
ATOM      4  C   UNL     1       5.601   4.774  17.407  0.00  0.00    +0.000 A 
ATOM      5  C   UNL     1       4.451   4.007  17.681  0.00  0.00    +0.000 A 
ATOM      6  C   UNL     1       3.253   4.731  17.958  0.00  0.00    +0.000 A 
ATOM      7  C   UNL     1       3.279   6.143  17.946  0.00  0.00    +0.000 A 
ATOM      8  C   UNL     1       2.092   7.039  18.153  0.00  0.00    +0.000 C 
ATOM      9  N   UNL     1       4.402   6.877  17.704  0.00  0.00    +0.000 NA
ATOM     10  C   UNL     1       5.502   6.153  17.443  0.00  0.00    +0.000 A 
ENDROOT
BRANCH   5  11
ATOM     11  N   UNL     1       4.524   2.606  17.776  0.00  0.00    +0.000 N 
ATOM     12  H   UNL     1       5.169   2.239  18.465  0.00  0.00    +0.000 HD
ATOM     13  H   UNL     1       4.607   2.147  16.860  0.00  0.00    +0.000 HD
ENDBRANCH   5  11
BRANCH   6  14
ATOM     14  C   UNL     1       2.005   3.930  18.096  0.00  0.00    +0.000 C 
ATOM     15  O   UNL     1       1.083   4.013  17.293  0.00  0.00    +0.000 OA
BRANCH  14  16
ATOM     16  O   UNL     1       1.995   3.150  19.203  0.00  0.00    +0.000 OA
BRANCH  16  17
ATOM     17  C   UNL     1       1.053   3.527  20.225  0.00  0.00    +0.000 C 
ATOM     18  C   UNL     1       1.398   2.862  21.540  0.00  0.00    +0.000 C 
ENDBRANCH  16  17
ENDBRANCH  14  16
ENDBRANCH   6  14
BRANCH   1  19
ATOM     19  C   UNL     1       7.179   8.023  17.201  0.00  0.00    +0.000 C 
BRANCH  19  20
ATOM     20  C   UNL     1       8.281   8.292  18.226  0.00  0.00    +0.000 C 
BRANCH  20  22
ATOM     21  C   UNL     1       9.336  10.150  19.558  0.00  0.00    +0.000 C 
ATOM     22  C   UNL     1       8.690   9.766  18.235  0.00  0.00    +0.000 C 
ENDBRANCH  20  22
ENDBRANCH  19  20
ENDBRANCH   1  19
TORSDOF 7
ENDMDL
MODEL 2
REMARK VINA RESULT:      -6.9      2.398      4.120
REMARK  Name = 
REMARK  10 active torsions:
REMARK  status: ('A' for Active; 'I' for Inactive)
REMARK    1  A    between atoms: C_1  and  C_2
REMARK    2  A    between atoms: C_2  and  C_3
REMARK    3  A    between atoms: C_3  and  C_4
REMARK    4  A    between atoms: C_4  and  N_5
REMARK    5  A    between atoms: C_9  and  N_10
REMARK    6  A    between atoms: C_11  and  C_12
REMARK    7  A    between atoms: C_12  and  O_14
REMARK    8  A    between atoms: O_14  and  C_15
REMARK    9  A    between atoms: C_15  and  C_16
REMARK   10  A    between atoms: C_17  and  C_18
REMARK                            x       y       z     vdW  Elec       q    Type
REMARK                         _______ _______ _______ _____ _____    ______ ____
ROOT
ATOM      1  N   UNL     1       5.981   5.295  16.263  0.00  0.00    +0.000 N 
ATOM      2  N   UNL     1       5.935   6.647  16.200  0.00  0.00    +0.000 NA
ATOM      3  C   UNL     1       4.795   6.943  16.833  0.00  0.00    +0.000 A 
ATOM      4  C   UNL     1       4.106   5.802  17.301  0.00  0.00    +0.000 A 
ATOM      5  C   UNL     1       2.904   5.525  17.981  0.00  0.00    +0.000 A 
ATOM      6  C   UNL     1       2.623   4.151  18.246  0.00  0.00    +0.000 A 
ATOM      7  C   UNL     1       3.539   3.163  17.822  0.00  0.00    +0.000 A 
ATOM      8  C   UNL     1       3.416   1.690  18.082  0.00  0.00    +0.000 C 
ATOM      9  N   UNL     1       4.688   3.439  17.143  0.00  0.00    +0.000 NA
ATOM     10  C   UNL     1       4.912   4.745  16.923  0.00  0.00    +0.000 A 
ENDROOT
BRANCH   5  11
ATOM     11  N   UNL     1       1.991   6.552  18.283  0.00  0.00    +0.000 N 
ATOM     12  H   UNL     1       2.364   7.494  18.282  0.00  0.00    +0.000 HD
ATOM     13  H   UNL     1       1.416   6.346  19.109  0.00  0.00    +0.000 HD
ENDBRANCH   5  11
BRANCH   6  14
ATOM     14  C   UNL     1       1.434   3.863  19.097  0.00  0.00    +0.000 C 
ATOM     15  O   UNL     1       0.535   3.115  18.731  0.00  0.00    +0.000 OA
BRANCH  14  16
ATOM     16  O   UNL     1       1.447   4.538  20.271  0.00  0.00    +0.000 OA
BRANCH  16  17
ATOM     17  C   UNL     1       2.296   3.991  21.296  0.00  0.00    +0.000 C 
ATOM     18  C   UNL     1       1.758   2.661  21.780  0.00  0.00    +0.000 C 
ENDBRANCH  16  17
ENDBRANCH  14  16
ENDBRANCH   6  14
BRANCH   1  19
ATOM     19  C   UNL     1       7.047   4.578  15.588  0.00  0.00    +0.000 C 
BRANCH  19  20
ATOM     20  C   UNL     1       6.965   4.681  14.065  0.00  0.00    +0.000 C 
BRANCH  20  22
ATOM     21  C   UNL     1       6.181   3.272  12.130  0.00  0.00    +0.000 C 
ATOM     22  C   UNL     1       5.830   3.820  13.506  0.00  0.00    +0.000 C 
ENDBRANCH  20  22
ENDBRANCH  19  20
ENDBRANCH   1  19
TORSDOF 7
ENDMDL
MODEL 3
REMARK VINA RESULT:      -6.9      2.558      6.067
REMARK  Name = 
REMARK  10 active torsions:
REMARK  status: ('A' for Active; 'I' for Inactive)
REMARK    1  A    between atoms: C_1  and  C_2
REMARK    2  A    between atoms: C_2  and  C_3
REMARK    3  A    between atoms: C_3  and  C_4
REMARK    4  A    between atoms: C_4  and  N_5
REMARK    5  A    between atoms: C_9  and  N_10
REMARK    6  A    between atoms: C_11  and  C_12
REMARK    7  A    between atoms: C_12  and  O_14
REMARK    8  A    between atoms: O_14  and  C_15
REMARK    9  A    between atoms: C_15  and  C_16
REMARK   10  A    between atoms: C_17  and  C_18
REMARK                            x       y       z     vdW  Elec       q    Type
REMARK                         _______ _______ _______ _____ _____    ______ ____
ROOT
ATOM      1  N   UNL     1       3.303   3.696  20.379  0.00  0.00    +0.000 N 
ATOM      2  N   UNL     1       3.969   2.518  20.413  0.00  0.00    +0.000 NA
ATOM      3  C   UNL     1       4.822   2.619  19.388  0.00  0.00    +0.000 A 
ATOM      4  C   UNL     1       4.713   3.844  18.694  0.00  0.00    +0.000 A 
ATOM      5  C   UNL     1       5.311   4.457  17.575  0.00  0.00    +0.000 A 
ATOM      6  C   UNL     1       4.849   5.766  17.241  0.00  0.00    +0.000 A 
ATOM      7  C   UNL     1       3.840   6.364  18.028  0.00  0.00    +0.000 A 
ATOM      8  C   UNL     1       3.300   7.753  17.844  0.00  0.00    +0.000 C 
ATOM      9  N   UNL     1       3.250   5.754  19.094  0.00  0.00    +0.000 NA
ATOM     10  C   UNL     1       3.721   4.527  19.372  0.00  0.00    +0.000 A 
ENDROOT
BRANCH   5  11
ATOM     11  N   UNL     1       6.237   3.760  16.779  0.00  0.00    +0.000 N 
ATOM     12  H   UNL     1       6.349   2.775  16.985  0.00  0.00    +0.000 HD
ATOM     13  H   UNL     1       7.132   4.255  16.679  0.00  0.00    +0.000 HD
ENDBRANCH   5  11
BRANCH   6  14
ATOM     14  C   UNL     1       5.583   6.478  16.158  0.00  0.00    +0.000 C 
ATOM     15  O   UNL     1       5.024   6.877  15.144  0.00  0.00    +0.000 OA
BRANCH  14  16
ATOM     16  O   UNL     1       6.910   6.594  16.404  0.00  0.00    +0.000 OA
BRANCH  16  17
ATOM     17  C   UNL     1       7.278   7.564  17.403  0.00  0.00    +0.000 C 
ATOM     18  C   UNL     1       8.018   6.899  18.543  0.00  0.00    +0.000 C 
ENDBRANCH  16  17
ENDBRANCH  14  16
ENDBRANCH   6  14
BRANCH   1  19
ATOM     19  C   UNL     1       2.204   3.930  21.299  0.00  0.00    +0.000 C 
BRANCH  19  20
ATOM     20  C   UNL     1       1.023   2.988  21.069  0.00  0.00    +0.000 C 
BRANCH  20  22
ATOM     21  C   UNL     1       0.790   2.167  18.700  0.00  0.00    +0.000 C 
ATOM     22  C   UNL     1       0.371   3.228  19.707  0.00  0.00    +0.000 C 
ENDBRANCH  20  22
ENDBRANCH  19  20
ENDBRANCH   1  19
TORSDOF 7
ENDMDL
MODEL 4
REMARK VINA RESULT:      -6.8      2.872      4.809
REMARK  Name = 
REMARK  10 active torsions:
REMARK  status: ('A' for Active; 'I' for Inactive)
REMARK    1  A    between atoms: C_1  and  C_2
REMARK    2  A    between atoms: C_2  and  C_3
REMARK    3  A    between atoms: C_3  and  C_4
REMARK    4  A    between atoms: C_4  and  N_5
REMARK    5  A    between atoms: C_9  and  N_10
REMARK    6  A    between atoms: C_11  and  C_12
REMARK    7  A    between atoms: C_12  and  O_14
REMARK    8  A    between atoms: O_14  and  C_15
REMARK    9  A    between atoms: C_15  and  C_16
REMARK   10  A    between atoms: C_17  and  C_18
REMARK                            x       y       z     vdW  Elec       q    Type
REMARK                         _______ _______ _______ _____ _____    ______ ____
ROOT
ATOM      1  N   UNL     1       6.065   4.682  14.992  0.00  0.00    +0.000 N 
ATOM      2  N   UNL     1       7.224   5.338  15.235  0.00  0.00    +0.000 NA
ATOM      3  C   UNL     1       7.307   5.328  16.569  0.00  0.00    +0.000 A 
ATOM      4  C   UNL     1       6.217   4.676  17.189  0.00  0.00    +0.000 A 
ATOM      5  C   UNL     1       5.787   4.399  18.502  0.00  0.00    +0.000 A 
ATOM      6  C   UNL     1       4.563   3.676  18.632  0.00  0.00    +0.000 A 
ATOM      7  C   UNL     1       3.861   3.288  17.469  0.00  0.00    +0.000 A 
ATOM      8  C   UNL     1       2.601   2.473  17.442  0.00  0.00    +0.000 C 
ATOM      9  N   UNL     1       4.273   3.582  16.204  0.00  0.00    +0.000 NA
ATOM     10  C   UNL     1       5.431   4.258  16.132  0.00  0.00    +0.000 A 
ENDROOT
BRANCH   5  11
ATOM     11  N   UNL     1       6.485   4.905  19.613  0.00  0.00    +0.000 N 
ATOM     12  H   UNL     1       7.464   5.116  19.465  0.00  0.00    +0.000 HD
ATOM     13  H   UNL     1       6.313   4.368  20.472  0.00  0.00    +0.000 HD
ENDBRANCH   5  11
BRANCH   6  14
ATOM     14  C   UNL     1       4.183   3.247  20.007  0.00  0.00    +0.000 C 
ATOM     15  O   UNL     1       4.698   2.279  20.555  0.00  0.00    +0.000 OA
BRANCH  14  16
ATOM     16  O   UNL     1       3.203   4.009  20.549  0.00  0.00    +0.000 OA
BRANCH  16  17
ATOM     17  C   UNL     1       2.295   3.323  21.432  0.00  0.00    +0.000 C 
ATOM     18  C   UNL     1       1.002   2.997  20.717  0.00  0.00    +0.000 C 
ENDBRANCH  16  17
ENDBRANCH  14  16
ENDBRANCH   6  14
BRANCH   1  19
ATOM     19  C   UNL     1       5.571   4.570  13.631  0.00  0.00    +0.000 C 
BRANCH  19  20
ATOM     20  C   UNL     1       6.296   3.495  12.820  0.00  0.00    +0.000 C 
BRANCH  20  22
ATOM     21  C   UNL     1       5.950   1.532  11.282  0.00  0.00    +0.000 C 
ATOM     22  C   UNL     1       5.361   2.834  11.806  0.00  0.00    +0.000 C 
ENDBRANCH  20  22
ENDBRANCH  19  20
ENDBRANCH   1  19
TORSDOF 7
ENDMDL
MODEL 5
REMARK VINA RESULT:      -6.7      2.591      6.092
REMARK  Name = 
REMARK  10 active torsions:
REMARK  status: ('A' for Active; 'I' for Inactive)
REMARK    1  A    between atoms: C_1  and  C_2
REMARK    2  A    between atoms: C_2  and  C_3
REMARK    3  A    between atoms: C_3  and  C_4
REMARK    4  A    between atoms: C_4  and  N_5
REMARK    5  A    between atoms: C_9  and  N_10
REMARK    6  A    between atoms: C_11  and  C_12
REMARK    7  A    between atoms: C_12  and  O_14
REMARK    8  A    between atoms: O_14  and  C_15
REMARK    9  A    between atoms: C_15  and  C_16
REMARK   10  A    between atoms: C_17  and  C_18
REMARK                            x       y       z     vdW  Elec       q    Type
REMARK                         _______ _______ _______ _____ _____    ______ ____
ROOT
ATOM      1  N   UNL     1       2.065   2.782  18.612  0.00  0.00    +0.000 N 
ATOM      2  N   UNL     1       2.542   1.537  18.373  0.00  0.00    +0.000 NA
ATOM      3  C   UNL     1       3.648   1.767  17.658  0.00  0.00    +0.000 A 
ATOM      4  C   UNL     1       3.889   3.140  17.432  0.00  0.00    +0.000 A 
ATOM      5  C   UNL     1       4.844   3.927  16.757  0.00  0.00    +0.000 A 
ATOM      6  C   UNL     1       4.661   5.341  16.815  0.00  0.00    +0.000 A 
ATOM      7  C   UNL     1       3.559   5.868  17.524  0.00  0.00    +0.000 A 
ATOM      8  C   UNL     1       3.269   7.326  17.728  0.00  0.00    +0.000 C 
ATOM      9  N   UNL     1       2.626   5.098  18.154  0.00  0.00    +0.000 NA
ATOM     10  C   UNL     1       2.844   3.775  18.077  0.00  0.00    +0.000 A 
ENDROOT
BRANCH   5  11
ATOM     11  N   UNL     1       5.857   3.330  15.987  0.00  0.00    +0.000 N 
ATOM     12  H   UNL     1       6.603   2.879  16.503  0.00  0.00    +0.000 HD
ATOM     13  H   UNL     1       6.200   3.939  15.234  0.00  0.00    +0.000 HD
ENDBRANCH   5  11
BRANCH   6  14
ATOM     14  C   UNL     1       5.747   6.180  16.236  0.00  0.00    +0.000 C 
ATOM     15  O   UNL     1       5.542   6.983  15.334  0.00  0.00    +0.000 OA
BRANCH  14  16
ATOM     16  O   UNL     1       6.960   5.929  16.784  0.00  0.00    +0.000 OA
BRANCH  16  17
ATOM     17  C   UNL     1       7.260   6.651  17.994  0.00  0.00    +0.000 C 
ATOM     18  C   UNL     1       7.843   8.010  17.670  0.00  0.00    +0.000 C 
ENDBRANCH  16  17
ENDBRANCH  14  16
ENDBRANCH   6  14
BRANCH   1  19
ATOM     19  C   UNL     1       0.795   2.948  19.296  0.00  0.00    +0.000 C 
BRANCH  19  20
ATOM     20  C   UNL     1       0.918   3.731  20.603  0.00  0.00    +0.000 C 
BRANCH  20  22
ATOM     21  C   UNL     1       2.818   2.479  21.683  0.00  0.00    +0.000 C 
ATOM     22  C   UNL     1       1.338   2.823  21.761  0.00  0.00    +0.000 C 
ENDBRANCH  20  22
ENDBRANCH  19  20
ENDBRANCH   1  19
TORSDOF 7
ENDMDL
MODEL 6
REMARK VINA RESULT:      -6.7      2.914      4.602
REMARK  Name = 
REMARK  10 active torsions:
REMARK  status: ('A' for Active; 'I' for Inactive)
REMARK    1  A    between atoms: C_1  and  C_2
REMARK    2  A    between atoms: C_2  and  C_3
REMARK    3  A    between atoms: C_3  and  C_4
REMARK    4  A    between atoms: C_4  and  N_5
REMARK    5  A    between atoms: C_9  and  N_10
REMARK    6  A    between atoms: C_11  and  C_12
REMARK    7  A    between atoms: C_12  and  O_14
REMARK    8  A    between atoms: O_14  and  C_15
REMARK    9  A    between atoms: C_15  and  C_16
REMARK   10  A    between atoms: C_17  and  C_18
REMARK                            x       y       z     vdW  Elec       q    Type
REMARK                         _______ _______ _______ _____ _____    ______ ____
ROOT
ATOM      1  N   UNL     1       5.943   4.372  14.966  0.00  0.00    +0.000 N 
ATOM      2  N   UNL     1       7.249   4.619  15.229  0.00  0.00    +0.000 NA
ATOM      3  C   UNL     1       7.273   4.749  16.559  0.00  0.00    +0.000 A 
ATOM      4  C   UNL     1       6.002   4.591  17.156  0.00  0.00    +0.000 A 
ATOM      5  C   UNL     1       5.454   4.645  18.453  0.00  0.00    +0.000 A 
ATOM      6  C   UNL     1       4.051   4.405  18.563  0.00  0.00    +0.000 A 
ATOM      7  C   UNL     1       3.302   4.136  17.396  0.00  0.00    +0.000 A 
ATOM      8  C   UNL     1       1.839   3.802  17.356  0.00  0.00    +0.000 C 
ATOM      9  N   UNL     1       3.837   4.110  16.142  0.00  0.00    +0.000 NA
ATOM     10  C   UNL     1       5.160   4.336  16.091  0.00  0.00    +0.000 A 
ENDROOT
BRANCH   5  11
ATOM     11  N   UNL     1       6.242   5.019  19.556  0.00  0.00    +0.000 N 
ATOM     12  H   UNL     1       7.245   4.975  19.422  0.00  0.00    +0.000 HD
ATOM     13  H   UNL     1       5.934   4.584  20.434  0.00  0.00    +0.000 HD
ENDBRANCH   5  11
BRANCH   6  14
ATOM     14  C   UNL     1       3.495   4.308  19.941  0.00  0.00    +0.000 C 
ATOM     15  O   UNL     1       3.063   5.285  20.541  0.00  0.00    +0.000 OA
BRANCH  14  16
ATOM     16  O   UNL     1       3.557   3.055  20.451  0.00  0.00    +0.000 OA
BRANCH  16  17
ATOM     17  C   UNL     1       2.593   2.749  21.476  0.00  0.00    +0.000 C 
ATOM     18  C   UNL     1       1.193   2.728  20.900  0.00  0.00    +0.000 C 
ENDBRANCH  16  17
ENDBRANCH  14  16
ENDBRANCH   6  14
BRANCH   1  19
ATOM     19  C   UNL     1       5.493   4.264  13.590  0.00  0.00    +0.000 C 
BRANCH  19  20
ATOM     20  C   UNL     1       6.404   3.388  12.730  0.00  0.00    +0.000 C 
BRANCH  20  22
ATOM     21  C   UNL     1       4.237   3.237  11.456  0.00  0.00    +0.000 C 
ATOM     22  C   UNL     1       5.607   2.614  11.678  0.00  0.00    +0.000 C 
ENDBRANCH  20  22
ENDBRANCH  19  20
ENDBRANCH   1  19
TORSDOF 7
ENDMDL
MODEL 7
REMARK VINA RESULT:      -6.4      2.591      4.645
REMARK  Name = 
REMARK  10 active torsions:
REMARK  status: ('A' for Active; 'I' for Inactive)
REMARK    1  A    between atoms: C_1  and  C_2
REMARK    2  A    between atoms: C_2  and  C_3
REMARK    3  A    between atoms: C_3  and  C_4
REMARK    4  A    between atoms: C_4  and  N_5
REMARK    5  A    between atoms: C_9  and  N_10
REMARK    6  A    between atoms: C_11  and  C_12
REMARK    7  A    between atoms: C_12  and  O_14
REMARK    8  A    between atoms: O_14  and  C_15
REMARK    9  A    between atoms: C_15  and  C_16
REMARK   10  A    between atoms: C_17  and  C_18
REMARK                            x       y       z     vdW  Elec       q    Type
REMARK                         _______ _______ _______ _____ _____    ______ ____
ROOT
ATOM      1  N   UNL     1       5.768   4.754  15.302  0.00  0.00    +0.000 N 
ATOM      2  N   UNL     1       5.911   6.073  15.028  0.00  0.00    +0.000 NA
ATOM      3  C   UNL     1       5.140   6.661  15.950  0.00  0.00    +0.000 A 
ATOM      4  C   UNL     1       4.503   5.740  16.811  0.00  0.00    +0.000 A 
ATOM      5  C   UNL     1       3.603   5.788  17.895  0.00  0.00    +0.000 A 
ATOM      6  C   UNL     1       3.230   4.535  18.469  0.00  0.00    +0.000 A 
ATOM      7  C   UNL     1       3.766   3.342  17.935  0.00  0.00    +0.000 A 
ATOM      8  C   UNL     1       3.521   1.960  18.468  0.00  0.00    +0.000 C 
ATOM      9  N   UNL     1       4.616   3.305  16.870  0.00  0.00    +0.000 NA
ATOM     10  C   UNL     1       4.942   4.507  16.368  0.00  0.00    +0.000 A 
ENDROOT
BRANCH   5  11
ATOM     11  N   UNL     1       3.033   7.004  18.307  0.00  0.00    +0.000 N 
ATOM     12  H   UNL     1       3.553   7.842  18.073  0.00  0.00    +0.000 HD
ATOM     13  H   UNL     1       2.716   6.987  19.284  0.00  0.00    +0.000 HD
ENDBRANCH   5  11
BRANCH   6  14
ATOM     14  C   UNL     1       2.405   4.587  19.708  0.00  0.00    +0.000 C 
ATOM     15  O   UNL     1       2.870   4.931  20.788  0.00  0.00    +0.000 OA
BRANCH  14  16
ATOM     16  O   UNL     1       1.127   4.184  19.511  0.00  0.00    +0.000 OA
BRANCH  16  17
ATOM     17  C   UNL     1       0.799   2.877  20.018  0.00  0.00    +0.000 C 
ATOM     18  C   UNL     1       1.315   2.710  21.431  0.00  0.00    +0.000 C 
ENDBRANCH  16  17
ENDBRANCH  14  16
ENDBRANCH   6  14
BRANCH   1  19
ATOM     19  C   UNL     1       6.391   3.768  14.438  0.00  0.00    +0.000 C 
BRANCH  19  20
ATOM     20  C   UNL     1       6.308   4.134  12.956  0.00  0.00    +0.000 C 
BRANCH  20  22
ATOM     21  C   UNL     1       4.422   3.288  11.518  0.00  0.00    +0.000 C 
ATOM     22  C   UNL     1       5.782   2.966  12.119  0.00  0.00    +0.000 C 
ENDBRANCH  20  22
ENDBRANCH  19  20
ENDBRANCH   1  19
TORSDOF 7
ENDMDL
MODEL 8
REMARK VINA RESULT:      -6.4      2.919      6.530
REMARK  Name = 
REMARK  10 active torsions:
REMARK  status: ('A' for Active; 'I' for Inactive)
REMARK    1  A    between atoms: C_1  and  C_2
REMARK    2  A    between atoms: C_2  and  C_3
REMARK    3  A    between atoms: C_3  and  C_4
REMARK    4  A    between atoms: C_4  and  N_5
REMARK    5  A    between atoms: C_9  and  N_10
REMARK    6  A    between atoms: C_11  and  C_12
REMARK    7  A    between atoms: C_12  and  O_14
REMARK    8  A    between atoms: O_14  and  C_15
REMARK    9  A    between atoms: C_15  and  C_16
REMARK   10  A    between atoms: C_17  and  C_18
REMARK                            x       y       z     vdW  Elec       q    Type
REMARK                         _______ _______ _______ _____ _____    ______ ____
ROOT
ATOM      1  N   UNL     1       3.926   3.286  18.829  0.00  0.00    +0.000 N 
ATOM      2  N   UNL     1       2.989   3.225  17.854  0.00  0.00    +0.000 NA
ATOM      3  C   UNL     1       3.374   4.179  17.000  0.00  0.00    +0.000 A 
ATOM      4  C   UNL     1       4.544   4.854  17.412  0.00  0.00    +0.000 A 
ATOM      5  C   UNL     1       5.351   5.910  16.942  0.00  0.00    +0.000 A 
ATOM      6  C   UNL     1       6.484   6.251  17.740  0.00  0.00    +0.000 A 
ATOM      7  C   UNL     1       6.733   5.533  18.931  0.00  0.00    +0.000 A 
ATOM      8  C   UNL     1       7.914   5.729  19.837  0.00  0.00    +0.000 C 
ATOM      9  N   UNL     1       5.934   4.528  19.390  0.00  0.00    +0.000 NA
ATOM     10  C   UNL     1       4.884   4.241  18.603  0.00  0.00    +0.000 A 
ENDROOT
BRANCH   5  11
ATOM     11  N   UNL     1       4.984   6.646  15.802  0.00  0.00    +0.000 N 
ATOM     12  H   UNL     1       5.036   7.655  15.886  0.00  0.00    +0.000 HD
ATOM     13  H   UNL     1       4.105   6.323  15.381  0.00  0.00    +0.000 HD
ENDBRANCH   5  11
BRANCH   6  14
ATOM     14  C   UNL     1       7.423   7.259  17.172  0.00  0.00    +0.000 C 
ATOM     15  O   UNL     1       8.181   6.996  16.247  0.00  0.00    +0.000 OA
BRANCH  14  16
ATOM     16  O   UNL     1       7.367   8.453  17.809  0.00  0.00    +0.000 OA
BRANCH  16  17
ATOM     17  C   UNL     1       8.596   8.897  18.414  0.00  0.00    +0.000 C 
ATOM     18  C   UNL     1       8.787  10.383  18.202  0.00  0.00    +0.000 C 
ENDBRANCH  16  17
ENDBRANCH  14  16
ENDBRANCH   6  14
BRANCH   1  19
ATOM     19  C   UNL     1       3.794   2.450  20.009  0.00  0.00    +0.000 C 
BRANCH  19  20
ATOM     20  C   UNL     1       2.377   2.446  20.583  0.00  0.00    +0.000 C 
BRANCH  20  22
ATOM     21  C   UNL     1       1.320   4.730  20.663  0.00  0.00    +0.000 C 
ATOM     22  C   UNL     1       2.115   3.688  21.436  0.00  0.00    +0.000 C 
ENDBRANCH  20  22
ENDBRANCH  19  20
ENDBRANCH   1  19
TORSDOF 7
ENDMDL
MODEL 9
REMARK VINA RESULT:      -6.4      2.584      4.257
REMARK  Name = 
REMARK  10 active torsions:
REMARK  status: ('A' for Active; 'I' for Inactive)
REMARK    1  A    between atoms: C_1  and  C_2
REMARK    2  A    between atoms: C_2  and  C_3
REMARK    3  A    between atoms: C_3  and  C_4
REMARK    4  A    between atoms: C_4  and  N_5
REMARK    5  A    between atoms: C_9  and  N_10
REMARK    6  A    between atoms: C_11  and  C_12
REMARK    7  A    between atoms: C_12  and  O_14
REMARK    8  A    between atoms: O_14  and  C_15
REMARK    9  A    between atoms: C_15  and  C_16
REMARK   10  A    between atoms: C_17  and  C_18
REMARK                            x       y       z     vdW  Elec       q    Type
REMARK                         _______ _______ _______ _____ _____    ______ ____
ROOT
ATOM      1  N   UNL     1       5.979   5.422  16.485  0.00  0.00    +0.000 N 
ATOM      2  N   UNL     1       5.703   6.678  16.061  0.00  0.00    +0.000 NA
ATOM      3  C   UNL     1       4.685   7.048  16.845  0.00  0.00    +0.000 A 
ATOM      4  C   UNL     1       4.300   6.048  17.765  0.00  0.00    +0.000 A 
ATOM      5  C   UNL     1       3.323   5.884  18.768  0.00  0.00    +0.000 A 
ATOM      6  C   UNL     1       3.328   4.638  19.465  0.00  0.00    +0.000 A 
ATOM      7  C   UNL     1       4.286   3.658  19.123  0.00  0.00    +0.000 A 
ATOM      8  C   UNL     1       4.458   2.331  19.805  0.00  0.00    +0.000 C 
ATOM      9  N   UNL     1       5.211   3.816  18.135  0.00  0.00    +0.000 NA
ATOM     10  C   UNL     1       5.171   5.005  17.512  0.00  0.00    +0.000 A 
ENDROOT
BRANCH   5  11
ATOM     11  N   UNL     1       2.339   6.864  18.984  0.00  0.00    +0.000 N 
ATOM     12  H   UNL     1       2.648   7.713  19.443  0.00  0.00    +0.000 HD
ATOM     13  H   UNL     1       1.474   6.481  19.387  0.00  0.00    +0.000 HD
ENDBRANCH   5  11
BRANCH   6  14
ATOM     14  C   UNL     1       2.402   4.518  20.625  0.00  0.00    +0.000 C 
ATOM     15  O   UNL     1       2.360   5.358  21.517  0.00  0.00    +0.000 OA
BRANCH  14  16
ATOM     16  O   UNL     1       1.662   3.384  20.598  0.00  0.00    +0.000 OA
BRANCH  16  17
ATOM     17  C   UNL     1       0.620   3.342  19.604  0.00  0.00    +0.000 C 
ATOM     18  C   UNL     1       0.807   2.152  18.688  0.00  0.00    +0.000 C 
ENDBRANCH  16  17
ENDBRANCH  14  16
ENDBRANCH   6  14
BRANCH   1  19
ATOM     19  C   UNL     1       6.986   4.633  15.798  0.00  0.00    +0.000 C 
BRANCH  19  20
ATOM     20  C   UNL     1       6.898   4.749  14.276  0.00  0.00    +0.000 C 
BRANCH  20  22
ATOM     21  C   UNL     1       6.138   3.375  12.307  0.00  0.00    +0.000 C 
ATOM     22  C   UNL     1       5.793   3.856  13.709  0.00  0.00    +0.000 C 
ENDBRANCH  20  22
ENDBRANCH  19  20
ENDBRANCH   1  19
TORSDOF 7
ENDMDL
