MODEL 1
REMARK VINA RESULT:      -7.6      0.000      0.000
REMARK  Name = 
REMARK  7 active torsions:
REMARK  status: ('A' for Active; 'I' for Inactive)
REMARK    1  A    between atoms: C_2  and  C_3
REMARK    2  A    between atoms: C_2  and  O_13
REMARK    3  A    between atoms: C_3  and  N_4
REMARK    4  A    between atoms: C_5  and  C_7
REMARK    5  A    between atoms: O_13  and  C_14
REMARK    6  A    between atoms: C_14  and  C_15
REMARK    7  A    between atoms: C_15  and  C_17
REMARK                            x       y       z     vdW  Elec       q    Type
REMARK                         _______ _______ _______ _____ _____    ______ ____
ROOT
ATOM      1  O   UNL     1       7.730   5.684  20.306  0.00  0.00    +0.000 OA
ATOM      2  C   UNL     1       7.639   5.660  19.083  0.00  0.00    +0.000 C 
ENDROOT
BRANCH   2   3
ATOM      3  C   UNL     1       7.706   6.903  18.207  0.00  0.00    +0.000 C 
BRANCH   3   4
ATOM      4  N   UNL     1       8.542   7.930  18.809  0.00  0.00    +0.000 N 
ATOM      5  C   UNL     1       8.446   9.240  18.392  0.00  0.00    +0.000 C 
ATOM      6  O   UNL     1       7.662   9.605  17.522  0.00  0.00    +0.000 OA
ATOM      7  H   UNL     1       9.188   7.654  19.534  0.00  0.00    +0.000 HD
BRANCH   5   8
ATOM      8  C   UNL     1       9.378  10.224  19.008  0.00  0.00    +0.000 A 
ATOM      9  C   UNL     1       9.160  10.579  20.347  0.00  0.00    +0.000 A 
ATOM     10  C   UNL     1       9.976  11.524  20.969  0.00  0.00    +0.000 A 
ATOM     11  C   UNL     1      11.023  12.111  20.260  0.00  0.00    +0.000 A 
ATOM     12  C   UNL     1      11.262  11.745  18.935  0.00  0.00    +0.000 A 
ATOM     13  C   UNL     1      10.445  10.799  18.307  0.00  0.00    +0.000 A 
ENDBRANCH   5   8
ENDBRANCH   3   4
ENDBRANCH   2   3
BRANCH   2  14
ATOM     14  O   UNL     1       7.341   4.556  18.346  0.00  0.00    +0.000 OA
BRANCH  14  15
ATOM     15  C   UNL     1       7.339   4.748  16.928  0.00  0.00    +0.000 C 
BRANCH  15  16
ATOM     16  C   UNL     1       6.063   4.203  16.295  0.00  0.00    +0.000 C 
ATOM     17  O   UNL     1       6.062   3.621  15.207  0.00  0.00    +0.000 OA
BRANCH  16  18
ATOM     18  C   UNL     1       4.760   4.444  16.981  0.00  0.00    +0.000 A 
ATOM     19  C   UNL     1       4.348   5.771  17.166  0.00  0.00    +0.000 A 
ATOM     20  C   UNL     1       3.137   6.056  17.799  0.00  0.00    +0.000 A 
ATOM     21  C   UNL     1       2.324   5.015  18.241  0.00  0.00    +0.000 A 
ATOM     22  C   UNL     1       2.722   3.690  18.053  0.00  0.00    +0.000 A 
ATOM     23  C   UNL     1       3.941   3.403  17.426  0.00  0.00    +0.000 A 
ENDBRANCH  16  18
ENDBRANCH  15  16
ENDBRANCH  14  15
ENDBRANCH   2  14
TORSDOF 7
ENDMDL
MODEL 2
REMARK VINA RESULT:      -7.6      3.845      6.367
REMARK  Name = 
REMARK  7 active torsions:
REMARK  status: ('A' for Active; 'I' for Inactive)
REMARK    1  A    between atoms: C_2  and  C_3
REMARK    2  A    between atoms: C_2  and  O_13
REMARK    3  A    between atoms: C_3  and  N_4
REMARK    4  A    between atoms: C_5  and  C_7
REMARK    5  A    between atoms: O_13  and  C_14
REMARK    6  A    between atoms: C_14  and  C_15
REMARK    7  A    between atoms: C_15  and  C_17
REMARK                            x       y       z     vdW  Elec       q    Type
REMARK                         _______ _______ _______ _____ _____    ______ ____
ROOT
ATOM      1  O   UNL     1       6.517   5.367  19.744  0.00  0.00    +0.000 OA
ATOM      2  C   UNL     1       5.999   5.643  18.667  0.00  0.00    +0.000 C 
ENDROOT
BRANCH   2   3
ATOM      3  C   UNL     1       6.600   6.619  17.666  0.00  0.00    +0.000 C 
BRANCH   3   4
ATOM      4  N   UNL     1       6.422   6.151  16.300  0.00  0.00    +0.000 N 
ATOM      5  C   UNL     1       7.143   5.075  15.832  0.00  0.00    +0.000 C 
ATOM      6  O   UNL     1       7.944   4.459  16.527  0.00  0.00    +0.000 OA
ATOM      7  H   UNL     1       5.760   6.637  15.713  0.00  0.00    +0.000 HD
BRANCH   5   8
ATOM      8  C   UNL     1       6.956   4.693  14.405  0.00  0.00    +0.000 A 
ATOM      9  C   UNL     1       5.924   3.794  14.101  0.00  0.00    +0.000 A 
ATOM     10  C   UNL     1       5.722   3.369  12.787  0.00  0.00    +0.000 A 
ATOM     11  C   UNL     1       6.542   3.851  11.769  0.00  0.00    +0.000 A 
ATOM     12  C   UNL     1       7.554   4.765  12.060  0.00  0.00    +0.000 A 
ATOM     13  C   UNL     1       7.762   5.192  13.375  0.00  0.00    +0.000 A 
ENDBRANCH   5   8
ENDBRANCH   3   4
ENDBRANCH   2   3
BRANCH   2  14
ATOM     14  O   UNL     1       4.767   5.227  18.267  0.00  0.00    +0.000 OA
BRANCH  14  15
ATOM     15  C   UNL     1       3.786   6.259  18.127  0.00  0.00    +0.000 C 
BRANCH  15  16
ATOM     16  C   UNL     1       2.788   6.239  19.280  0.00  0.00    +0.000 C 
ATOM     17  O   UNL     1       2.456   7.263  19.883  0.00  0.00    +0.000 OA
BRANCH  16  18
ATOM     18  C   UNL     1       2.249   4.927  19.740  0.00  0.00    +0.000 A 
ATOM     19  C   UNL     1       1.509   4.161  18.829  0.00  0.00    +0.000 A 
ATOM     20  C   UNL     1       0.982   2.924  19.204  0.00  0.00    +0.000 A 
ATOM     21  C   UNL     1       1.203   2.439  20.492  0.00  0.00    +0.000 A 
ATOM     22  C   UNL     1       1.947   3.190  21.403  0.00  0.00    +0.000 A 
ATOM     23  C   UNL     1       2.468   4.436  21.031  0.00  0.00    +0.000 A 
ENDBRANCH  16  18
ENDBRANCH  15  16
ENDBRANCH  14  15
ENDBRANCH   2  14
TORSDOF 7
ENDMDL
MODEL 3
REMARK VINA RESULT:      -7.5      3.667      6.314
REMARK  Name = 
REMARK  7 active torsions:
REMARK  status: ('A' for Active; 'I' for Inactive)
REMARK    1  A    between atoms: C_2  and  C_3
REMARK    2  A    between atoms: C_2  and  O_13
REMARK    3  A    between atoms: C_3  and  N_4
REMARK    4  A    between atoms: C_5  and  C_7
REMARK    5  A    between atoms: O_13  and  C_14
REMARK    6  A    between atoms: C_14  and  C_15
REMARK    7  A    between atoms: C_15  and  C_17
REMARK                            x       y       z     vdW  Elec       q    Type
REMARK                         _______ _______ _______ _____ _____    ______ ____
ROOT
ATOM      1  O   UNL     1       8.111   4.527  18.489  0.00  0.00    +0.000 OA
ATOM      2  C   UNL     1       7.296   5.443  18.449  0.00  0.00    +0.000 C 
ENDROOT
BRANCH   2   3
ATOM      3  C   UNL     1       7.303   6.535  17.389  0.00  0.00    +0.000 C 
BRANCH   3   4
ATOM      4  N   UNL     1       7.368   5.971  16.050  0.00  0.00    +0.000 N 
ATOM      5  C   UNL     1       6.269   5.346  15.503  0.00  0.00    +0.000 C 
ATOM      6  O   UNL     1       5.199   5.244  16.095  0.00  0.00    +0.000 OA
ATOM      7  H   UNL     1       8.235   6.052  15.541  0.00  0.00    +0.000 HD
BRANCH   5   8
ATOM      8  C   UNL     1       6.428   4.737  14.154  0.00  0.00    +0.000 A 
ATOM      9  C   UNL     1       7.460   5.221  13.338  0.00  0.00    +0.000 A 
ATOM     10  C   UNL     1       7.638   4.717  12.049  0.00  0.00    +0.000 A 
ATOM     11  C   UNL     1       6.792   3.717  11.573  0.00  0.00    +0.000 A 
ATOM     12  C   UNL     1       5.778   3.213  12.388  0.00  0.00    +0.000 A 
ATOM     13  C   UNL     1       5.596   3.716  13.680  0.00  0.00    +0.000 A 
ENDBRANCH   5   8
ENDBRANCH   3   4
ENDBRANCH   2   3
BRANCH   2  14
ATOM     14  O   UNL     1       6.357   5.691  19.403  0.00  0.00    +0.000 OA
BRANCH  14  15
ATOM     15  C   UNL     1       5.362   4.676  19.563  0.00  0.00    +0.000 C 
BRANCH  15  16
ATOM     16  C   UNL     1       3.962   5.223  19.304  0.00  0.00    +0.000 C 
ATOM     17  O   UNL     1       3.734   6.432  19.205  0.00  0.00    +0.000 OA
BRANCH  16  18
ATOM     18  C   UNL     1       2.819   4.269  19.239  0.00  0.00    +0.000 A 
ATOM     19  C   UNL     1       2.863   3.250  18.277  0.00  0.00    +0.000 A 
ATOM     20  C   UNL     1       1.822   2.326  18.173  0.00  0.00    +0.000 A 
ATOM     21  C   UNL     1       0.733   2.408  19.039  0.00  0.00    +0.000 A 
ATOM     22  C   UNL     1       0.685   3.413  20.007  0.00  0.00    +0.000 A 
ATOM     23  C   UNL     1       1.725   4.346  20.107  0.00  0.00    +0.000 A 
ENDBRANCH  16  18
ENDBRANCH  15  16
ENDBRANCH  14  15
ENDBRANCH   2  14
TORSDOF 7
ENDMDL
MODEL 4
REMARK VINA RESULT:      -7.4      3.773      6.102
REMARK  Name = 
REMARK  7 active torsions:
REMARK  status: ('A' for Active; 'I' for Inactive)
REMARK    1  A    between atoms: C_2  and  C_3
REMARK    2  A    between atoms: C_2  and  O_13
REMARK    3  A    between atoms: C_3  and  N_4
REMARK    4  A    between atoms: C_5  and  C_7
REMARK    5  A    between atoms: O_13  and  C_14
REMARK    6  A    between atoms: C_14  and  C_15
REMARK    7  A    between atoms: C_15  and  C_17
REMARK                            x       y       z     vdW  Elec       q    Type
REMARK                         _______ _______ _______ _____ _____    ______ ____
ROOT
ATOM      1  O   UNL     1       8.487   5.085  19.455  0.00  0.00    +0.000 OA
ATOM      2  C   UNL     1       7.443   5.190  18.819  0.00  0.00    +0.000 C 
ENDROOT
BRANCH   2   3
ATOM      3  C   UNL     1       7.264   6.130  17.636  0.00  0.00    +0.000 C 
BRANCH   3   4
ATOM      4  N   UNL     1       7.286   5.404  16.376  0.00  0.00    +0.000 N 
ATOM      5  C   UNL     1       6.450   5.773  15.344  0.00  0.00    +0.000 C 
ATOM      6  O   UNL     1       5.672   6.718  15.425  0.00  0.00    +0.000 OA
ATOM      7  H   UNL     1       7.926   4.629  16.284  0.00  0.00    +0.000 HD
BRANCH   5   8
ATOM      8  C   UNL     1       6.482   4.945  14.108  0.00  0.00    +0.000 A 
ATOM      9  C   UNL     1       5.432   4.039  13.902  0.00  0.00    +0.000 A 
ATOM     10  C   UNL     1       5.424   3.209  12.781  0.00  0.00    +0.000 A 
ATOM     11  C   UNL     1       6.460   3.289  11.852  0.00  0.00    +0.000 A 
ATOM     12  C   UNL     1       7.496   4.205  12.036  0.00  0.00    +0.000 A 
ATOM     13  C   UNL     1       7.508   5.038  13.160  0.00  0.00    +0.000 A 
ENDBRANCH   5   8
ENDBRANCH   3   4
ENDBRANCH   2   3
BRANCH   2  14
ATOM     14  O   UNL     1       6.268   4.588  19.149  0.00  0.00    +0.000 OA
BRANCH  14  15
ATOM     15  C   UNL     1       5.099   5.397  18.991  0.00  0.00    +0.000 C 
BRANCH  15  16
ATOM     16  C   UNL     1       4.014   4.662  18.210  0.00  0.00    +0.000 C 
ATOM     17  O   UNL     1       4.025   4.583  16.979  0.00  0.00    +0.000 OA
BRANCH  16  18
ATOM     18  C   UNL     1       2.863   4.078  18.957  0.00  0.00    +0.000 A 
ATOM     19  C   UNL     1       2.674   4.470  20.290  0.00  0.00    +0.000 A 
ATOM     20  C   UNL     1       1.611   3.958  21.037  0.00  0.00    +0.000 A 
ATOM     21  C   UNL     1       0.723   3.059  20.451  0.00  0.00    +0.000 A 
ATOM     22  C   UNL     1       0.897   2.671  19.122  0.00  0.00    +0.000 A 
ATOM     23  C   UNL     1       1.968   3.176  18.374  0.00  0.00    +0.000 A 
ENDBRANCH  16  18
ENDBRANCH  15  16
ENDBRANCH  14  15
ENDBRANCH   2  14
TORSDOF 7
ENDMDL
MODEL 5
REMARK VINA RESULT:      -7.4      4.311      7.045
REMARK  Name = 
REMARK  7 active torsions:
REMARK  status: ('A' for Active; 'I' for Inactive)
REMARK    1  A    between atoms: C_2  and  C_3
REMARK    2  A    between atoms: C_2  and  O_13
REMARK    3  A    between atoms: C_3  and  N_4
REMARK    4  A    between atoms: C_5  and  C_7
REMARK    5  A    between atoms: O_13  and  C_14
REMARK    6  A    between atoms: C_14  and  C_15
REMARK    7  A    between atoms: C_15  and  C_17
REMARK                            x       y       z     vdW  Elec       q    Type
REMARK                         _______ _______ _______ _____ _____    ______ ____
ROOT
ATOM      1  O   UNL     1       8.099   4.351  17.524  0.00  0.00    +0.000 OA
ATOM      2  C   UNL     1       7.195   5.179  17.515  0.00  0.00    +0.000 C 
ENDROOT
BRANCH   2   3
ATOM      3  C   UNL     1       6.747   5.928  16.268  0.00  0.00    +0.000 C 
BRANCH   3   4
ATOM      4  N   UNL     1       6.298   5.011  15.233  0.00  0.00    +0.000 N 
ATOM      5  C   UNL     1       7.004   4.889  14.055  0.00  0.00    +0.000 C 
ATOM      6  O   UNL     1       8.030   5.522  13.827  0.00  0.00    +0.000 OA
ATOM      7  H   UNL     1       5.461   4.473  15.403  0.00  0.00    +0.000 HD
BRANCH   5   8
ATOM      8  C   UNL     1       6.450   3.979  13.016  0.00  0.00    +0.000 A 
ATOM      9  C   UNL     1       5.056   3.910  12.884  0.00  0.00    +0.000 A 
ATOM     10  C   UNL     1       4.476   3.048  11.954  0.00  0.00    +0.000 A 
ATOM     11  C   UNL     1       5.286   2.258  11.140  0.00  0.00    +0.000 A 
ATOM     12  C   UNL     1       6.675   2.339  11.247  0.00  0.00    +0.000 A 
ATOM     13  C   UNL     1       7.261   3.201  12.180  0.00  0.00    +0.000 A 
ENDBRANCH   5   8
ENDBRANCH   3   4
ENDBRANCH   2   3
BRANCH   2  14
ATOM     14  O   UNL     1       6.552   5.642  18.622  0.00  0.00    +0.000 OA
BRANCH  14  15
ATOM     15  C   UNL     1       5.521   4.792  19.132  0.00  0.00    +0.000 C 
BRANCH  15  16
ATOM     16  C   UNL     1       4.136   5.339  18.803  0.00  0.00    +0.000 C 
ATOM     17  O   UNL     1       3.965   6.470  18.339  0.00  0.00    +0.000 OA
BRANCH  16  18
ATOM     18  C   UNL     1       2.940   4.504  19.118  0.00  0.00    +0.000 A 
ATOM     19  C   UNL     1       2.547   3.536  18.184  0.00  0.00    +0.000 A 
ATOM     20  C   UNL     1       1.438   2.724  18.427  0.00  0.00    +0.000 A 
ATOM     21  C   UNL     1       0.721   2.868  19.613  0.00  0.00    +0.000 A 
ATOM     22  C   UNL     1       1.110   3.823  20.553  0.00  0.00    +0.000 A 
ATOM     23  C   UNL     1       2.218   4.644  20.306  0.00  0.00    +0.000 A 
ENDBRANCH  16  18
ENDBRANCH  15  16
ENDBRANCH  14  15
ENDBRANCH   2  14
TORSDOF 7
ENDMDL
MODEL 6
REMARK VINA RESULT:      -7.3      3.837      6.295
REMARK  Name = 
REMARK  7 active torsions:
REMARK  status: ('A' for Active; 'I' for Inactive)
REMARK    1  A    between atoms: C_2  and  C_3
REMARK    2  A    between atoms: C_2  and  O_13
REMARK    3  A    between atoms: C_3  and  N_4
REMARK    4  A    between atoms: C_5  and  C_7
REMARK    5  A    between atoms: O_13  and  C_14
REMARK    6  A    between atoms: C_14  and  C_15
REMARK    7  A    between atoms: C_15  and  C_17
REMARK                            x       y       z     vdW  Elec       q    Type
REMARK                         _______ _______ _______ _____ _____    ______ ____
ROOT
ATOM      1  O   UNL     1       6.843   4.938  19.931  0.00  0.00    +0.000 OA
ATOM      2  C   UNL     1       6.443   5.308  18.832  0.00  0.00    +0.000 C 
ENDROOT
BRANCH   2   3
ATOM      3  C   UNL     1       7.329   5.984  17.795  0.00  0.00    +0.000 C 
BRANCH   3   4
ATOM      4  N   UNL     1       7.299   5.269  16.529  0.00  0.00    +0.000 N 
ATOM      5  C   UNL     1       6.497   5.708  15.498  0.00  0.00    +0.000 C 
ATOM      6  O   UNL     1       5.791   6.708  15.585  0.00  0.00    +0.000 OA
ATOM      7  H   UNL     1       7.879   4.449  16.431  0.00  0.00    +0.000 HD
BRANCH   5   8
ATOM      8  C   UNL     1       6.470   4.890  14.255  0.00  0.00    +0.000 A 
ATOM      9  C   UNL     1       7.500   5.085  13.324  0.00  0.00    +0.000 A 
ATOM     10  C   UNL     1       7.510   4.375  12.123  0.00  0.00    +0.000 A 
ATOM     11  C   UNL     1       6.497   3.458  11.851  0.00  0.00    +0.000 A 
ATOM     12  C   UNL     1       5.482   3.240  12.783  0.00  0.00    +0.000 A 
ATOM     13  C   UNL     1       5.467   3.951  13.987  0.00  0.00    +0.000 A 
ENDBRANCH   5   8
ENDBRANCH   3   4
ENDBRANCH   2   3
BRANCH   2  14
ATOM     14  O   UNL     1       5.144   5.290  18.430  0.00  0.00    +0.000 OA
BRANCH  14  15
ATOM     15  C   UNL     1       4.362   6.419  18.830  0.00  0.00    +0.000 C 
BRANCH  15  16
ATOM     16  C   UNL     1       2.896   6.245  18.447  0.00  0.00    +0.000 C 
ATOM     17  O   UNL     1       2.265   7.113  17.837  0.00  0.00    +0.000 OA
BRANCH  16  18
ATOM     18  C   UNL     1       2.180   5.013  18.886  0.00  0.00    +0.000 A 
ATOM     19  C   UNL     1       1.859   4.885  20.245  0.00  0.00    +0.000 A 
ATOM     20  C   UNL     1       1.187   3.754  20.712  0.00  0.00    +0.000 A 
ATOM     21  C   UNL     1       0.820   2.748  19.820  0.00  0.00    +0.000 A 
ATOM     22  C   UNL     1       1.127   2.871  18.465  0.00  0.00    +0.000 A 
ATOM     23  C   UNL     1       1.810   4.001  17.995  0.00  0.00    +0.000 A 
ENDBRANCH  16  18
ENDBRANCH  15  16
ENDBRANCH  14  15
ENDBRANCH   2  14
TORSDOF 7
ENDMDL
MODEL 7
REMARK VINA RESULT:      -7.3      3.875      7.256
REMARK  Name = 
REMARK  7 active torsions:
REMARK  status: ('A' for Active; 'I' for Inactive)
REMARK    1  A    between atoms: C_2  and  C_3
REMARK    2  A    between atoms: C_2  and  O_13
REMARK    3  A    between atoms: C_3  and  N_4
REMARK    4  A    between atoms: C_5  and  C_7
REMARK    5  A    between atoms: O_13  and  C_14
REMARK    6  A    between atoms: C_14  and  C_15
REMARK    7  A    between atoms: C_15  and  C_17
REMARK                            x       y       z     vdW  Elec       q    Type
REMARK                         _______ _______ _______ _____ _____    ______ ____
ROOT
ATOM      1  O   UNL     1       7.344   7.736  17.001  0.00  0.00    +0.000 OA
ATOM      2  C   UNL     1       6.697   6.695  17.035  0.00  0.00    +0.000 C 
ENDROOT
BRANCH   2   3
ATOM      3  C   UNL     1       6.507   5.859  18.292  0.00  0.00    +0.000 C 
BRANCH   3   4
ATOM      4  N   UNL     1       5.105   5.530  18.501  0.00  0.00    +0.000 N 
ATOM      5  C   UNL     1       4.751   4.355  19.128  0.00  0.00    +0.000 C 
ATOM      6  O   UNL     1       5.576   3.550  19.546  0.00  0.00    +0.000 OA
ATOM      7  H   UNL     1       4.409   6.183  18.174  0.00  0.00    +0.000 HD
BRANCH   5   8
ATOM      8  C   UNL     1       3.298   4.055  19.250  0.00  0.00    +0.000 A 
ATOM      9  C   UNL     1       2.704   4.205  20.511  0.00  0.00    +0.000 A 
ATOM     10  C   UNL     1       1.355   3.904  20.697  0.00  0.00    +0.000 A 
ATOM     11  C   UNL     1       0.588   3.463  19.620  0.00  0.00    +0.000 A 
ATOM     12  C   UNL     1       1.165   3.335  18.356  0.00  0.00    +0.000 A 
ATOM     13  C   UNL     1       2.518   3.634  18.166  0.00  0.00    +0.000 A 
ENDBRANCH   5   8
ENDBRANCH   3   4
ENDBRANCH   2   3
BRANCH   2  14
ATOM     14  O   UNL     1       6.169   6.070  15.947  0.00  0.00    +0.000 OA
BRANCH  14  15
ATOM     15  C   UNL     1       6.829   4.864  15.553  0.00  0.00    +0.000 C 
BRANCH  15  16
ATOM     16  C   UNL     1       7.258   4.916  14.090  0.00  0.00    +0.000 C 
ATOM     17  O   UNL     1       8.119   5.701  13.682  0.00  0.00    +0.000 OA
BRANCH  16  18
ATOM     18  C   UNL     1       6.563   4.038  13.105  0.00  0.00    +0.000 A 
ATOM     19  C   UNL     1       5.162   4.073  13.064  0.00  0.00    +0.000 A 
ATOM     20  C   UNL     1       4.459   3.274  12.160  0.00  0.00    +0.000 A 
ATOM     21  C   UNL     1       5.154   2.443  11.283  0.00  0.00    +0.000 A 
ATOM     22  C   UNL     1       6.548   2.409  11.311  0.00  0.00    +0.000 A 
ATOM     23  C   UNL     1       7.255   3.203  12.224  0.00  0.00    +0.000 A 
ENDBRANCH  16  18
ENDBRANCH  15  16
ENDBRANCH  14  15
ENDBRANCH   2  14
TORSDOF 7
ENDMDL
MODEL 8
REMARK VINA RESULT:      -7.3      3.590      5.910
REMARK  Name = 
REMARK  7 active torsions:
REMARK  status: ('A' for Active; 'I' for Inactive)
REMARK    1  A    between atoms: C_2  and  C_3
REMARK    2  A    between atoms: C_2  and  O_13
REMARK    3  A    between atoms: C_3  and  N_4
REMARK    4  A    between atoms: C_5  and  C_7
REMARK    5  A    between atoms: O_13  and  C_14
REMARK    6  A    between atoms: C_14  and  C_15
REMARK    7  A    between atoms: C_15  and  C_17
REMARK                            x       y       z     vdW  Elec       q    Type
REMARK                         _______ _______ _______ _____ _____    ______ ____
ROOT
ATOM      1  O   UNL     1       1.613   3.108  17.455  0.00  0.00    +0.000 OA
ATOM      2  C   UNL     1       2.234   2.770  18.457  0.00  0.00    +0.000 C 
ENDROOT
BRANCH   2   3
ATOM      3  C   UNL     1       3.696   2.349  18.443  0.00  0.00    +0.000 C 
BRANCH   3   4
ATOM      4  N   UNL     1       4.578   3.494  18.611  0.00  0.00    +0.000 N 
ATOM      5  C   UNL     1       5.167   4.087  17.516  0.00  0.00    +0.000 C 
ATOM      6  O   UNL     1       4.976   3.701  16.367  0.00  0.00    +0.000 OA
ATOM      7  H   UNL     1       4.742   3.835  19.547  0.00  0.00    +0.000 HD
BRANCH   5   8
ATOM      8  C   UNL     1       6.107   5.213  17.770  0.00  0.00    +0.000 A 
ATOM      9  C   UNL     1       5.908   6.403  17.057  0.00  0.00    +0.000 A 
ATOM     10  C   UNL     1       6.777   7.481  17.224  0.00  0.00    +0.000 A 
ATOM     11  C   UNL     1       7.844   7.381  18.115  0.00  0.00    +0.000 A 
ATOM     12  C   UNL     1       8.034   6.209  18.848  0.00  0.00    +0.000 A 
ATOM     13  C   UNL     1       7.166   5.125  18.682  0.00  0.00    +0.000 A 
ENDBRANCH   5   8
ENDBRANCH   3   4
ENDBRANCH   2   3
BRANCH   2  14
ATOM     14  O   UNL     1       1.687   2.599  19.691  0.00  0.00    +0.000 OA
BRANCH  14  15
ATOM     15  C   UNL     1       0.966   3.724  20.203  0.00  0.00    +0.000 C 
BRANCH  15  16
ATOM     16  C   UNL     1       1.912   4.788  20.750  0.00  0.00    +0.000 C 
ATOM     17  O   UNL     1       2.625   4.592  21.738  0.00  0.00    +0.000 OA
BRANCH  16  18
ATOM     18  C   UNL     1       1.923   6.136  20.112  0.00  0.00    +0.000 A 
ATOM     19  C   UNL     1       1.383   7.211  20.831  0.00  0.00    +0.000 A 
ATOM     20  C   UNL     1       1.369   8.495  20.285  0.00  0.00    +0.000 A 
ATOM     21  C   UNL     1       1.907   8.715  19.018  0.00  0.00    +0.000 A 
ATOM     22  C   UNL     1       2.456   7.653  18.299  0.00  0.00    +0.000 A 
ATOM     23  C   UNL     1       2.462   6.361  18.842  0.00  0.00    +0.000 A 
ENDBRANCH  16  18
ENDBRANCH  15  16
ENDBRANCH  14  15
ENDBRANCH   2  14
TORSDOF 7
ENDMDL
MODEL 9
REMARK VINA RESULT:      -7.2      1.400      1.755
REMARK  Name = 
REMARK  7 active torsions:
REMARK  status: ('A' for Active; 'I' for Inactive)
REMARK    1  A    between atoms: C_2  and  C_3
REMARK    2  A    between atoms: C_2  and  O_13
REMARK    3  A    between atoms: C_3  and  N_4
REMARK    4  A    between atoms: C_5  and  C_7
REMARK    5  A    between atoms: O_13  and  C_14
REMARK    6  A    between atoms: C_14  and  C_15
REMARK    7  A    between atoms: C_15  and  C_17
REMARK                            x       y       z     vdW  Elec       q    Type
REMARK                         _______ _______ _______ _____ _____    ______ ____
ROOT
ATOM      1  O   UNL     1       8.153   5.435  20.671  0.00  0.00    +0.000 OA
ATOM      2  C   UNL     1       7.536   5.522  19.615  0.00  0.00    +0.000 C 
ENDROOT
BRANCH   2   3
ATOM      3  C   UNL     1       8.007   6.349  18.427  0.00  0.00    +0.000 C 
BRANCH   3   4
ATOM      4  N   UNL     1       8.495   7.653  18.851  0.00  0.00    +0.000 N 
ATOM      5  C   UNL     1       8.201   8.780  18.115  0.00  0.00    +0.000 C 
ATOM      6  O   UNL     1       7.518   8.750  17.097  0.00  0.00    +0.000 OA
ATOM      7  H   UNL     1       9.052   7.703  19.691  0.00  0.00    +0.000 HD
BRANCH   5   8
ATOM      8  C   UNL     1       8.788  10.069  18.574  0.00  0.00    +0.000 A 
ATOM      9  C   UNL     1       9.379  10.101  19.844  0.00  0.00    +0.000 A 
ATOM     10  C   UNL     1       9.913  11.289  20.345  0.00  0.00    +0.000 A 
ATOM     11  C   UNL     1       9.871  12.448  19.574  0.00  0.00    +0.000 A 
ATOM     12  C   UNL     1       9.307  12.419  18.298  0.00  0.00    +0.000 A 
ATOM     13  C   UNL     1       8.769  11.231  17.793  0.00  0.00    +0.000 A 
ENDBRANCH   5   8
ENDBRANCH   3   4
ENDBRANCH   2   3
BRANCH   2  14
ATOM     14  O   UNL     1       6.296   5.008  19.393  0.00  0.00    +0.000 OA
BRANCH  14  15
ATOM     15  C   UNL     1       6.049   4.560  18.057  0.00  0.00    +0.000 C 
BRANCH  15  16
ATOM     16  C   UNL     1       4.635   4.912  17.605  0.00  0.00    +0.000 C 
ATOM     17  O   UNL     1       4.377   5.952  16.991  0.00  0.00    +0.000 OA
BRANCH  16  18
ATOM     18  C   UNL     1       3.514   4.003  17.979  0.00  0.00    +0.000 A 
ATOM     19  C   UNL     1       2.204   4.488  17.863  0.00  0.00    +0.000 A 
ATOM     20  C   UNL     1       1.115   3.680  18.197  0.00  0.00    +0.000 A 
ATOM     21  C   UNL     1       1.330   2.376  18.638  0.00  0.00    +0.000 A 
ATOM     22  C   UNL     1       2.630   1.881  18.748  0.00  0.00    +0.000 A 
ATOM     23  C   UNL     1       3.724   2.694  18.422  0.00  0.00    +0.000 A 
ENDBRANCH  16  18
ENDBRANCH  15  16
ENDBRANCH  14  15
ENDBRANCH   2  14
TORSDOF 7
ENDMDL
