MODEL 1
REMARK VINA RESULT:      -8.3      0.000      0.000
REMARK  Name = 
REMARK  7 active torsions:
REMARK  status: ('A' for Active; 'I' for Inactive)
REMARK    1  A    between atoms: C_1  and  C_2
REMARK    2  A    between atoms: C_2  and  N_3
REMARK    3  A    between atoms: C_2  and  C_21
REMARK    4  A    between atoms: C_4  and  C_6
REMARK    5  A    between atoms: C_9  and  C_10
REMARK    6  A    between atoms: C_15  and  O_16
REMARK    7  A    between atoms: O_16  and  C_17
REMARK                            x       y       z     vdW  Elec       q    Type
REMARK                         _______ _______ _______ _____ _____    ______ ____
ROOT
ATOM      1  C   UNL     1       2.431   7.512  18.565  0.00  0.00    +0.000 A 
ATOM      2  C   UNL     1       3.211   6.905  17.575  0.00  0.00    +0.000 A 
ATOM      3  C   UNL     1       3.643   5.585  17.729  0.00  0.00    +0.000 A 
ATOM      4  C   UNL     1       3.306   4.842  18.872  0.00  0.00    +0.000 A 
ATOM      5  C   UNL     1       2.514   5.454  19.870  0.00  0.00    +0.000 A 
ATOM      6  C   UNL     1       2.061   6.772  19.696  0.00  0.00    +0.000 A 
ENDROOT
BRANCH   4   7
ATOM      7  C   UNL     1       3.790   3.468  19.002  0.00  0.00    +0.000 A 
ATOM      8  C   UNL     1       4.668   2.868  19.939  0.00  0.00    +0.000 A 
ATOM      9  N   UNL     1       4.885   1.572  19.696  0.00  0.00    +0.000 NA
ATOM     10  N   UNL     1       4.137   1.328  18.610  0.00  0.00    +0.000 N 
ATOM     11  C   UNL     1       3.466   2.428  18.155  0.00  0.00    +0.000 A 
ATOM     12  H   UNL     1       4.135   0.388  18.229  0.00  0.00    +0.000 HD
ENDBRANCH   4   7
BRANCH   1  14
ATOM     13  N   UNL     1       1.079   9.430  19.267  0.00  0.00    +0.000 N 
ATOM     14  C   UNL     1       1.975   8.913  18.350  0.00  0.00    +0.000 C 
ATOM     15  O   UNL     1       2.415   9.558  17.400  0.00  0.00    +0.000 OA
ATOM     16  H   UNL     1       0.886   8.927  20.121  0.00  0.00    +0.000 HD
BRANCH  13  18
ATOM     17  C   UNL     1       0.658  11.544  20.489  0.00  0.00    +0.000 C 
ATOM     18  C   UNL     1       0.597  10.797  19.152  0.00  0.00    +0.000 C 
BRANCH  18  19
ATOM     19  C   UNL     1      -0.814  10.847  18.588  0.00  0.00    +0.000 A 
ATOM     20  C   UNL     1      -1.742  11.760  19.118  0.00  0.00    +0.000 A 
ATOM     21  C   UNL     1      -3.084  11.711  18.736  0.00  0.00    +0.000 A 
ATOM     22  C   UNL     1      -3.499  10.760  17.813  0.00  0.00    +0.000 A 
ATOM     23  F   UNL     1      -4.794  10.677  17.485  0.00  0.00    +0.000 F 
ATOM     24  C   UNL     1      -2.591   9.882  17.235  0.00  0.00    +0.000 A 
ATOM     25  C   UNL     1      -1.248   9.933  17.611  0.00  0.00    +0.000 A 
ENDBRANCH  18  19
ENDBRANCH  13  18
ENDBRANCH   1  14
BRANCH   5  26
ATOM     26  O   UNL     1       2.199   4.694  20.967  0.00  0.00    +0.000 OA
BRANCH  26  27
ATOM     27  C   UNL     1       1.070   3.836  20.894  0.00  0.00    +0.000 C 
ATOM     28  F   UNL     1       0.541   3.848  19.647  0.00  0.00    +0.000 F 
ATOM     29  F   UNL     1       1.455   2.569  21.175  0.00  0.00    +0.000 F 
ENDBRANCH  26  27
ENDBRANCH   5  26
TORSDOF 6
ENDMDL
MODEL 2
REMARK VINA RESULT:      -8.3      3.631      8.421
REMARK  Name = 
REMARK  7 active torsions:
REMARK  status: ('A' for Active; 'I' for Inactive)
REMARK    1  A    between atoms: C_1  and  C_2
REMARK    2  A    between atoms: C_2  and  N_3
REMARK    3  A    between atoms: C_2  and  C_21
REMARK    4  A    between atoms: C_4  and  C_6
REMARK    5  A    between atoms: C_9  and  C_10
REMARK    6  A    between atoms: C_15  and  O_16
REMARK    7  A    between atoms: O_16  and  C_17
REMARK                            x       y       z     vdW  Elec       q    Type
REMARK                         _______ _______ _______ _____ _____    ______ ____
ROOT
ATOM      1  C   UNL     1       2.338   7.539  19.141  0.00  0.00    +0.000 A 
ATOM      2  C   UNL     1       2.172   8.163  17.899  0.00  0.00    +0.000 A 
ATOM      3  C   UNL     1       1.410   9.329  17.792  0.00  0.00    +0.000 A 
ATOM      4  C   UNL     1       0.796   9.899  18.919  0.00  0.00    +0.000 A 
ATOM      5  C   UNL     1       0.968   9.272  20.174  0.00  0.00    +0.000 A 
ATOM      6  C   UNL     1       1.757   8.115  20.279  0.00  0.00    +0.000 A 
ENDROOT
BRANCH   4   7
ATOM      7  C   UNL     1      -0.006  11.111  18.763  0.00  0.00    +0.000 A 
ATOM      8  C   UNL     1       0.331  12.481  18.885  0.00  0.00    +0.000 A 
ATOM      9  N   UNL     1      -0.710  13.296  18.690  0.00  0.00    +0.000 NA
ATOM     10  N   UNL     1      -1.720  12.454  18.428  0.00  0.00    +0.000 N 
ATOM     11  C   UNL     1      -1.354  11.138  18.463  0.00  0.00    +0.000 A 
ATOM     12  H   UNL     1      -2.636  12.847  18.239  0.00  0.00    +0.000 HD
ENDBRANCH   4   7
BRANCH   1  14
ATOM     13  N   UNL     1       4.263   6.242  18.361  0.00  0.00    +0.000 N 
ATOM     14  C   UNL     1       3.176   6.311  19.212  0.00  0.00    +0.000 C 
ATOM     15  O   UNL     1       2.896   5.428  20.020  0.00  0.00    +0.000 OA
ATOM     16  H   UNL     1       4.552   7.061  17.846  0.00  0.00    +0.000 HD
BRANCH  13  18
ATOM     17  C   UNL     1       6.330   5.287  19.338  0.00  0.00    +0.000 C 
ATOM     18  C   UNL     1       5.152   5.092  18.376  0.00  0.00    +0.000 C 
BRANCH  18  19
ATOM     19  C   UNL     1       5.664   4.762  16.983  0.00  0.00    +0.000 A 
ATOM     20  C   UNL     1       6.984   5.092  16.630  0.00  0.00    +0.000 A 
ATOM     21  C   UNL     1       7.422   4.953  15.312  0.00  0.00    +0.000 A 
ATOM     22  C   UNL     1       6.549   4.470  14.347  0.00  0.00    +0.000 A 
ATOM     23  F   UNL     1       6.952   4.385  13.073  0.00  0.00    +0.000 F 
ATOM     24  C   UNL     1       5.257   4.085  14.681  0.00  0.00    +0.000 A 
ATOM     25  C   UNL     1       4.818   4.218  15.999  0.00  0.00    +0.000 A 
ENDBRANCH  18  19
ENDBRANCH  13  18
ENDBRANCH   1  14
BRANCH   5  26
ATOM     26  O   UNL     1       0.361   9.862  21.252  0.00  0.00    +0.000 OA
BRANCH  26  27
ATOM     27  C   UNL     1       0.006   9.047  22.360  0.00  0.00    +0.000 C 
ATOM     28  F   UNL     1      -0.489   9.802  23.369  0.00  0.00    +0.000 F 
ATOM     29  F   UNL     1      -0.956   8.173  21.980  0.00  0.00    +0.000 F 
ENDBRANCH  26  27
ENDBRANCH   5  26
TORSDOF 6
ENDMDL
MODEL 3
REMARK VINA RESULT:      -8.1      2.187      2.821
REMARK  Name = 
REMARK  7 active torsions:
REMARK  status: ('A' for Active; 'I' for Inactive)
REMARK    1  A    between atoms: C_1  and  C_2
REMARK    2  A    between atoms: C_2  and  N_3
REMARK    3  A    between atoms: C_2  and  C_21
REMARK    4  A    between atoms: C_4  and  C_6
REMARK    5  A    between atoms: C_9  and  C_10
REMARK    6  A    between atoms: C_15  and  O_16
REMARK    7  A    between atoms: O_16  and  C_17
REMARK                            x       y       z     vdW  Elec       q    Type
REMARK                         _______ _______ _______ _____ _____    ______ ____
ROOT
ATOM      1  C   UNL     1       2.319   7.911  18.467  0.00  0.00    +0.000 A 
ATOM      2  C   UNL     1       1.919   7.130  19.556  0.00  0.00    +0.000 A 
ATOM      3  C   UNL     1       2.391   5.823  19.698  0.00  0.00    +0.000 A 
ATOM      4  C   UNL     1       3.273   5.266  18.758  0.00  0.00    +0.000 A 
ATOM      5  C   UNL     1       3.681   6.056  17.659  0.00  0.00    +0.000 A 
ATOM      6  C   UNL     1       3.223   7.378  17.537  0.00  0.00    +0.000 A 
ENDROOT
BRANCH   4   7
ATOM      7  C   UNL     1       3.733   3.889  18.934  0.00  0.00    +0.000 A 
ATOM      8  C   UNL     1       3.181   2.654  18.512  0.00  0.00    +0.000 A 
ATOM      9  N   UNL     1       3.902   1.598  18.902  0.00  0.00    +0.000 NA
ATOM     10  N   UNL     1       4.928   2.149  19.565  0.00  0.00    +0.000 N 
ATOM     11  C   UNL     1       4.874   3.513  19.615  0.00  0.00    +0.000 A 
ATOM     12  H   UNL     1       5.630   1.533  19.963  0.00  0.00    +0.000 HD
ENDBRANCH   4   7
BRANCH   1  14
ATOM     13  N   UNL     1       0.768   9.654  19.208  0.00  0.00    +0.000 N 
ATOM     14  C   UNL     1       1.807   9.305  18.366  0.00  0.00    +0.000 C 
ATOM     15  O   UNL     1       2.325  10.089  17.574  0.00  0.00    +0.000 OA
ATOM     16  H   UNL     1       0.497   9.035  19.958  0.00  0.00    +0.000 HD
BRANCH  13  18
ATOM     17  C   UNL     1       0.220  11.634  20.595  0.00  0.00    +0.000 C 
ATOM     18  C   UNL     1       0.219  11.001  19.198  0.00  0.00    +0.000 C 
BRANCH  18  19
ATOM     19  C   UNL     1      -1.184  11.028  18.613  0.00  0.00    +0.000 A 
ATOM     20  C   UNL     1      -2.144  11.905  19.148  0.00  0.00    +0.000 A 
ATOM     21  C   UNL     1      -3.478  11.831  18.743  0.00  0.00    +0.000 A 
ATOM     22  C   UNL     1      -3.853  10.892  17.791  0.00  0.00    +0.000 A 
ATOM     23  F   UNL     1      -5.140  10.785  17.439  0.00  0.00    +0.000 F 
ATOM     24  C   UNL     1      -2.913  10.052  17.207  0.00  0.00    +0.000 A 
ATOM     25  C   UNL     1      -1.579  10.128  17.607  0.00  0.00    +0.000 A 
ENDBRANCH  18  19
ENDBRANCH  13  18
ENDBRANCH   1  14
BRANCH   5  26
ATOM     26  O   UNL     1       4.549   5.481  16.767  0.00  0.00    +0.000 OA
BRANCH  26  27
ATOM     27  C   UNL     1       5.838   6.054  16.612  0.00  0.00    +0.000 C 
ATOM     28  F   UNL     1       6.406   6.287  17.819  0.00  0.00    +0.000 F 
ATOM     29  F   UNL     1       6.631   5.189  15.936  0.00  0.00    +0.000 F 
ENDBRANCH  26  27
ENDBRANCH   5  26
TORSDOF 6
ENDMDL
MODEL 4
REMARK VINA RESULT:      -8.1      2.439      3.104
REMARK  Name = 
REMARK  7 active torsions:
REMARK  status: ('A' for Active; 'I' for Inactive)
REMARK    1  A    between atoms: C_1  and  C_2
REMARK    2  A    between atoms: C_2  and  N_3
REMARK    3  A    between atoms: C_2  and  C_21
REMARK    4  A    between atoms: C_4  and  C_6
REMARK    5  A    between atoms: C_9  and  C_10
REMARK    6  A    between atoms: C_15  and  O_16
REMARK    7  A    between atoms: O_16  and  C_17
REMARK                            x       y       z     vdW  Elec       q    Type
REMARK                         _______ _______ _______ _____ _____    ______ ____
ROOT
ATOM      1  C   UNL     1       2.190   8.175  18.542  0.00  0.00    +0.000 A 
ATOM      2  C   UNL     1       1.927   7.476  19.726  0.00  0.00    +0.000 A 
ATOM      3  C   UNL     1       2.466   6.203  19.928  0.00  0.00    +0.000 A 
ATOM      4  C   UNL     1       3.279   5.599  18.956  0.00  0.00    +0.000 A 
ATOM      5  C   UNL     1       3.549   6.306  17.762  0.00  0.00    +0.000 A 
ATOM      6  C   UNL     1       3.025   7.596  17.577  0.00  0.00    +0.000 A 
ENDROOT
BRANCH   4   7
ATOM      7  C   UNL     1       3.812   4.259  19.199  0.00  0.00    +0.000 A 
ATOM      8  C   UNL     1       3.167   3.011  19.376  0.00  0.00    +0.000 A 
ATOM      9  N   UNL     1       4.020   2.009  19.607  0.00  0.00    +0.000 NA
ATOM     10  N   UNL     1       5.220   2.605  19.566  0.00  0.00    +0.000 N 
ATOM     11  C   UNL     1       5.151   3.948  19.328  0.00  0.00    +0.000 A 
ATOM     12  H   UNL     1       6.046   2.034  19.713  0.00  0.00    +0.000 HD
ENDBRANCH   4   7
BRANCH   1  14
ATOM     13  N   UNL     1       0.491   9.837  19.129  0.00  0.00    +0.000 N 
ATOM     14  C   UNL     1       1.612   9.536  18.378  0.00  0.00    +0.000 C 
ATOM     15  O   UNL     1       2.148  10.338  17.616  0.00  0.00    +0.000 OA
ATOM     16  H   UNL     1       0.195   9.214  19.866  0.00  0.00    +0.000 HD
BRANCH  13  18
ATOM     17  C   UNL     1       0.015  11.933  20.363  0.00  0.00    +0.000 C 
ATOM     18  C   UNL     1      -0.129  11.150  19.053  0.00  0.00    +0.000 C 
BRANCH  18  19
ATOM     19  C   UNL     1      -1.595  11.055  18.659  0.00  0.00    +0.000 A 
ATOM     20  C   UNL     1      -1.990  10.147  17.662  0.00  0.00    +0.000 A 
ATOM     21  C   UNL     1      -3.295  10.160  17.167  0.00  0.00    +0.000 A 
ATOM     22  C   UNL     1      -4.213  11.069  17.678  0.00  0.00    +0.000 A 
ATOM     23  F   UNL     1      -5.450  11.117  17.169  0.00  0.00    +0.000 F 
ATOM     24  C   UNL     1      -3.862  11.939  18.702  0.00  0.00    +0.000 A 
ATOM     25  C   UNL     1      -2.559  11.924  19.202  0.00  0.00    +0.000 A 
ENDBRANCH  18  19
ENDBRANCH  13  18
ENDBRANCH   1  14
BRANCH   5  26
ATOM     26  O   UNL     1       4.353   5.687  16.841  0.00  0.00    +0.000 OA
BRANCH  26  27
ATOM     27  C   UNL     1       5.179   6.493  16.013  0.00  0.00    +0.000 C 
ATOM     28  F   UNL     1       6.350   6.772  16.634  0.00  0.00    +0.000 F 
ATOM     29  F   UNL     1       5.460   5.820  14.873  0.00  0.00    +0.000 F 
ENDBRANCH  26  27
ENDBRANCH   5  26
TORSDOF 6
ENDMDL
MODEL 5
REMARK VINA RESULT:      -8.1      2.212      2.944
REMARK  Name = 
REMARK  7 active torsions:
REMARK  status: ('A' for Active; 'I' for Inactive)
REMARK    1  A    between atoms: C_1  and  C_2
REMARK    2  A    between atoms: C_2  and  N_3
REMARK    3  A    between atoms: C_2  and  C_21
REMARK    4  A    between atoms: C_4  and  C_6
REMARK    5  A    between atoms: C_9  and  C_10
REMARK    6  A    between atoms: C_15  and  O_16
REMARK    7  A    between atoms: O_16  and  C_17
REMARK                            x       y       z     vdW  Elec       q    Type
REMARK                         _______ _______ _______ _____ _____    ______ ____
ROOT
ATOM      1  C   UNL     1       2.455   7.573  18.315  0.00  0.00    +0.000 A 
ATOM      2  C   UNL     1       1.843   6.719  19.238  0.00  0.00    +0.000 A 
ATOM      3  C   UNL     1       2.281   5.399  19.376  0.00  0.00    +0.000 A 
ATOM      4  C   UNL     1       3.340   4.903  18.597  0.00  0.00    +0.000 A 
ATOM      5  C   UNL     1       3.961   5.768  17.668  0.00  0.00    +0.000 A 
ATOM      6  C   UNL     1       3.532   7.100  17.553  0.00  0.00    +0.000 A 
ENDROOT
BRANCH   4   7
ATOM      7  C   UNL     1       3.760   3.512  18.761  0.00  0.00    +0.000 A 
ATOM      8  C   UNL     1       3.333   2.322  18.121  0.00  0.00    +0.000 A 
ATOM      9  N   UNL     1       3.953   1.231  18.579  0.00  0.00    +0.000 NA
ATOM     10  N   UNL     1       4.792   1.714  19.507  0.00  0.00    +0.000 N 
ATOM     11  C   UNL     1       4.714   3.070  19.656  0.00  0.00    +0.000 A 
ATOM     12  H   UNL     1       5.387   1.060  20.004  0.00  0.00    +0.000 HD
ENDBRANCH   4   7
BRANCH   1  14
ATOM     13  N   UNL     1       1.027   9.381  19.143  0.00  0.00    +0.000 N 
ATOM     14  C   UNL     1       1.969   8.976  18.216  0.00  0.00    +0.000 C 
ATOM     15  O   UNL     1       2.424   9.720  17.349  0.00  0.00    +0.000 OA
ATOM     16  H   UNL     1       0.817   8.795  19.938  0.00  0.00    +0.000 HD
BRANCH  13  18
ATOM     17  C   UNL     1       0.663  11.419  20.506  0.00  0.00    +0.000 C 
ATOM     18  C   UNL     1       0.511  10.741  19.139  0.00  0.00    +0.000 C 
BRANCH  18  19
ATOM     19  C   UNL     1      -0.941  10.788  18.691  0.00  0.00    +0.000 A 
ATOM     20  C   UNL     1      -1.360   9.999  17.606  0.00  0.00    +0.000 A 
ATOM     21  C   UNL     1      -2.641  10.150  17.071  0.00  0.00    +0.000 A 
ATOM     22  C   UNL     1      -3.511  11.077  17.630  0.00  0.00    +0.000 A 
ATOM     23  F   UNL     1      -4.721  11.259  17.086  0.00  0.00    +0.000 F 
ATOM     24  C   UNL     1      -3.140  11.829  18.737  0.00  0.00    +0.000 A 
ATOM     25  C   UNL     1      -1.862  11.676  19.276  0.00  0.00    +0.000 A 
ENDBRANCH  18  19
ENDBRANCH  13  18
ENDBRANCH   1  14
BRANCH   5  26
ATOM     26  O   UNL     1       4.995   5.250  16.932  0.00  0.00    +0.000 OA
BRANCH  26  27
ATOM     27  C   UNL     1       6.301   5.765  17.144  0.00  0.00    +0.000 C 
ATOM     28  F   UNL     1       6.648   5.665  18.450  0.00  0.00    +0.000 F 
ATOM     29  F   UNL     1       7.188   5.044  16.419  0.00  0.00    +0.000 F 
ENDBRANCH  26  27
ENDBRANCH   5  26
TORSDOF 6
ENDMDL
MODEL 6
REMARK VINA RESULT:      -8.0      2.172      2.873
REMARK  Name = 
REMARK  7 active torsions:
REMARK  status: ('A' for Active; 'I' for Inactive)
REMARK    1  A    between atoms: C_1  and  C_2
REMARK    2  A    between atoms: C_2  and  N_3
REMARK    3  A    between atoms: C_2  and  C_21
REMARK    4  A    between atoms: C_4  and  C_6
REMARK    5  A    between atoms: C_9  and  C_10
REMARK    6  A    between atoms: C_15  and  O_16
REMARK    7  A    between atoms: O_16  and  C_17
REMARK                            x       y       z     vdW  Elec       q    Type
REMARK                         _______ _______ _______ _____ _____    ______ ____
ROOT
ATOM      1  C   UNL     1       2.474   7.550  18.306  0.00  0.00    +0.000 A 
ATOM      2  C   UNL     1       1.797   6.690  19.178  0.00  0.00    +0.000 A 
ATOM      3  C   UNL     1       2.253   5.385  19.377  0.00  0.00    +0.000 A 
ATOM      4  C   UNL     1       3.394   4.908  18.712  0.00  0.00    +0.000 A 
ATOM      5  C   UNL     1       4.081   5.777  17.835  0.00  0.00    +0.000 A 
ATOM      6  C   UNL     1       3.632   7.096  17.660  0.00  0.00    +0.000 A 
ENDROOT
BRANCH   4   7
ATOM      7  C   UNL     1       3.831   3.530  18.935  0.00  0.00    +0.000 A 
ATOM      8  C   UNL     1       4.592   2.945  19.977  0.00  0.00    +0.000 A 
ATOM      9  N   UNL     1       4.805   1.637  19.799  0.00  0.00    +0.000 NA
ATOM     10  N   UNL     1       4.169   1.372  18.648  0.00  0.00    +0.000 N 
ATOM     11  C   UNL     1       3.574   2.468  18.091  0.00  0.00    +0.000 A 
ATOM     12  H   UNL     1       4.186   0.420  18.298  0.00  0.00    +0.000 HD
ENDBRANCH   4   7
BRANCH   1  14
ATOM     13  N   UNL     1       0.970   9.350  19.008  0.00  0.00    +0.000 N 
ATOM     14  C   UNL     1       1.965   8.938  18.141  0.00  0.00    +0.000 C 
ATOM     15  O   UNL     1       2.447   9.665  17.275  0.00  0.00    +0.000 OA
ATOM     16  H   UNL     1       0.734   8.783  19.810  0.00  0.00    +0.000 HD
BRANCH  13  18
ATOM     17  C   UNL     1       0.582  11.451  20.265  0.00  0.00    +0.000 C 
ATOM     18  C   UNL     1       0.428  10.697  18.938  0.00  0.00    +0.000 C 
BRANCH  18  19
ATOM     19  C   UNL     1      -1.030  10.692  18.506  0.00  0.00    +0.000 A 
ATOM     20  C   UNL     1      -1.436   9.869  17.441  0.00  0.00    +0.000 A 
ATOM     21  C   UNL     1      -2.727   9.971  16.918  0.00  0.00    +0.000 A 
ATOM     22  C   UNL     1      -3.619  10.883  17.467  0.00  0.00    +0.000 A 
ATOM     23  F   UNL     1      -4.839  11.018  16.934  0.00  0.00    +0.000 F 
ATOM     24  C   UNL     1      -3.258  11.668  18.555  0.00  0.00    +0.000 A 
ATOM     25  C   UNL     1      -1.971  11.565  19.083  0.00  0.00    +0.000 A 
ENDBRANCH  18  19
ENDBRANCH  13  18
ENDBRANCH   1  14
BRANCH   5  26
ATOM     26  O   UNL     1       5.195   5.278  17.210  0.00  0.00    +0.000 OA
BRANCH  26  27
ATOM     27  C   UNL     1       5.262   5.344  15.793  0.00  0.00    +0.000 C 
ATOM     28  F   UNL     1       6.534   5.574  15.386  0.00  0.00    +0.000 F 
ATOM     29  F   UNL     1       4.864   4.159  15.273  0.00  0.00    +0.000 F 
ENDBRANCH  26  27
ENDBRANCH   5  26
TORSDOF 6
ENDMDL
MODEL 7
REMARK VINA RESULT:      -8.0      0.685      1.074
REMARK  Name = 
REMARK  7 active torsions:
REMARK  status: ('A' for Active; 'I' for Inactive)
REMARK    1  A    between atoms: C_1  and  C_2
REMARK    2  A    between atoms: C_2  and  N_3
REMARK    3  A    between atoms: C_2  and  C_21
REMARK    4  A    between atoms: C_4  and  C_6
REMARK    5  A    between atoms: C_9  and  C_10
REMARK    6  A    between atoms: C_15  and  O_16
REMARK    7  A    between atoms: O_16  and  C_17
REMARK                            x       y       z     vdW  Elec       q    Type
REMARK                         _______ _______ _______ _____ _____    ______ ____
ROOT
ATOM      1  C   UNL     1       2.421   7.330  18.304  0.00  0.00    +0.000 A 
ATOM      2  C   UNL     1       3.663   6.917  17.811  0.00  0.00    +0.000 A 
ATOM      3  C   UNL     1       4.073   5.589  17.952  0.00  0.00    +0.000 A 
ATOM      4  C   UNL     1       3.253   4.643  18.587  0.00  0.00    +0.000 A 
ATOM      5  C   UNL     1       1.996   5.058  19.082  0.00  0.00    +0.000 A 
ATOM      6  C   UNL     1       1.580   6.388  18.913  0.00  0.00    +0.000 A 
ENDROOT
BRANCH   4   7
ATOM      7  C   UNL     1       3.724   3.266  18.729  0.00  0.00    +0.000 A 
ATOM      8  C   UNL     1       3.438   2.095  17.983  0.00  0.00    +0.000 A 
ATOM      9  N   UNL     1       4.058   1.009  18.455  0.00  0.00    +0.000 NA
ATOM     10  N   UNL     1       4.755   1.478  19.500  0.00  0.00    +0.000 N 
ATOM     11  C   UNL     1       4.589   2.818  19.708  0.00  0.00    +0.000 A 
ATOM     12  H   UNL     1       5.322   0.825  20.031  0.00  0.00    +0.000 HD
ENDBRANCH   4   7
BRANCH   1  14
ATOM     13  N   UNL     1       1.125   9.277  19.028  0.00  0.00    +0.000 N 
ATOM     14  C   UNL     1       2.017   8.749  18.113  0.00  0.00    +0.000 C 
ATOM     15  O   UNL     1       2.493   9.399  17.185  0.00  0.00    +0.000 OA
ATOM     16  H   UNL     1       0.902   8.763  19.868  0.00  0.00    +0.000 HD
BRANCH  13  18
ATOM     17  C   UNL     1       0.860  11.408  20.265  0.00  0.00    +0.000 C 
ATOM     18  C   UNL     1       0.691  10.661  18.936  0.00  0.00    +0.000 C 
BRANCH  18  19
ATOM     19  C   UNL     1      -0.748  10.767  18.456  0.00  0.00    +0.000 A 
ATOM     20  C   UNL     1      -1.611  11.704  19.048  0.00  0.00    +0.000 A 
ATOM     21  C   UNL     1      -2.974  11.705  18.744  0.00  0.00    +0.000 A 
ATOM     22  C   UNL     1      -3.474  10.780  17.837  0.00  0.00    +0.000 A 
ATOM     23  F   UNL     1      -4.788  10.746  17.583  0.00  0.00    +0.000 F 
ATOM     24  C   UNL     1      -2.632   9.879  17.198  0.00  0.00    +0.000 A 
ATOM     25  C   UNL     1      -1.269   9.880  17.496  0.00  0.00    +0.000 A 
ENDBRANCH  18  19
ENDBRANCH  13  18
ENDBRANCH   1  14
BRANCH   5  26
ATOM     26  O   UNL     1       1.220   4.104  19.689  0.00  0.00    +0.000 OA
BRANCH  26  27
ATOM     27  C   UNL     1       1.357   3.911  21.089  0.00  0.00    +0.000 C 
ATOM     28  F   UNL     1       1.664   2.620  21.365  0.00  0.00    +0.000 F 
ATOM     29  F   UNL     1       2.365   4.689  21.549  0.00  0.00    +0.000 F 
ENDBRANCH  26  27
ENDBRANCH   5  26
TORSDOF 6
ENDMDL
MODEL 8
REMARK VINA RESULT:      -8.0      0.797      1.291
REMARK  Name = 
REMARK  7 active torsions:
REMARK  status: ('A' for Active; 'I' for Inactive)
REMARK    1  A    between atoms: C_1  and  C_2
REMARK    2  A    between atoms: C_2  and  N_3
REMARK    3  A    between atoms: C_2  and  C_21
REMARK    4  A    between atoms: C_4  and  C_6
REMARK    5  A    between atoms: C_9  and  C_10
REMARK    6  A    between atoms: C_15  and  O_16
REMARK    7  A    between atoms: O_16  and  C_17
REMARK                            x       y       z     vdW  Elec       q    Type
REMARK                         _______ _______ _______ _____ _____    ______ ____
ROOT
ATOM      1  C   UNL     1       2.468   7.078  18.334  0.00  0.00    +0.000 A 
ATOM      2  C   UNL     1       3.697   6.640  17.829  0.00  0.00    +0.000 A 
ATOM      3  C   UNL     1       4.086   5.306  17.976  0.00  0.00    +0.000 A 
ATOM      4  C   UNL     1       3.257   4.379  18.629  0.00  0.00    +0.000 A 
ATOM      5  C   UNL     1       2.013   4.819  19.135  0.00  0.00    +0.000 A 
ATOM      6  C   UNL     1       1.618   6.156  18.961  0.00  0.00    +0.000 A 
ENDROOT
BRANCH   4   7
ATOM      7  C   UNL     1       3.706   2.995  18.776  0.00  0.00    +0.000 A 
ATOM      8  C   UNL     1       4.493   2.365  19.771  0.00  0.00    +0.000 A 
ATOM      9  N   UNL     1       4.708   1.069  19.525  0.00  0.00    +0.000 NA
ATOM     10  N   UNL     1       4.049   0.856  18.377  0.00  0.00    +0.000 N 
ATOM     11  C   UNL     1       3.436   1.974  17.887  0.00  0.00    +0.000 A 
ATOM     12  H   UNL     1       4.063  -0.079  17.981  0.00  0.00    +0.000 HD
ENDBRANCH   4   7
BRANCH   1  14
ATOM     13  N   UNL     1       1.189   9.043  19.039  0.00  0.00    +0.000 N 
ATOM     14  C   UNL     1       2.086   8.502  18.137  0.00  0.00    +0.000 C 
ATOM     15  O   UNL     1       2.584   9.145  17.215  0.00  0.00    +0.000 OA
ATOM     16  H   UNL     1       0.948   8.533  19.876  0.00  0.00    +0.000 HD
BRANCH  13  18
ATOM     17  C   UNL     1       1.048  11.209  20.235  0.00  0.00    +0.000 C 
ATOM     18  C   UNL     1       0.776  10.433  18.940  0.00  0.00    +0.000 C 
BRANCH  18  19
ATOM     19  C   UNL     1      -0.690  10.556  18.556  0.00  0.00    +0.000 A 
ATOM     20  C   UNL     1      -1.188   9.815  17.470  0.00  0.00    +0.000 A 
ATOM     21  C   UNL     1      -2.482  10.036  16.994  0.00  0.00    +0.000 A 
ATOM     22  C   UNL     1      -3.286  10.985  17.612  0.00  0.00    +0.000 A 
ATOM     23  F   UNL     1      -4.508  11.234  17.125  0.00  0.00    +0.000 F 
ATOM     24  C   UNL     1      -2.836  11.690  18.720  0.00  0.00    +0.000 A 
ATOM     25  C   UNL     1      -1.545  11.468  19.201  0.00  0.00    +0.000 A 
ENDBRANCH  18  19
ENDBRANCH  13  18
ENDBRANCH   1  14
BRANCH   5  26
ATOM     26  O   UNL     1       1.229   3.884  19.759  0.00  0.00    +0.000 OA
BRANCH  26  27
ATOM     27  C   UNL     1       1.336   3.742  21.167  0.00  0.00    +0.000 C 
ATOM     28  F   UNL     1       1.604   2.456  21.498  0.00  0.00    +0.000 F 
ATOM     29  F   UNL     1       2.355   4.511  21.617  0.00  0.00    +0.000 F 
ENDBRANCH  26  27
ENDBRANCH   5  26
TORSDOF 6
ENDMDL
MODEL 9
REMARK VINA RESULT:      -7.9      2.354      2.937
REMARK  Name = 
REMARK  7 active torsions:
REMARK  status: ('A' for Active; 'I' for Inactive)
REMARK    1  A    between atoms: C_1  and  C_2
REMARK    2  A    between atoms: C_2  and  N_3
REMARK    3  A    between atoms: C_2  and  C_21
REMARK    4  A    between atoms: C_4  and  C_6
REMARK    5  A    between atoms: C_9  and  C_10
REMARK    6  A    between atoms: C_15  and  O_16
REMARK    7  A    between atoms: O_16  and  C_17
REMARK                            x       y       z     vdW  Elec       q    Type
REMARK                         _______ _______ _______ _____ _____    ______ ____
ROOT
ATOM      1  C   UNL     1       1.604   8.732  18.783  0.00  0.00    +0.000 A 
ATOM      2  C   UNL     1       2.524   8.631  17.734  0.00  0.00    +0.000 A 
ATOM      3  C   UNL     1       3.405   7.549  17.668  0.00  0.00    +0.000 A 
ATOM      4  C   UNL     1       3.387   6.542  18.647  0.00  0.00    +0.000 A 
ATOM      5  C   UNL     1       2.454   6.640  19.705  0.00  0.00    +0.000 A 
ATOM      6  C   UNL     1       1.555   7.718  19.749  0.00  0.00    +0.000 A 
ENDROOT
BRANCH   4   7
ATOM      7  C   UNL     1       4.334   5.432  18.552  0.00  0.00    +0.000 A 
ATOM      8  C   UNL     1       5.624   5.249  19.110  0.00  0.00    +0.000 A 
ATOM      9  N   UNL     1       6.187   4.090  18.758  0.00  0.00    +0.000 NA
ATOM     10  N   UNL     1       5.257   3.514  17.982  0.00  0.00    +0.000 N 
ATOM     11  C   UNL     1       4.133   4.275  17.826  0.00  0.00    +0.000 A 
ATOM     12  H   UNL     1       5.457   2.601  17.588  0.00  0.00    +0.000 HD
ENDBRANCH   4   7
BRANCH   1  14
ATOM     13  N   UNL     1       0.905  10.870  19.749  0.00  0.00    +0.000 N 
ATOM     14  C   UNL     1       0.672   9.891  18.801  0.00  0.00    +0.000 C 
ATOM     15  O   UNL     1      -0.240   9.953  17.979  0.00  0.00    +0.000 OA
ATOM     16  H   UNL     1       1.763  10.862  20.280  0.00  0.00    +0.000 HD
BRANCH  13  18
ATOM     17  C   UNL     1       0.882  13.338  19.967  0.00  0.00    +0.000 C 
ATOM     18  C   UNL     1       0.061  12.051  19.827  0.00  0.00    +0.000 C 
BRANCH  18  19
ATOM     19  C   UNL     1      -0.945  11.946  20.963  0.00  0.00    +0.000 A 
ATOM     20  C   UNL     1      -2.122  12.713  20.922  0.00  0.00    +0.000 A 
ATOM     21  C   UNL     1      -2.976  12.762  22.026  0.00  0.00    +0.000 A 
ATOM     22  C   UNL     1      -2.665  12.033  23.166  0.00  0.00    +0.000 A 
ATOM     23  F   UNL     1      -3.455  12.119  24.243  0.00  0.00    +0.000 F 
ATOM     24  C   UNL     1      -1.536  11.224  23.210  0.00  0.00    +0.000 A 
ATOM     25  C   UNL     1      -0.684  11.170  22.106  0.00  0.00    +0.000 A 
ENDBRANCH  18  19
ENDBRANCH  13  18
ENDBRANCH   1  14
BRANCH   5  26
ATOM     26  O   UNL     1       2.462   5.634  20.636  0.00  0.00    +0.000 OA
BRANCH  26  27
ATOM     27  C   UNL     1       1.370   4.726  20.660  0.00  0.00    +0.000 C 
ATOM     28  F   UNL     1       1.099   4.273  19.413  0.00  0.00    +0.000 F 
ATOM     29  F   UNL     1       1.694   3.661  21.431  0.00  0.00    +0.000 F 
ENDBRANCH  26  27
ENDBRANCH   5  26
TORSDOF 6
ENDMDL
