MODEL 1
REMARK VINA RESULT:      -6.7      0.000      0.000
REMARK  Name = 
REMARK  10 active torsions:
REMARK  status: ('A' for Active; 'I' for Inactive)
REMARK    1  A    between atoms: C_1  and  C_2
REMARK    2  A    between atoms: C_2  and  C_3
REMARK    3  A    between atoms: C_3  and  C_4
REMARK    4  A    between atoms: C_3  and  C_5
REMARK    5  A    between atoms: C_3  and  N_8
REMARK    6  A    between atoms: C_5  and  C_6
REMARK    7  A    between atoms: C_6  and  O_7
REMARK    8  A    between atoms: C_9  and  C_11
REMARK    9  A    between atoms: N_13  and  C_14
REMARK   10  A    between atoms: C_17  and  C_18
REMARK                            x       y       z     vdW  Elec       q    Type
REMARK                         _______ _______ _______ _____ _____    ______ ____
ROOT
ATOM      1  N   UNL     1       5.758   3.394  13.670  0.00  0.00    +0.000 N 
ATOM      2  C   UNL     1       6.220   4.404  14.488  0.00  0.00    +0.000 C 
ATOM      3  O   UNL     1       6.773   5.441  14.150  0.00  0.00    +0.000 OA
ATOM      4  H   UNL     1       5.334   2.612  14.167  0.00  0.00    +0.000 HD
ENDROOT
BRANCH   2   5
ATOM      5  C   UNL     1       5.954   4.142  15.986  0.00  0.00    +0.000 C 
ATOM      6  O   UNL     1       6.921   4.078  16.731  0.00  0.00    +0.000 OA
ATOM      7  N   UNL     1       4.617   3.943  16.273  0.00  0.00    +0.000 N 
ATOM      8  H   UNL     1       4.001   3.926  15.463  0.00  0.00    +0.000 HD
BRANCH   7   9
ATOM      9  C   UNL     1       4.085   3.624  17.534  0.00  0.00    +0.000 A 
ATOM     10  C   UNL     1       3.711   2.323  17.888  0.00  0.00    +0.000 A 
ATOM     11  C   UNL     1       3.120   2.064  19.129  0.00  0.00    +0.000 A 
ATOM     12  C   UNL     1       2.888   3.104  20.026  0.00  0.00    +0.000 A 
ATOM     13  C   UNL     1       3.299   4.400  19.698  0.00  0.00    +0.000 A 
ATOM     14  C   UNL     1       3.911   4.655  18.463  0.00  0.00    +0.000 A 
BRANCH  12  15
ATOM     15  C   UNL     1       2.224   2.846  21.273  0.00  0.00    +0.000 C 
ATOM     16  N   UNL     1       1.689   2.646  22.283  0.00  0.00    +0.000 NA
ENDBRANCH  12  15
ENDBRANCH   7   9
ENDBRANCH   2   5
BRANCH   1  17
ATOM     17  C   UNL     1       5.901   3.327  12.208  0.00  0.00    +0.000 C 
ATOM     18  C   UNL     1       7.226   3.999  11.786  0.00  0.00    +0.000 C 
BRANCH  17  20
ATOM     19  C   UNL     1       7.125   1.395  10.926  0.00  0.00    +0.000 C 
ATOM     20  C   UNL     1       5.916   1.836  11.751  0.00  0.00    +0.000 C 
ENDBRANCH  17  20
BRANCH  17  21
ATOM     21  C   UNL     1       4.723   4.069  11.509  0.00  0.00    +0.000 C 
BRANCH  21  22
ATOM     22  C   UNL     1       3.642   3.161  10.922  0.00  0.00    +0.000 C 
BRANCH  22  23
ATOM     23  O   UNL     1       3.001   3.816   9.833  0.00  0.00    +0.000 OA
ATOM     24  H   UNL     1       2.270   4.343  10.199  0.00  0.00    +0.000 HD
ENDBRANCH  22  23
ENDBRANCH  21  22
ENDBRANCH  17  21
ENDBRANCH   1  17
TORSDOF 8
ENDMDL
MODEL 2
REMARK VINA RESULT:      -6.6      0.214      1.064
REMARK  Name = 
REMARK  10 active torsions:
REMARK  status: ('A' for Active; 'I' for Inactive)
REMARK    1  A    between atoms: C_1  and  C_2
REMARK    2  A    between atoms: C_2  and  C_3
REMARK    3  A    between atoms: C_3  and  C_4
REMARK    4  A    between atoms: C_3  and  C_5
REMARK    5  A    between atoms: C_3  and  N_8
REMARK    6  A    between atoms: C_5  and  C_6
REMARK    7  A    between atoms: C_6  and  O_7
REMARK    8  A    between atoms: C_9  and  C_11
REMARK    9  A    between atoms: N_13  and  C_14
REMARK   10  A    between atoms: C_17  and  C_18
REMARK                            x       y       z     vdW  Elec       q    Type
REMARK                         _______ _______ _______ _____ _____    ______ ____
ROOT
ATOM      1  N   UNL     1       5.661   3.468  13.675  0.00  0.00    +0.000 N 
ATOM      2  C   UNL     1       6.254   4.383  14.519  0.00  0.00    +0.000 C 
ATOM      3  O   UNL     1       7.007   5.298  14.213  0.00  0.00    +0.000 OA
ATOM      4  H   UNL     1       5.073   2.782  14.147  0.00  0.00    +0.000 HD
ENDROOT
BRANCH   2   5
ATOM      5  C   UNL     1       5.860   4.190  15.998  0.00  0.00    +0.000 C 
ATOM      6  O   UNL     1       6.762   4.130  16.822  0.00  0.00    +0.000 OA
ATOM      7  N   UNL     1       4.499   4.041  16.183  0.00  0.00    +0.000 N 
ATOM      8  H   UNL     1       3.950   4.009  15.327  0.00  0.00    +0.000 HD
BRANCH   7   9
ATOM      9  C   UNL     1       3.857   3.789  17.408  0.00  0.00    +0.000 A 
ATOM     10  C   UNL     1       3.425   4.812  18.257  0.00  0.00    +0.000 A 
ATOM     11  C   UNL     1       2.855   4.515  19.499  0.00  0.00    +0.000 A 
ATOM     12  C   UNL     1       2.720   3.190  19.910  0.00  0.00    +0.000 A 
ATOM     13  C   UNL     1       3.111   2.160  19.049  0.00  0.00    +0.000 A 
ATOM     14  C   UNL     1       3.661   2.459  17.795  0.00  0.00    +0.000 A 
BRANCH  12  15
ATOM     15  C   UNL     1       2.193   2.889  21.211  0.00  0.00    +0.000 C 
ATOM     16  N   UNL     1       1.759   2.649  22.260  0.00  0.00    +0.000 NA
ENDBRANCH  12  15
ENDBRANCH   7   9
ENDBRANCH   2   5
BRANCH   1  17
ATOM     17  C   UNL     1       5.872   3.361  12.223  0.00  0.00    +0.000 C 
ATOM     18  C   UNL     1       7.215   4.021  11.845  0.00  0.00    +0.000 C 
BRANCH  17  20
ATOM     19  C   UNL     1       7.049   1.439  10.883  0.00  0.00    +0.000 C 
ATOM     20  C   UNL     1       5.908   1.857  11.809  0.00  0.00    +0.000 C 
ENDBRANCH  17  20
BRANCH  17  21
ATOM     21  C   UNL     1       4.728   4.081  11.451  0.00  0.00    +0.000 C 
BRANCH  21  22
ATOM     22  C   UNL     1       3.659   3.158  10.863  0.00  0.00    +0.000 C 
BRANCH  22  23
ATOM     23  O   UNL     1       3.005   3.807   9.778  0.00  0.00    +0.000 OA
ATOM     24  H   UNL     1       3.688   4.270   9.262  0.00  0.00    +0.000 HD
ENDBRANCH  22  23
ENDBRANCH  21  22
ENDBRANCH  17  21
ENDBRANCH   1  17
TORSDOF 8
ENDMDL
MODEL 3
REMARK VINA RESULT:      -6.3      7.029      8.860
REMARK  Name = 
REMARK  10 active torsions:
REMARK  status: ('A' for Active; 'I' for Inactive)
REMARK    1  A    between atoms: C_1  and  C_2
REMARK    2  A    between atoms: C_2  and  C_3
REMARK    3  A    between atoms: C_3  and  C_4
REMARK    4  A    between atoms: C_3  and  C_5
REMARK    5  A    between atoms: C_3  and  N_8
REMARK    6  A    between atoms: C_5  and  C_6
REMARK    7  A    between atoms: C_6  and  O_7
REMARK    8  A    between atoms: C_9  and  C_11
REMARK    9  A    between atoms: N_13  and  C_14
REMARK   10  A    between atoms: C_17  and  C_18
REMARK                            x       y       z     vdW  Elec       q    Type
REMARK                         _______ _______ _______ _____ _____    ______ ____
ROOT
ATOM      1  N   UNL     1       6.944   6.991  17.020  0.00  0.00    +0.000 N 
ATOM      2  C   UNL     1       7.754   7.325  18.084  0.00  0.00    +0.000 C 
ATOM      3  O   UNL     1       8.178   6.582  18.959  0.00  0.00    +0.000 OA
ATOM      4  H   UNL     1       6.704   7.773  16.413  0.00  0.00    +0.000 HD
ENDROOT
BRANCH   2   5
ATOM      5  C   UNL     1       8.157   8.815  18.097  0.00  0.00    +0.000 C 
ATOM      6  O   UNL     1       7.758   9.517  17.179  0.00  0.00    +0.000 OA
ATOM      7  N   UNL     1       8.996   9.142  19.144  0.00  0.00    +0.000 N 
ATOM      8  H   UNL     1       9.290   8.357  19.721  0.00  0.00    +0.000 HD
BRANCH   7   9
ATOM      9  C   UNL     1       9.572  10.404  19.374  0.00  0.00    +0.000 A 
ATOM     10  C   UNL     1       9.532  11.035  20.622  0.00  0.00    +0.000 A 
ATOM     11  C   UNL     1      10.056  12.321  20.787  0.00  0.00    +0.000 A 
ATOM     12  C   UNL     1      10.617  12.995  19.704  0.00  0.00    +0.000 A 
ATOM     13  C   UNL     1      10.699  12.354  18.464  0.00  0.00    +0.000 A 
ATOM     14  C   UNL     1      10.194  11.056  18.304  0.00  0.00    +0.000 A 
BRANCH  12  15
ATOM     15  C   UNL     1      11.097  14.338  19.861  0.00  0.00    +0.000 C 
ATOM     16  N   UNL     1      11.478  15.427  19.992  0.00  0.00    +0.000 NA
ENDBRANCH  12  15
ENDBRANCH   7   9
ENDBRANCH   2   5
BRANCH   1  17
ATOM     17  C   UNL     1       6.357   5.668  16.757  0.00  0.00    +0.000 C 
ATOM     18  C   UNL     1       7.400   4.570  17.055  0.00  0.00    +0.000 C 
BRANCH  17  20
ATOM     19  C   UNL     1       4.013   6.509  17.576  0.00  0.00    +0.000 C 
ATOM     20  C   UNL     1       5.114   5.454  17.675  0.00  0.00    +0.000 C 
ENDBRANCH  17  20
BRANCH  17  21
ATOM     21  C   UNL     1       5.923   5.550  15.266  0.00  0.00    +0.000 C 
BRANCH  21  22
ATOM     22  C   UNL     1       6.869   4.742  14.376  0.00  0.00    +0.000 C 
BRANCH  22  23
ATOM     23  O   UNL     1       7.882   5.593  13.851  0.00  0.00    +0.000 OA
ATOM     24  H   UNL     1       8.351   5.988  14.607  0.00  0.00    +0.000 HD
ENDBRANCH  22  23
ENDBRANCH  21  22
ENDBRANCH  17  21
ENDBRANCH   1  17
TORSDOF 8
ENDMDL
MODEL 4
REMARK VINA RESULT:      -6.3      6.928      9.013
REMARK  Name = 
REMARK  10 active torsions:
REMARK  status: ('A' for Active; 'I' for Inactive)
REMARK    1  A    between atoms: C_1  and  C_2
REMARK    2  A    between atoms: C_2  and  C_3
REMARK    3  A    between atoms: C_3  and  C_4
REMARK    4  A    between atoms: C_3  and  C_5
REMARK    5  A    between atoms: C_3  and  N_8
REMARK    6  A    between atoms: C_5  and  C_6
REMARK    7  A    between atoms: C_6  and  O_7
REMARK    8  A    between atoms: C_9  and  C_11
REMARK    9  A    between atoms: N_13  and  C_14
REMARK   10  A    between atoms: C_17  and  C_18
REMARK                            x       y       z     vdW  Elec       q    Type
REMARK                         _______ _______ _______ _____ _____    ______ ____
ROOT
ATOM      1  N   UNL     1       6.563   6.691  17.565  0.00  0.00    +0.000 N 
ATOM      2  C   UNL     1       7.678   7.046  18.293  0.00  0.00    +0.000 C 
ATOM      3  O   UNL     1       8.373   6.321  18.992  0.00  0.00    +0.000 OA
ATOM      4  H   UNL     1       6.130   7.461  17.057  0.00  0.00    +0.000 HD
ENDROOT
BRANCH   2   5
ATOM      5  C   UNL     1       8.053   8.536  18.143  0.00  0.00    +0.000 C 
ATOM      6  O   UNL     1       7.623   9.132  17.165  0.00  0.00    +0.000 OA
ATOM      7  N   UNL     1       8.905   8.984  19.133  0.00  0.00    +0.000 N 
ATOM      8  H   UNL     1       9.226   8.269  19.782  0.00  0.00    +0.000 HD
BRANCH   7   9
ATOM      9  C   UNL     1       9.462  10.273  19.218  0.00  0.00    +0.000 A 
ATOM     10  C   UNL     1       9.935  10.965  18.099  0.00  0.00    +0.000 A 
ATOM     11  C   UNL     1      10.546  12.216  18.241  0.00  0.00    +0.000 A 
ATOM     12  C   UNL     1      10.698  12.783  19.504  0.00  0.00    +0.000 A 
ATOM     13  C   UNL     1      10.188  12.117  20.623  0.00  0.00    +0.000 A 
ATOM     14  C   UNL     1       9.557  10.874  20.478  0.00  0.00    +0.000 A 
BRANCH  12  15
ATOM     15  C   UNL     1      11.380  14.037  19.654  0.00  0.00    +0.000 C 
ATOM     16  N   UNL     1      11.934  15.049  19.782  0.00  0.00    +0.000 NA
ENDBRANCH  12  15
ENDBRANCH   7   9
ENDBRANCH   2   5
BRANCH   1  17
ATOM     17  C   UNL     1       5.930   5.363  17.537  0.00  0.00    +0.000 C 
ATOM     18  C   UNL     1       4.538   5.466  16.879  0.00  0.00    +0.000 C 
BRANCH  17  20
ATOM     19  C   UNL     1       7.093   4.776  15.261  0.00  0.00    +0.000 C 
ATOM     20  C   UNL     1       6.815   4.379  16.710  0.00  0.00    +0.000 C 
ENDBRANCH  17  20
BRANCH  17  21
ATOM     21  C   UNL     1       5.758   4.810  18.983  0.00  0.00    +0.000 C 
BRANCH  21  22
ATOM     22  C   UNL     1       4.646   3.774  19.154  0.00  0.00    +0.000 C 
BRANCH  22  23
ATOM     23  O   UNL     1       5.191   2.561  19.663  0.00  0.00    +0.000 OA
ATOM     24  H   UNL     1       4.462   2.063  20.069  0.00  0.00    +0.000 HD
ENDBRANCH  22  23
ENDBRANCH  21  22
ENDBRANCH  17  21
ENDBRANCH   1  17
TORSDOF 8
ENDMDL
MODEL 5
REMARK VINA RESULT:      -6.2      5.260      7.666
REMARK  Name = 
REMARK  10 active torsions:
REMARK  status: ('A' for Active; 'I' for Inactive)
REMARK    1  A    between atoms: C_1  and  C_2
REMARK    2  A    between atoms: C_2  and  C_3
REMARK    3  A    between atoms: C_3  and  C_4
REMARK    4  A    between atoms: C_3  and  C_5
REMARK    5  A    between atoms: C_3  and  N_8
REMARK    6  A    between atoms: C_5  and  C_6
REMARK    7  A    between atoms: C_6  and  O_7
REMARK    8  A    between atoms: C_9  and  C_11
REMARK    9  A    between atoms: N_13  and  C_14
REMARK   10  A    between atoms: C_17  and  C_18
REMARK                            x       y       z     vdW  Elec       q    Type
REMARK                         _______ _______ _______ _____ _____    ______ ____
ROOT
ATOM      1  N   UNL     1       3.904   5.912  18.841  0.00  0.00    +0.000 N 
ATOM      2  C   UNL     1       3.075   5.215  19.694  0.00  0.00    +0.000 C 
ATOM      3  O   UNL     1       3.139   4.029  19.989  0.00  0.00    +0.000 OA
ATOM      4  H   UNL     1       3.662   6.896  18.733  0.00  0.00    +0.000 HD
ENDROOT
BRANCH   2   5
ATOM      5  C   UNL     1       1.981   6.095  20.333  0.00  0.00    +0.000 C 
ATOM      6  O   UNL     1       0.979   5.537  20.757  0.00  0.00    +0.000 OA
ATOM      7  N   UNL     1       2.268   7.446  20.275  0.00  0.00    +0.000 N 
ATOM      8  H   UNL     1       3.115   7.684  19.765  0.00  0.00    +0.000 HD
BRANCH   7   9
ATOM      9  C   UNL     1       1.431   8.485  20.719  0.00  0.00    +0.000 A 
ATOM     10  C   UNL     1       1.176   8.720  22.074  0.00  0.00    +0.000 A 
ATOM     11  C   UNL     1       0.281   9.720  22.468  0.00  0.00    +0.000 A 
ATOM     12  C   UNL     1      -0.377  10.490  21.510  0.00  0.00    +0.000 A 
ATOM     13  C   UNL     1      -0.094  10.289  20.155  0.00  0.00    +0.000 A 
ATOM     14  C   UNL     1       0.819   9.302  19.762  0.00  0.00    +0.000 A 
BRANCH  12  15
ATOM     15  C   UNL     1      -1.341  11.473  21.914  0.00  0.00    +0.000 C 
ATOM     16  N   UNL     1      -2.128  12.263  22.237  0.00  0.00    +0.000 NA
ENDBRANCH  12  15
ENDBRANCH   7   9
ENDBRANCH   2   5
BRANCH   1  17
ATOM     17  C   UNL     1       5.006   5.349  18.047  0.00  0.00    +0.000 C 
ATOM     18  C   UNL     1       4.481   4.178  17.189  0.00  0.00    +0.000 C 
BRANCH  17  20
ATOM     19  C   UNL     1       5.305   6.284  15.616  0.00  0.00    +0.000 C 
ATOM     20  C   UNL     1       5.591   6.449  17.108  0.00  0.00    +0.000 C 
ENDBRANCH  17  20
BRANCH  17  21
ATOM     21  C   UNL     1       6.133   4.815  18.980  0.00  0.00    +0.000 C 
BRANCH  21  22
ATOM     22  C   UNL     1       7.339   5.742  19.138  0.00  0.00    +0.000 C 
BRANCH  22  23
ATOM     23  O   UNL     1       7.991   5.480  20.376  0.00  0.00    +0.000 OA
ATOM     24  H   UNL     1       8.017   4.514  20.492  0.00  0.00    +0.000 HD
ENDBRANCH  22  23
ENDBRANCH  21  22
ENDBRANCH  17  21
ENDBRANCH   1  17
TORSDOF 8
ENDMDL
MODEL 6
REMARK VINA RESULT:      -6.2      7.039      8.728
REMARK  Name = 
REMARK  10 active torsions:
REMARK  status: ('A' for Active; 'I' for Inactive)
REMARK    1  A    between atoms: C_1  and  C_2
REMARK    2  A    between atoms: C_2  and  C_3
REMARK    3  A    between atoms: C_3  and  C_4
REMARK    4  A    between atoms: C_3  and  C_5
REMARK    5  A    between atoms: C_3  and  N_8
REMARK    6  A    between atoms: C_5  and  C_6
REMARK    7  A    between atoms: C_6  and  O_7
REMARK    8  A    between atoms: C_9  and  C_11
REMARK    9  A    between atoms: N_13  and  C_14
REMARK   10  A    between atoms: C_17  and  C_18
REMARK                            x       y       z     vdW  Elec       q    Type
REMARK                         _______ _______ _______ _____ _____    ______ ____
ROOT
ATOM      1  N   UNL     1       7.227   6.795  16.920  0.00  0.00    +0.000 N 
ATOM      2  C   UNL     1       7.840   7.236  18.074  0.00  0.00    +0.000 C 
ATOM      3  O   UNL     1       8.184   6.564  19.037  0.00  0.00    +0.000 OA
ATOM      4  H   UNL     1       7.022   7.532  16.247  0.00  0.00    +0.000 HD
ENDROOT
BRANCH   2   5
ATOM      5  C   UNL     1       8.120   8.753  18.072  0.00  0.00    +0.000 C 
ATOM      6  O   UNL     1       7.608   9.423  17.186  0.00  0.00    +0.000 OA
ATOM      7  N   UNL     1       8.994   9.146  19.067  0.00  0.00    +0.000 N 
ATOM      8  H   UNL     1       9.387   8.387  19.619  0.00  0.00    +0.000 HD
BRANCH   7   9
ATOM      9  C   UNL     1       9.478  10.450  19.269  0.00  0.00    +0.000 A 
ATOM     10  C   UNL     1       9.991  11.234  18.230  0.00  0.00    +0.000 A 
ATOM     11  C   UNL     1      10.527  12.499  18.489  0.00  0.00    +0.000 A 
ATOM     12  C   UNL     1      10.567  12.991  19.793  0.00  0.00    +0.000 A 
ATOM     13  C   UNL     1      10.017  12.232  20.831  0.00  0.00    +0.000 A 
ATOM     14  C   UNL     1       9.460  10.973  20.567  0.00  0.00    +0.000 A 
BRANCH  12  15
ATOM     15  C   UNL     1      11.174  14.263  20.065  0.00  0.00    +0.000 C 
ATOM     16  N   UNL     1      11.658  15.295  20.284  0.00  0.00    +0.000 NA
ENDBRANCH  12  15
ENDBRANCH   7   9
ENDBRANCH   2   5
BRANCH   1  17
ATOM     17  C   UNL     1       6.790   5.419  16.640  0.00  0.00    +0.000 C 
ATOM     18  C   UNL     1       7.625   4.430  17.481  0.00  0.00    +0.000 C 
BRANCH  17  20
ATOM     19  C   UNL     1       4.512   6.556  17.262  0.00  0.00    +0.000 C 
ATOM     20  C   UNL     1       5.283   5.261  17.010  0.00  0.00    +0.000 C 
ENDBRANCH  17  20
BRANCH  17  21
ATOM     21  C   UNL     1       6.989   5.080  15.132  0.00  0.00    +0.000 C 
BRANCH  21  22
ATOM     22  C   UNL     1       5.845   4.296  14.487  0.00  0.00    +0.000 C 
BRANCH  22  23
ATOM     23  O   UNL     1       6.370   3.350  13.562  0.00  0.00    +0.000 OA
ATOM     24  H   UNL     1       6.737   2.612  14.078  0.00  0.00    +0.000 HD
ENDBRANCH  22  23
ENDBRANCH  21  22
ENDBRANCH  17  21
ENDBRANCH   1  17
TORSDOF 8
ENDMDL
MODEL 7
REMARK VINA RESULT:      -6.2      4.358      6.061
REMARK  Name = 
REMARK  10 active torsions:
REMARK  status: ('A' for Active; 'I' for Inactive)
REMARK    1  A    between atoms: C_1  and  C_2
REMARK    2  A    between atoms: C_2  and  C_3
REMARK    3  A    between atoms: C_3  and  C_4
REMARK    4  A    between atoms: C_3  and  C_5
REMARK    5  A    between atoms: C_3  and  N_8
REMARK    6  A    between atoms: C_5  and  C_6
REMARK    7  A    between atoms: C_6  and  O_7
REMARK    8  A    between atoms: C_9  and  C_11
REMARK    9  A    between atoms: N_13  and  C_14
REMARK   10  A    between atoms: C_17  and  C_18
REMARK                            x       y       z     vdW  Elec       q    Type
REMARK                         _______ _______ _______ _____ _____    ______ ____
ROOT
ATOM      1  N   UNL     1       5.212   5.589  17.414  0.00  0.00    +0.000 N 
ATOM      2  C   UNL     1       4.227   4.773  17.931  0.00  0.00    +0.000 C 
ATOM      3  O   UNL     1       4.268   3.559  18.076  0.00  0.00    +0.000 OA
ATOM      4  H   UNL     1       4.961   6.576  17.378  0.00  0.00    +0.000 HD
ENDROOT
BRANCH   2   5
ATOM      5  C   UNL     1       2.970   5.548  18.381  0.00  0.00    +0.000 C 
ATOM      6  O   UNL     1       1.931   4.917  18.507  0.00  0.00    +0.000 OA
ATOM      7  N   UNL     1       3.189   6.905  18.518  0.00  0.00    +0.000 N 
ATOM      8  H   UNL     1       4.116   7.222  18.241  0.00  0.00    +0.000 HD
BRANCH   7   9
ATOM      9  C   UNL     1       2.218   7.865  18.853  0.00  0.00    +0.000 A 
ATOM     10  C   UNL     1       1.709   8.779  17.925  0.00  0.00    +0.000 A 
ATOM     11  C   UNL     1       0.797   9.763  18.319  0.00  0.00    +0.000 A 
ATOM     12  C   UNL     1       0.391   9.850  19.649  0.00  0.00    +0.000 A 
ATOM     13  C   UNL     1       0.862   8.913  20.574  0.00  0.00    +0.000 A 
ATOM     14  C   UNL     1       1.759   7.914  20.173  0.00  0.00    +0.000 A 
BRANCH  12  15
ATOM     15  C   UNL     1      -0.497  10.899  20.064  0.00  0.00    +0.000 C 
ATOM     16  N   UNL     1      -1.212  11.752  20.394  0.00  0.00    +0.000 NA
ENDBRANCH  12  15
ENDBRANCH   7   9
ENDBRANCH   2   5
BRANCH   1  17
ATOM     17  C   UNL     1       6.501   5.150  16.860  0.00  0.00    +0.000 C 
ATOM     18  C   UNL     1       7.190   6.335  16.150  0.00  0.00    +0.000 C 
BRANCH  17  20
ATOM     19  C   UNL     1       7.828   5.677  19.059  0.00  0.00    +0.000 C 
ATOM     20  C   UNL     1       7.421   4.640  18.012  0.00  0.00    +0.000 C 
ENDBRANCH  17  20
BRANCH  17  21
ATOM     21  C   UNL     1       6.289   4.005  15.825  0.00  0.00    +0.000 C 
BRANCH  21  22
ATOM     22  C   UNL     1       6.177   4.459  14.369  0.00  0.00    +0.000 C 
BRANCH  22  23
ATOM     23  O   UNL     1       6.321   3.339  13.502  0.00  0.00    +0.000 OA
ATOM     24  H   UNL     1       5.471   3.213  13.047  0.00  0.00    +0.000 HD
ENDBRANCH  22  23
ENDBRANCH  21  22
ENDBRANCH  17  21
ENDBRANCH   1  17
TORSDOF 8
ENDMDL
MODEL 8
REMARK VINA RESULT:      -6.2      5.023      7.334
REMARK  Name = 
REMARK  10 active torsions:
REMARK  status: ('A' for Active; 'I' for Inactive)
REMARK    1  A    between atoms: C_1  and  C_2
REMARK    2  A    between atoms: C_2  and  C_3
REMARK    3  A    between atoms: C_3  and  C_4
REMARK    4  A    between atoms: C_3  and  C_5
REMARK    5  A    between atoms: C_3  and  N_8
REMARK    6  A    between atoms: C_5  and  C_6
REMARK    7  A    between atoms: C_6  and  O_7
REMARK    8  A    between atoms: C_9  and  C_11
REMARK    9  A    between atoms: N_13  and  C_14
REMARK   10  A    between atoms: C_17  and  C_18
REMARK                            x       y       z     vdW  Elec       q    Type
REMARK                         _______ _______ _______ _____ _____    ______ ____
ROOT
ATOM      1  N   UNL     1       3.835   5.600  18.481  0.00  0.00    +0.000 N 
ATOM      2  C   UNL     1       3.201   4.963  19.527  0.00  0.00    +0.000 C 
ATOM      3  O   UNL     1       3.398   3.827  19.935  0.00  0.00    +0.000 OA
ATOM      4  H   UNL     1       3.508   6.549  18.308  0.00  0.00    +0.000 HD
ENDROOT
BRANCH   2   5
ATOM      5  C   UNL     1       2.157   5.851  20.235  0.00  0.00    +0.000 C 
ATOM      6  O   UNL     1       1.232   5.292  20.808  0.00  0.00    +0.000 OA
ATOM      7  N   UNL     1       2.385   7.203  20.061  0.00  0.00    +0.000 N 
ATOM      8  H   UNL     1       3.158   7.432  19.441  0.00  0.00    +0.000 HD
BRANCH   7   9
ATOM      9  C   UNL     1       1.568   8.243  20.536  0.00  0.00    +0.000 A 
ATOM     10  C   UNL     1       0.972   9.181  19.687  0.00  0.00    +0.000 A 
ATOM     11  C   UNL     1       0.224  10.242  20.209  0.00  0.00    +0.000 A 
ATOM     12  C   UNL     1       0.072  10.382  21.587  0.00  0.00    +0.000 A 
ATOM     13  C   UNL     1       0.629   9.423  22.440  0.00  0.00    +0.000 A 
ATOM     14  C   UNL     1       1.359   8.349  21.915  0.00  0.00    +0.000 A 
BRANCH  12  15
ATOM     15  C   UNL     1      -0.642  11.505  22.123  0.00  0.00    +0.000 C 
ATOM     16  N   UNL     1      -1.219  12.411  22.565  0.00  0.00    +0.000 NA
ENDBRANCH  12  15
ENDBRANCH   7   9
ENDBRANCH   2   5
BRANCH   1  17
ATOM     17  C   UNL     1       4.841   5.008  17.585  0.00  0.00    +0.000 C 
ATOM     18  C   UNL     1       4.269   3.730  16.937  0.00  0.00    +0.000 C 
BRANCH  17  20
ATOM     19  C   UNL     1       5.692   5.434  15.142  0.00  0.00    +0.000 C 
ATOM     20  C   UNL     1       5.209   6.029  16.464  0.00  0.00    +0.000 C 
ENDBRANCH  17  20
BRANCH  17  21
ATOM     21  C   UNL     1       6.125   4.631  18.381  0.00  0.00    +0.000 C 
BRANCH  21  22
ATOM     22  C   UNL     1       6.931   5.817  18.914  0.00  0.00    +0.000 C 
BRANCH  22  23
ATOM     23  O   UNL     1       7.554   5.464  20.144  0.00  0.00    +0.000 OA
ATOM     24  H   UNL     1       7.418   4.509  20.275  0.00  0.00    +0.000 HD
ENDBRANCH  22  23
ENDBRANCH  21  22
ENDBRANCH  17  21
ENDBRANCH   1  17
TORSDOF 8
ENDMDL
MODEL 9
REMARK VINA RESULT:      -6.1      4.677      6.660
REMARK  Name = 
REMARK  10 active torsions:
REMARK  status: ('A' for Active; 'I' for Inactive)
REMARK    1  A    between atoms: C_1  and  C_2
REMARK    2  A    between atoms: C_2  and  C_3
REMARK    3  A    between atoms: C_3  and  C_4
REMARK    4  A    between atoms: C_3  and  C_5
REMARK    5  A    between atoms: C_3  and  N_8
REMARK    6  A    between atoms: C_5  and  C_6
REMARK    7  A    between atoms: C_6  and  O_7
REMARK    8  A    between atoms: C_9  and  C_11
REMARK    9  A    between atoms: N_13  and  C_14
REMARK   10  A    between atoms: C_17  and  C_18
REMARK                            x       y       z     vdW  Elec       q    Type
REMARK                         _______ _______ _______ _____ _____    ______ ____
ROOT
ATOM      1  N   UNL     1       5.090   6.088  17.468  0.00  0.00    +0.000 N 
ATOM      2  C   UNL     1       3.969   5.285  17.469  0.00  0.00    +0.000 C 
ATOM      3  O   UNL     1       3.876   4.138  17.056  0.00  0.00    +0.000 OA
ATOM      4  H   UNL     1       4.940   7.018  17.856  0.00  0.00    +0.000 HD
ENDROOT
BRANCH   2   5
ATOM      5  C   UNL     1       2.735   5.965  18.100  0.00  0.00    +0.000 C 
ATOM      6  O   UNL     1       1.725   5.290  18.237  0.00  0.00    +0.000 OA
ATOM      7  N   UNL     1       2.932   7.306  18.369  0.00  0.00    +0.000 N 
ATOM      8  H   UNL     1       3.825   7.681  18.057  0.00  0.00    +0.000 HD
BRANCH   7   9
ATOM      9  C   UNL     1       1.970   8.192  18.884  0.00  0.00    +0.000 A 
ATOM     10  C   UNL     1       1.327   9.150  18.094  0.00  0.00    +0.000 A 
ATOM     11  C   UNL     1       0.428  10.057  18.663  0.00  0.00    +0.000 A 
ATOM     12  C   UNL     1       0.170  10.023  20.032  0.00  0.00    +0.000 A 
ATOM     13  C   UNL     1       0.776   9.041  20.822  0.00  0.00    +0.000 A 
ATOM     14  C   UNL     1       1.659   8.118  20.246  0.00  0.00    +0.000 A 
BRANCH  12  15
ATOM     15  C   UNL     1      -0.705  10.995  20.625  0.00  0.00    +0.000 C 
ATOM     16  N   UNL     1      -1.418  11.778  21.100  0.00  0.00    +0.000 NA
ENDBRANCH  12  15
ENDBRANCH   7   9
ENDBRANCH   2   5
BRANCH   1  17
ATOM     17  C   UNL     1       6.402   5.747  16.898  0.00  0.00    +0.000 C 
ATOM     18  C   UNL     1       6.910   4.429  17.520  0.00  0.00    +0.000 C 
BRANCH  17  20
ATOM     19  C   UNL     1       6.580   4.173  14.809  0.00  0.00    +0.000 C 
ATOM     20  C   UNL     1       6.272   5.567  15.354  0.00  0.00    +0.000 C 
ENDBRANCH  17  20
BRANCH  17  21
ATOM     21  C   UNL     1       7.437   6.871  17.200  0.00  0.00    +0.000 C 
BRANCH  21  22
ATOM     22  C   UNL     1       8.044   6.835  18.604  0.00  0.00    +0.000 C 
BRANCH  22  23
ATOM     23  O   UNL     1       8.698   8.069  18.879  0.00  0.00    +0.000 OA
ATOM     24  H   UNL     1       8.832   8.119  19.841  0.00  0.00    +0.000 HD
ENDBRANCH  22  23
ENDBRANCH  21  22
ENDBRANCH  17  21
ENDBRANCH   1  17
TORSDOF 8
ENDMDL
