MODEL 1
REMARK VINA RESULT:      -7.4      0.000      0.000
REMARK  Name = 
REMARK  8 active torsions:
REMARK  status: ('A' for Active; 'I' for Inactive)
REMARK    1  A    between atoms: C_1  and  C_2
REMARK    2  A    between atoms: C_2  and  C_3
REMARK    3  A    between atoms: C_2  and  C_4
REMARK    4  A    between atoms: C_4  and  C_5
REMARK    5  A    between atoms: C_8  and  C_9
REMARK    6  A    between atoms: C_9  and  C_10
REMARK    7  A    between atoms: C_9  and  C_11
REMARK    8  A    between atoms: N_16  and  C_17
REMARK                            x       y       z     vdW  Elec       q    Type
REMARK                         _______ _______ _______ _____ _____    ______ ____
ROOT
ATOM      1  C   UNL     1       4.261   4.408  18.976  0.00  0.00    +0.000 C 
ATOM      2  O   UNL     1       3.954   3.397  19.622  0.00  0.00    +0.000 OA
ATOM      3  N   UNL     1       3.364   5.457  18.861  0.00  0.00    +0.000 N 
ATOM      4  C   UNL     1       2.141   5.471  19.681  0.00  0.00    +0.000 C 
ATOM      5  C   UNL     1       2.011   6.805  20.450  0.00  0.00    +0.000 C 
ATOM      6  N   UNL     1       2.179   7.976  19.561  0.00  0.00    +0.000 N 
ATOM      7  C   UNL     1       3.359   7.934  18.682  0.00  0.00    +0.000 C 
ATOM      8  C   UNL     1       3.428   6.588  17.937  0.00  0.00    +0.000 C 
ENDROOT
BRANCH   6   9
ATOM      9  C   UNL     1       1.154   8.861  19.277  0.00  0.00    +0.000 A 
ATOM     10  C   UNL     1       0.715   9.037  17.952  0.00  0.00    +0.000 A 
ATOM     11  C   UNL     1      -0.306   9.929  17.624  0.00  0.00    +0.000 A 
ATOM     12  C   UNL     1      -0.928  10.677  18.622  0.00  0.00    +0.000 A 
ATOM     13 CL   UNL     1      -2.185  11.763  18.157  0.00  0.00    +0.000 Cl
ATOM     14  C   UNL     1      -0.512  10.523  19.946  0.00  0.00    +0.000 A 
ATOM     15 CL   UNL     1      -1.236  11.401  21.248  0.00  0.00    +0.000 Cl
ATOM     16  C   UNL     1       0.520   9.625  20.261  0.00  0.00    +0.000 A 
ENDBRANCH   6   9
BRANCH   1  17
ATOM     17  C   UNL     1       5.700   4.510  18.428  0.00  0.00    +0.000 C 
ATOM     18  C   UNL     1       6.465   5.669  19.072  0.00  0.00    +0.000 C 
BRANCH  17  22
ATOM     19  C   UNL     1       6.137   4.017  14.125  0.00  0.00    +0.000 A 
ATOM     20  C   UNL     1       5.014   3.531  14.802  0.00  0.00    +0.000 A 
ATOM     21  C   UNL     1       4.869   3.729  16.178  0.00  0.00    +0.000 A 
ATOM     22  C   UNL     1       5.868   4.376  16.922  0.00  0.00    +0.000 A 
ATOM     23  C   UNL     1       7.019   4.800  16.241  0.00  0.00    +0.000 A 
ATOM     24  C   UNL     1       7.142   4.650  14.858  0.00  0.00    +0.000 A 
BRANCH  19  25
ATOM     25  C   UNL     1       6.268   3.872  12.627  0.00  0.00    +0.000 C 
BRANCH  25  27
ATOM     26  C   UNL     1       4.246   3.261  11.204  0.00  0.00    +0.000 C 
ATOM     27  C   UNL     1       5.414   2.730  12.040  0.00  0.00    +0.000 C 
ATOM     28  C   UNL     1       6.287   1.805  11.192  0.00  0.00    +0.000 C 
ENDBRANCH  25  27
ENDBRANCH  19  25
ENDBRANCH  17  22
ENDBRANCH   1  17
TORSDOF 5
ENDMDL
MODEL 2
REMARK VINA RESULT:      -7.3      2.417      3.887
REMARK  Name = 
REMARK  8 active torsions:
REMARK  status: ('A' for Active; 'I' for Inactive)
REMARK    1  A    between atoms: C_1  and  C_2
REMARK    2  A    between atoms: C_2  and  C_3
REMARK    3  A    between atoms: C_2  and  C_4
REMARK    4  A    between atoms: C_4  and  C_5
REMARK    5  A    between atoms: C_8  and  C_9
REMARK    6  A    between atoms: C_9  and  C_10
REMARK    7  A    between atoms: C_9  and  C_11
REMARK    8  A    between atoms: N_16  and  C_17
REMARK                            x       y       z     vdW  Elec       q    Type
REMARK                         _______ _______ _______ _____ _____    ______ ____
ROOT
ATOM      1  C   UNL     1       2.149   2.932  18.859  0.00  0.00    +0.000 C 
ATOM      2  O   UNL     1       1.678   2.016  19.548  0.00  0.00    +0.000 OA
ATOM      3  N   UNL     1       1.763   4.241  19.090  0.00  0.00    +0.000 N 
ATOM      4  C   UNL     1       0.970   4.575  20.284  0.00  0.00    +0.000 C 
ATOM      5  C   UNL     1       1.633   5.720  21.082  0.00  0.00    +0.000 C 
ATOM      6  N   UNL     1       1.973   6.872  20.219  0.00  0.00    +0.000 N 
ATOM      7  C   UNL     1       2.700   6.539  18.983  0.00  0.00    +0.000 C 
ATOM      8  C   UNL     1       1.987   5.402  18.228  0.00  0.00    +0.000 C 
ENDROOT
BRANCH   6   9
ATOM      9  C   UNL     1       1.359   8.107  20.330  0.00  0.00    +0.000 A 
ATOM     10  C   UNL     1       1.364   9.003  19.247  0.00  0.00    +0.000 A 
ATOM     11  C   UNL     1       0.766  10.262  19.325  0.00  0.00    +0.000 A 
ATOM     12  C   UNL     1       0.136  10.663  20.502  0.00  0.00    +0.000 A 
ATOM     13 CL   UNL     1      -0.587  12.229  20.540  0.00  0.00    +0.000 Cl
ATOM     14  C   UNL     1       0.116   9.793  21.594  0.00  0.00    +0.000 A 
ATOM     15 CL   UNL     1      -0.655  10.205  23.086  0.00  0.00    +0.000 Cl
ATOM     16  C   UNL     1       0.725   8.532  21.502  0.00  0.00    +0.000 A 
ENDBRANCH   6   9
BRANCH   1  17
ATOM     17  C   UNL     1       3.260   2.581  17.846  0.00  0.00    +0.000 C 
ATOM     18  C   UNL     1       3.767   1.150  18.044  0.00  0.00    +0.000 C 
BRANCH  17  22
ATOM     19  C   UNL     1       6.367   5.540  17.111  0.00  0.00    +0.000 A 
ATOM     20  C   UNL     1       5.457   5.177  16.113  0.00  0.00    +0.000 A 
ATOM     21  C   UNL     1       4.441   4.254  16.374  0.00  0.00    +0.000 A 
ATOM     22  C   UNL     1       4.339   3.630  17.626  0.00  0.00    +0.000 A 
ATOM     23  C   UNL     1       5.298   3.954  18.599  0.00  0.00    +0.000 A 
ATOM     24  C   UNL     1       6.282   4.915  18.357  0.00  0.00    +0.000 A 
BRANCH  19  25
ATOM     25  C   UNL     1       7.423   6.591  16.861  0.00  0.00    +0.000 C 
BRANCH  25  27
ATOM     26  C   UNL     1       8.507   7.080  19.113  0.00  0.00    +0.000 C 
ATOM     27  C   UNL     1       7.574   7.601  18.016  0.00  0.00    +0.000 C 
ATOM     28  C   UNL     1       8.089   8.937  17.480  0.00  0.00    +0.000 C 
ENDBRANCH  25  27
ENDBRANCH  19  25
ENDBRANCH  17  22
ENDBRANCH   1  17
TORSDOF 5
ENDMDL
MODEL 3
REMARK VINA RESULT:      -7.0      2.531      4.053
REMARK  Name = 
REMARK  8 active torsions:
REMARK  status: ('A' for Active; 'I' for Inactive)
REMARK    1  A    between atoms: C_1  and  C_2
REMARK    2  A    between atoms: C_2  and  C_3
REMARK    3  A    between atoms: C_2  and  C_4
REMARK    4  A    between atoms: C_4  and  C_5
REMARK    5  A    between atoms: C_8  and  C_9
REMARK    6  A    between atoms: C_9  and  C_10
REMARK    7  A    between atoms: C_9  and  C_11
REMARK    8  A    between atoms: N_16  and  C_17
REMARK                            x       y       z     vdW  Elec       q    Type
REMARK                         _______ _______ _______ _____ _____    ______ ____
ROOT
ATOM      1  C   UNL     1       2.288   3.107  18.937  0.00  0.00    +0.000 C 
ATOM      2  O   UNL     1       1.862   2.165  19.618  0.00  0.00    +0.000 OA
ATOM      3  N   UNL     1       1.830   4.393  19.169  0.00  0.00    +0.000 N 
ATOM      4  C   UNL     1       1.011   4.679  20.358  0.00  0.00    +0.000 C 
ATOM      5  C   UNL     1       1.605   5.855  21.165  0.00  0.00    +0.000 C 
ATOM      6  N   UNL     1       1.890   7.027  20.309  0.00  0.00    +0.000 N 
ATOM      7  C   UNL     1       2.643   6.738  19.077  0.00  0.00    +0.000 C 
ATOM      8  C   UNL     1       1.998   5.567  18.313  0.00  0.00    +0.000 C 
ENDROOT
BRANCH   6   9
ATOM      9  C   UNL     1       1.209   8.226  20.419  0.00  0.00    +0.000 A 
ATOM     10  C   UNL     1       0.301   8.432  21.473  0.00  0.00    +0.000 A 
ATOM     11  C   UNL     1      -0.415   9.623  21.611  0.00  0.00    +0.000 A 
ATOM     12  C   UNL     1      -0.237  10.654  20.692  0.00  0.00    +0.000 A 
ATOM     13 CL   UNL     1      -1.147  12.104  20.913  0.00  0.00    +0.000 Cl
ATOM     14  C   UNL     1       0.659  10.477  19.635  0.00  0.00    +0.000 A 
ATOM     15 CL   UNL     1       0.949  11.709  18.457  0.00  0.00    +0.000 Cl
ATOM     16  C   UNL     1       1.368   9.273  19.506  0.00  0.00    +0.000 A 
ENDBRANCH   6   9
BRANCH   1  17
ATOM     17  C   UNL     1       3.424   2.820  17.932  0.00  0.00    +0.000 C 
ATOM     18  C   UNL     1       3.766   1.329  17.883  0.00  0.00    +0.000 C 
BRANCH  17  22
ATOM     19  C   UNL     1       6.788   5.578  18.111  0.00  0.00    +0.000 A 
ATOM     20  C   UNL     1       6.139   5.146  19.272  0.00  0.00    +0.000 A 
ATOM     21  C   UNL     1       5.084   4.231  19.203  0.00  0.00    +0.000 A 
ATOM     22  C   UNL     1       4.618   3.762  17.965  0.00  0.00    +0.000 A 
ATOM     23  C   UNL     1       5.236   4.253  16.804  0.00  0.00    +0.000 A 
ATOM     24  C   UNL     1       6.323   5.126  16.874  0.00  0.00    +0.000 A 
BRANCH  19  25
ATOM     25  C   UNL     1       7.975   6.509  18.181  0.00  0.00    +0.000 C 
BRANCH  25  27
ATOM     26  C   UNL     1       6.245   8.202  17.389  0.00  0.00    +0.000 C 
ATOM     27  C   UNL     1       7.736   7.866  17.490  0.00  0.00    +0.000 C 
ATOM     28  C   UNL     1       8.472   8.975  18.243  0.00  0.00    +0.000 C 
ENDBRANCH  25  27
ENDBRANCH  19  25
ENDBRANCH  17  22
ENDBRANCH   1  17
TORSDOF 5
ENDMDL
MODEL 4
REMARK VINA RESULT:      -7.0      3.238      5.452
REMARK  Name = 
REMARK  8 active torsions:
REMARK  status: ('A' for Active; 'I' for Inactive)
REMARK    1  A    between atoms: C_1  and  C_2
REMARK    2  A    between atoms: C_2  and  C_3
REMARK    3  A    between atoms: C_2  and  C_4
REMARK    4  A    between atoms: C_4  and  C_5
REMARK    5  A    between atoms: C_8  and  C_9
REMARK    6  A    between atoms: C_9  and  C_10
REMARK    7  A    between atoms: C_9  and  C_11
REMARK    8  A    between atoms: N_16  and  C_17
REMARK                            x       y       z     vdW  Elec       q    Type
REMARK                         _______ _______ _______ _____ _____    ______ ____
ROOT
ATOM      1  C   UNL     1       1.112   8.550  20.156  0.00  0.00    +0.000 C 
ATOM      2  O   UNL     1       1.557   7.692  20.930  0.00  0.00    +0.000 OA
ATOM      3  N   UNL     1       0.094   9.394  20.568  0.00  0.00    +0.000 N 
ATOM      4  C   UNL     1      -0.309   9.425  21.983  0.00  0.00    +0.000 C 
ATOM      5  C   UNL     1      -0.291  10.870  22.528  0.00  0.00    +0.000 C 
ATOM      6  N   UNL     1      -1.031  11.803  21.650  0.00  0.00    +0.000 N 
ATOM      7  C   UNL     1      -0.689  11.725  20.220  0.00  0.00    +0.000 C 
ATOM      8  C   UNL     1      -0.734  10.265  19.734  0.00  0.00    +0.000 C 
ENDROOT
BRANCH   6   9
ATOM      9  C   UNL     1      -2.204  12.430  22.032  0.00  0.00    +0.000 A 
ATOM     10  C   UNL     1      -2.755  13.450  21.237  0.00  0.00    +0.000 A 
ATOM     11  C   UNL     1      -3.929  14.115  21.595  0.00  0.00    +0.000 A 
ATOM     12  C   UNL     1      -4.594  13.773  22.771  0.00  0.00    +0.000 A 
ATOM     13 CL   UNL     1      -6.041  14.627  23.162  0.00  0.00    +0.000 Cl
ATOM     14  C   UNL     1      -4.068  12.764  23.580  0.00  0.00    +0.000 A 
ATOM     15 CL   UNL     1      -4.835  12.267  25.049  0.00  0.00    +0.000 Cl
ATOM     16  C   UNL     1      -2.885  12.106  23.210  0.00  0.00    +0.000 A 
ENDBRANCH   6   9
BRANCH   1  17
ATOM     17  C   UNL     1       1.811   8.728  18.792  0.00  0.00    +0.000 C 
ATOM     18  C   UNL     1       0.893   9.414  17.777  0.00  0.00    +0.000 C 
BRANCH  17  22
ATOM     19  C   UNL     1       4.061   5.367  17.181  0.00  0.00    +0.000 A 
ATOM     20  C   UNL     1       4.515   6.682  17.037  0.00  0.00    +0.000 A 
ATOM     21  C   UNL     1       3.802   7.748  17.592  0.00  0.00    +0.000 A 
ATOM     22  C   UNL     1       2.589   7.533  18.263  0.00  0.00    +0.000 A 
ATOM     23  C   UNL     1       2.111   6.215  18.343  0.00  0.00    +0.000 A 
ATOM     24  C   UNL     1       2.848   5.143  17.836  0.00  0.00    +0.000 A 
BRANCH  19  25
ATOM     25  C   UNL     1       4.862   4.202  16.649  0.00  0.00    +0.000 C 
BRANCH  25  27
ATOM     26  C   UNL     1       7.396   4.436  16.737  0.00  0.00    +0.000 C 
ATOM     27  C   UNL     1       6.135   4.624  15.889  0.00  0.00    +0.000 C 
ATOM     28  C   UNL     1       6.255   3.831  14.587  0.00  0.00    +0.000 C 
ENDBRANCH  25  27
ENDBRANCH  19  25
ENDBRANCH  17  22
ENDBRANCH   1  17
TORSDOF 5
ENDMDL
MODEL 5
REMARK VINA RESULT:      -7.0      5.058     11.231
REMARK  Name = 
REMARK  8 active torsions:
REMARK  status: ('A' for Active; 'I' for Inactive)
REMARK    1  A    between atoms: C_1  and  C_2
REMARK    2  A    between atoms: C_2  and  C_3
REMARK    3  A    between atoms: C_2  and  C_4
REMARK    4  A    between atoms: C_4  and  C_5
REMARK    5  A    between atoms: C_8  and  C_9
REMARK    6  A    between atoms: C_9  and  C_10
REMARK    7  A    between atoms: C_9  and  C_11
REMARK    8  A    between atoms: N_16  and  C_17
REMARK                            x       y       z     vdW  Elec       q    Type
REMARK                         _______ _______ _______ _____ _____    ______ ____
ROOT
ATOM      1  C   UNL     1      -0.082  11.731  19.123  0.00  0.00    +0.000 C 
ATOM      2  O   UNL     1      -0.313  12.229  18.012  0.00  0.00    +0.000 OA
ATOM      3  N   UNL     1       0.230  10.386  19.229  0.00  0.00    +0.000 N 
ATOM      4  C   UNL     1       0.504   9.597  18.017  0.00  0.00    +0.000 C 
ATOM      5  C   UNL     1       1.857   8.859  18.136  0.00  0.00    +0.000 C 
ATOM      6  N   UNL     1       1.968   8.109  19.406  0.00  0.00    +0.000 N 
ATOM      7  C   UNL     1       1.621   8.869  20.618  0.00  0.00    +0.000 C 
ATOM      8  C   UNL     1       0.262   9.572  20.443  0.00  0.00    +0.000 C 
ENDROOT
BRANCH   6   9
ATOM      9  C   UNL     1       2.019   6.728  19.465  0.00  0.00    +0.000 A 
ATOM     10  C   UNL     1       1.695   6.055  20.656  0.00  0.00    +0.000 A 
ATOM     11  C   UNL     1       1.746   4.664  20.758  0.00  0.00    +0.000 A 
ATOM     12  C   UNL     1       2.124   3.897  19.658  0.00  0.00    +0.000 A 
ATOM     13 CL   UNL     1       2.169   2.182  19.842  0.00  0.00    +0.000 Cl
ATOM     14  C   UNL     1       2.453   4.539  18.462  0.00  0.00    +0.000 A 
ATOM     15 CL   UNL     1       2.921   3.664  17.046  0.00  0.00    +0.000 Cl
ATOM     16  C   UNL     1       2.401   5.938  18.375  0.00  0.00    +0.000 A 
ENDBRANCH   6   9
BRANCH   1  17
ATOM     17  C   UNL     1      -0.025  12.675  20.343  0.00  0.00    +0.000 C 
ATOM     18  C   UNL     1       1.334  12.603  21.045  0.00  0.00    +0.000 C 
BRANCH  17  22
ATOM     19  C   UNL     1      -3.451  12.566  23.028  0.00  0.00    +0.000 A 
ATOM     20  C   UNL     1      -2.169  12.223  23.471  0.00  0.00    +0.000 A 
ATOM     21  C   UNL     1      -1.072  12.299  22.608  0.00  0.00    +0.000 A 
ATOM     22  C   UNL     1      -1.236  12.672  21.265  0.00  0.00    +0.000 A 
ATOM     23  C   UNL     1      -2.537  12.950  20.817  0.00  0.00    +0.000 A 
ATOM     24  C   UNL     1      -3.626  12.925  21.691  0.00  0.00    +0.000 A 
BRANCH  19  25
ATOM     25  C   UNL     1      -4.630  12.558  23.972  0.00  0.00    +0.000 C 
BRANCH  25  27
ATOM     26  C   UNL     1      -7.174  12.511  23.852  0.00  0.00    +0.000 C 
ATOM     27  C   UNL     1      -5.896  13.212  23.382  0.00  0.00    +0.000 C 
ATOM     28  C   UNL     1      -5.943  14.693  23.757  0.00  0.00    +0.000 C 
ENDBRANCH  25  27
ENDBRANCH  19  25
ENDBRANCH  17  22
ENDBRANCH   1  17
TORSDOF 5
ENDMDL
MODEL 6
REMARK VINA RESULT:      -7.0      2.864      4.654
REMARK  Name = 
REMARK  8 active torsions:
REMARK  status: ('A' for Active; 'I' for Inactive)
REMARK    1  A    between atoms: C_1  and  C_2
REMARK    2  A    between atoms: C_2  and  C_3
REMARK    3  A    between atoms: C_2  and  C_4
REMARK    4  A    between atoms: C_4  and  C_5
REMARK    5  A    between atoms: C_8  and  C_9
REMARK    6  A    between atoms: C_9  and  C_10
REMARK    7  A    between atoms: C_9  and  C_11
REMARK    8  A    between atoms: N_16  and  C_17
REMARK                            x       y       z     vdW  Elec       q    Type
REMARK                         _______ _______ _______ _____ _____    ______ ____
ROOT
ATOM      1  C   UNL     1       1.841   8.670  18.496  0.00  0.00    +0.000 C 
ATOM      2  O   UNL     1       2.102   9.018  17.336  0.00  0.00    +0.000 OA
ATOM      3  N   UNL     1       1.299   9.580  19.387  0.00  0.00    +0.000 N 
ATOM      4  C   UNL     1       0.830  10.890  18.907  0.00  0.00    +0.000 C 
ATOM      5  C   UNL     1      -0.625  11.151  19.357  0.00  0.00    +0.000 C 
ATOM      6  N   UNL     1      -0.807  10.918  20.806  0.00  0.00    +0.000 N 
ATOM      7  C   UNL     1      -0.272   9.643  21.310  0.00  0.00    +0.000 C 
ATOM      8  C   UNL     1       1.181   9.444  20.838  0.00  0.00    +0.000 C 
ENDROOT
BRANCH   6   9
ATOM      9  C   UNL     1      -1.101  11.929  21.703  0.00  0.00    +0.000 A 
ATOM     10  C   UNL     1      -0.258  13.049  21.811  0.00  0.00    +0.000 A 
ATOM     11  C   UNL     1      -0.513  14.084  22.712  0.00  0.00    +0.000 A 
ATOM     12  C   UNL     1      -1.634  14.029  23.538  0.00  0.00    +0.000 A 
ATOM     13 CL   UNL     1      -1.900  15.337  24.632  0.00  0.00    +0.000 Cl
ATOM     14  C   UNL     1      -2.489  12.928  23.453  0.00  0.00    +0.000 A 
ATOM     15 CL   UNL     1      -3.908  12.785  24.431  0.00  0.00    +0.000 Cl
ATOM     16  C   UNL     1      -2.217  11.893  22.545  0.00  0.00    +0.000 A 
ENDBRANCH   6   9
BRANCH   1  17
ATOM     17  C   UNL     1       2.012   7.180  18.862  0.00  0.00    +0.000 C 
ATOM     18  C   UNL     1       2.147   6.987  20.374  0.00  0.00    +0.000 C 
BRANCH  17  22
ATOM     19  C   UNL     1       4.794   4.796  16.509  0.00  0.00    +0.000 A 
ATOM     20  C   UNL     1       3.664   4.222  17.101  0.00  0.00    +0.000 A 
ATOM     21  C   UNL     1       2.759   5.006  17.822  0.00  0.00    +0.000 A 
ATOM     22  C   UNL     1       2.987   6.378  18.013  0.00  0.00    +0.000 A 
ATOM     23  C   UNL     1       4.158   6.928  17.468  0.00  0.00    +0.000 A 
ATOM     24  C   UNL     1       5.036   6.157  16.704  0.00  0.00    +0.000 A 
BRANCH  19  25
ATOM     25  C   UNL     1       5.738   3.971  15.667  0.00  0.00    +0.000 C 
BRANCH  25  27
ATOM     26  C   UNL     1       7.414   5.101  14.118  0.00  0.00    +0.000 C 
ATOM     27  C   UNL     1       5.989   4.561  14.265  0.00  0.00    +0.000 C 
ATOM     28  C   UNL     1       5.717   3.502  13.195  0.00  0.00    +0.000 C 
ENDBRANCH  25  27
ENDBRANCH  19  25
ENDBRANCH  17  22
ENDBRANCH   1  17
TORSDOF 5
ENDMDL
MODEL 7
REMARK VINA RESULT:      -6.9      4.854     10.913
REMARK  Name = 
REMARK  8 active torsions:
REMARK  status: ('A' for Active; 'I' for Inactive)
REMARK    1  A    between atoms: C_1  and  C_2
REMARK    2  A    between atoms: C_2  and  C_3
REMARK    3  A    between atoms: C_2  and  C_4
REMARK    4  A    between atoms: C_4  and  C_5
REMARK    5  A    between atoms: C_8  and  C_9
REMARK    6  A    between atoms: C_9  and  C_10
REMARK    7  A    between atoms: C_9  and  C_11
REMARK    8  A    between atoms: N_16  and  C_17
REMARK                            x       y       z     vdW  Elec       q    Type
REMARK                         _______ _______ _______ _____ _____    ______ ____
ROOT
ATOM      1  C   UNL     1       0.035  11.495  19.222  0.00  0.00    +0.000 C 
ATOM      2  O   UNL     1       0.095  12.149  18.171  0.00  0.00    +0.000 OA
ATOM      3  N   UNL     1       0.351  10.147  19.218  0.00  0.00    +0.000 N 
ATOM      4  C   UNL     1       0.965   9.539  18.027  0.00  0.00    +0.000 C 
ATOM      5  C   UNL     1       2.259   8.782  18.402  0.00  0.00    +0.000 C 
ATOM      6  N   UNL     1       2.052   7.856  19.537  0.00  0.00    +0.000 N 
ATOM      7  C   UNL     1       1.368   8.437  20.705  0.00  0.00    +0.000 C 
ATOM      8  C   UNL     1       0.084   9.167  20.270  0.00  0.00    +0.000 C 
ENDROOT
BRANCH   6   9
ATOM      9  C   UNL     1       2.129   6.481  19.414  0.00  0.00    +0.000 A 
ATOM     10  C   UNL     1       2.389   5.894  18.163  0.00  0.00    +0.000 A 
ATOM     11  C   UNL     1       2.462   4.510  17.995  0.00  0.00    +0.000 A 
ATOM     12  C   UNL     1       2.279   3.665  19.088  0.00  0.00    +0.000 A 
ATOM     13 CL   UNL     1       2.382   1.963  18.822  0.00  0.00    +0.000 Cl
ATOM     14  C   UNL     1       2.019   4.220  20.342  0.00  0.00    +0.000 A 
ATOM     15 CL   UNL     1       1.791   3.246  21.752  0.00  0.00    +0.000 Cl
ATOM     16  C   UNL     1       1.944   5.613  20.495  0.00  0.00    +0.000 A 
ENDBRANCH   6   9
BRANCH   1  17
ATOM     17  C   UNL     1      -0.267  12.254  20.531  0.00  0.00    +0.000 C 
ATOM     18  C   UNL     1       0.645  11.791  21.671  0.00  0.00    +0.000 C 
BRANCH  17  22
ATOM     19  C   UNL     1      -4.451  12.659  21.662  0.00  0.00    +0.000 A 
ATOM     20  C   UNL     1      -3.449  12.508  22.626  0.00  0.00    +0.000 A 
ATOM     21  C   UNL     1      -2.106  12.417  22.251  0.00  0.00    +0.000 A 
ATOM     22  C   UNL     1      -1.733  12.424  20.898  0.00  0.00    +0.000 A 
ATOM     23  C   UNL     1      -2.755  12.511  19.939  0.00  0.00    +0.000 A 
ATOM     24  C   UNL     1      -4.092  12.655  20.313  0.00  0.00    +0.000 A 
BRANCH  19  25
ATOM     25  C   UNL     1      -5.898  12.832  22.062  0.00  0.00    +0.000 C 
BRANCH  25  27
ATOM     26  C   UNL     1      -7.596  11.285  20.961  0.00  0.00    +0.000 C 
ATOM     27  C   UNL     1      -6.887  12.640  20.894  0.00  0.00    +0.000 C 
ATOM     28  C   UNL     1      -7.916  13.771  20.889  0.00  0.00    +0.000 C 
ENDBRANCH  25  27
ENDBRANCH  19  25
ENDBRANCH  17  22
ENDBRANCH   1  17
TORSDOF 5
ENDMDL
MODEL 8
REMARK VINA RESULT:      -6.8      5.266      7.733
REMARK  Name = 
REMARK  8 active torsions:
REMARK  status: ('A' for Active; 'I' for Inactive)
REMARK    1  A    between atoms: C_1  and  C_2
REMARK    2  A    between atoms: C_2  and  C_3
REMARK    3  A    between atoms: C_2  and  C_4
REMARK    4  A    between atoms: C_4  and  C_5
REMARK    5  A    between atoms: C_8  and  C_9
REMARK    6  A    between atoms: C_9  and  C_10
REMARK    7  A    between atoms: C_9  and  C_11
REMARK    8  A    between atoms: N_16  and  C_17
REMARK                            x       y       z     vdW  Elec       q    Type
REMARK                         _______ _______ _______ _____ _____    ______ ____
ROOT
ATOM      1  C   UNL     1      -0.118  11.064  18.902  0.00  0.00    +0.000 C 
ATOM      2  O   UNL     1      -0.843  10.488  18.078  0.00  0.00    +0.000 OA
ATOM      3  N   UNL     1      -0.671  11.955  19.806  0.00  0.00    +0.000 N 
ATOM      4  C   UNL     1      -2.133  12.056  19.941  0.00  0.00    +0.000 C 
ATOM      5  C   UNL     1      -2.561  11.893  21.417  0.00  0.00    +0.000 C 
ATOM      6  N   UNL     1      -1.791  12.778  22.318  0.00  0.00    +0.000 N 
ATOM      7  C   UNL     1      -0.331  12.741  22.137  0.00  0.00    +0.000 C 
ATOM      8  C   UNL     1       0.034  12.918  20.652  0.00  0.00    +0.000 C 
ENDROOT
BRANCH   6   9
ATOM      9  C   UNL     1      -2.361  13.832  23.010  0.00  0.00    +0.000 A 
ATOM     10  C   UNL     1      -3.611  14.344  22.621  0.00  0.00    +0.000 A 
ATOM     11  C   UNL     1      -4.212  15.414  23.285  0.00  0.00    +0.000 A 
ATOM     12  C   UNL     1      -3.575  16.006  24.374  0.00  0.00    +0.000 A 
ATOM     13 CL   UNL     1      -4.366  17.324  25.158  0.00  0.00    +0.000 Cl
ATOM     14  C   UNL     1      -2.332  15.518  24.782  0.00  0.00    +0.000 A 
ATOM     15 CL   UNL     1      -1.477  16.186  26.129  0.00  0.00    +0.000 Cl
ATOM     16  C   UNL     1      -1.737  14.445  24.102  0.00  0.00    +0.000 A 
ENDBRANCH   6   9
BRANCH   1  17
ATOM     17  C   UNL     1       1.369  10.659  18.968  0.00  0.00    +0.000 C 
ATOM     18  C   UNL     1       2.205  11.424  17.938  0.00  0.00    +0.000 C 
BRANCH  17  22
ATOM     19  C   UNL     1       2.265   6.418  19.374  0.00  0.00    +0.000 A 
ATOM     20  C   UNL     1       1.762   7.160  20.447  0.00  0.00    +0.000 A 
ATOM     21  C   UNL     1       1.443   8.513  20.292  0.00  0.00    +0.000 A 
ATOM     22  C   UNL     1       1.666   9.170  19.073  0.00  0.00    +0.000 A 
ATOM     23  C   UNL     1       2.232   8.429  18.023  0.00  0.00    +0.000 A 
ATOM     24  C   UNL     1       2.502   7.066  18.160  0.00  0.00    +0.000 A 
BRANCH  19  25
ATOM     25  C   UNL     1       2.543   4.939  19.510  0.00  0.00    +0.000 C 
BRANCH  25  27
ATOM     26  C   UNL     1       1.016   3.076  18.683  0.00  0.00    +0.000 C 
ATOM     27  C   UNL     1       1.281   4.098  19.792  0.00  0.00    +0.000 C 
ATOM     28  C   UNL     1       1.416   3.386  21.138  0.00  0.00    +0.000 C 
ENDBRANCH  25  27
ENDBRANCH  19  25
ENDBRANCH  17  22
ENDBRANCH   1  17
TORSDOF 5
ENDMDL
MODEL 9
REMARK VINA RESULT:      -6.8      2.639      4.644
REMARK  Name = 
REMARK  8 active torsions:
REMARK  status: ('A' for Active; 'I' for Inactive)
REMARK    1  A    between atoms: C_1  and  C_2
REMARK    2  A    between atoms: C_2  and  C_3
REMARK    3  A    between atoms: C_2  and  C_4
REMARK    4  A    between atoms: C_4  and  C_5
REMARK    5  A    between atoms: C_8  and  C_9
REMARK    6  A    between atoms: C_9  and  C_10
REMARK    7  A    between atoms: C_9  and  C_11
REMARK    8  A    between atoms: N_16  and  C_17
REMARK                            x       y       z     vdW  Elec       q    Type
REMARK                         _______ _______ _______ _____ _____    ______ ____
ROOT
ATOM      1  C   UNL     1       3.408   5.066  18.790  0.00  0.00    +0.000 C 
ATOM      2  O   UNL     1       3.434   4.179  19.654  0.00  0.00    +0.000 OA
ATOM      3  N   UNL     1       2.516   6.119  18.905  0.00  0.00    +0.000 N 
ATOM      4  C   UNL     1       1.756   6.307  20.151  0.00  0.00    +0.000 C 
ATOM      5  C   UNL     1       1.924   7.747  20.686  0.00  0.00    +0.000 C 
ATOM      6  N   UNL     1       1.665   8.761  19.640  0.00  0.00    +0.000 N 
ATOM      7  C   UNL     1       2.362   8.538  18.362  0.00  0.00    +0.000 C 
ATOM      8  C   UNL     1       2.150   7.092  17.877  0.00  0.00    +0.000 C 
ENDROOT
BRANCH   6   9
ATOM      9  C   UNL     1       0.591   9.631  19.681  0.00  0.00    +0.000 A 
ATOM     10  C   UNL     1      -0.075   9.994  18.497  0.00  0.00    +0.000 A 
ATOM     11  C   UNL     1      -1.155  10.879  18.497  0.00  0.00    +0.000 A 
ATOM     12  C   UNL     1      -1.606  11.429  19.695  0.00  0.00    +0.000 A 
ATOM     13 CL   UNL     1      -2.945  12.516  19.634  0.00  0.00    +0.000 Cl
ATOM     14  C   UNL     1      -0.963  11.087  20.886  0.00  0.00    +0.000 A 
ATOM     15 CL   UNL     1      -1.465  11.714  22.417  0.00  0.00    +0.000 Cl
ATOM     16  C   UNL     1       0.124  10.199  20.871  0.00  0.00    +0.000 A 
ENDBRANCH   6   9
BRANCH   1  17
ATOM     17  C   UNL     1       4.476   5.026  17.677  0.00  0.00    +0.000 C 
ATOM     18  C   UNL     1       4.852   3.587  17.313  0.00  0.00    +0.000 C 
BRANCH  17  22
ATOM     19  C   UNL     1       7.820   7.799  17.967  0.00  0.00    +0.000 A 
ATOM     20  C   UNL     1       6.734   8.054  17.123  0.00  0.00    +0.000 A 
ATOM     21  C   UNL     1       5.650   7.174  17.068  0.00  0.00    +0.000 A 
ATOM     22  C   UNL     1       5.645   5.989  17.819  0.00  0.00    +0.000 A 
ATOM     23  C   UNL     1       6.770   5.713  18.612  0.00  0.00    +0.000 A 
ATOM     24  C   UNL     1       7.830   6.616  18.708  0.00  0.00    +0.000 A 
BRANCH  19  25
ATOM     25  C   UNL     1       8.962   8.780  18.088  0.00  0.00    +0.000 C 
BRANCH  25  27
ATOM     26  C   UNL     1       9.344  10.366  20.044  0.00  0.00    +0.000 C 
ATOM     27  C   UNL     1       8.562  10.113  18.753  0.00  0.00    +0.000 C 
ATOM     28  C   UNL     1       8.776  11.270  17.776  0.00  0.00    +0.000 C 
ENDBRANCH  25  27
ENDBRANCH  19  25
ENDBRANCH  17  22
ENDBRANCH   1  17
TORSDOF 5
ENDMDL
