MODEL 1
REMARK VINA RESULT:      -8.7      0.000      0.000
REMARK  Name = 
REMARK  10 active torsions:
REMARK  status: ('A' for Active; 'I' for Inactive)
REMARK    1  A    between atoms: C_1  and  O_2
REMARK    2  A    between atoms: O_2  and  C_3
REMARK    3  A    between atoms: C_5  and  C_6
REMARK    4  A    between atoms: C_6  and  N_7
REMARK    5  A    between atoms: N_10  and  C_11
REMARK    6  A    between atoms: C_20  and  C_21
REMARK    7  A    between atoms: C_21  and  O_23
REMARK    8  A    between atoms: N_25  and  C_26
REMARK    9  A    between atoms: C_32  and  O_33
REMARK   10  A    between atoms: O_33  and  C_34
REMARK                            x       y       z     vdW  Elec       q    Type
REMARK                         _______ _______ _______ _____ _____    ______ ____
ROOT
ATOM      1  C   UNL     1       2.077   7.757  19.191  0.00  0.00    +0.000 A 
ATOM      2  C   UNL     1       1.429   8.347  20.307  0.00  0.00    +0.000 A 
ATOM      3  C   UNL     1       1.010   9.666  20.213  0.00  0.00    +0.000 A 
ATOM      4  C   UNL     1       1.564  10.403  19.171  0.00  0.00    +0.000 A 
ATOM      5  C   UNL     1       1.872   9.820  17.965  0.00  0.00    +0.000 A 
ATOM      6  C   UNL     1       2.070   8.462  17.974  0.00  0.00    +0.000 A 
ATOM      7  F   UNL     1       2.285   7.862  16.798  0.00  0.00    +0.000 F 
ATOM      8  C   UNL     1       1.375  11.834  19.264  0.00  0.00    +0.000 A 
ATOM      9  O   UNL     1       2.268  12.658  19.147  0.00  0.00    +0.000 OA
ATOM     10  C   UNL     1      -0.038  12.170  19.341  0.00  0.00    +0.000 A 
ATOM     11  C   UNL     1      -0.696  11.365  20.203  0.00  0.00    +0.000 A 
ATOM     12  N   UNL     1      -0.056  10.319  20.911  0.00  0.00    +0.000 N 
ENDROOT
BRANCH   1  16
ATOM     13  N   UNL     1       4.267   4.029  18.752  0.00  0.00    +0.000 NA
ATOM     14  C   UNL     1       4.936   5.340  18.953  0.00  0.00    +0.000 C 
ATOM     15  C   UNL     1       4.090   6.611  18.665  0.00  0.00    +0.000 C 
ATOM     16  N   UNL     1       2.772   6.540  19.374  0.00  0.00    +0.000 N 
ATOM     17  C   UNL     1       2.055   5.304  18.985  0.00  0.00    +0.000 C 
ATOM     18  C   UNL     1       2.924   4.095  19.406  0.00  0.00    +0.000 C 
BRANCH  13  19
ATOM     19  C   UNL     1       4.106   3.678  17.332  0.00  0.00    +0.000 C 
BRANCH  19  22
ATOM     20  C   UNL     1       6.289   3.905  14.182  0.00  0.00    +0.000 A 
ATOM     21  C   UNL     1       5.320   3.420  15.079  0.00  0.00    +0.000 A 
ATOM     22  C   UNL     1       5.264   3.931  16.391  0.00  0.00    +0.000 A 
ATOM     23  C   UNL     1       6.208   4.908  16.775  0.00  0.00    +0.000 A 
ATOM     24  C   UNL     1       7.087   5.454  15.858  0.00  0.00    +0.000 A 
ATOM     25  C   UNL     1       7.131   4.957  14.560  0.00  0.00    +0.000 A 
BRANCH  20  27
ATOM     26  C   UNL     1       5.065   3.443  12.222  0.00  0.00    +0.000 C 
ATOM     27  O   UNL     1       6.305   3.347  12.927  0.00  0.00    +0.000 OA
ENDBRANCH  20  27
BRANCH  24  28
ATOM     28  O   UNL     1       7.859   6.491  16.312  0.00  0.00    +0.000 OA
ATOM     29  C   UNL     1       7.321   7.171  17.446  0.00  0.00    +0.000 C 
ENDBRANCH  24  28
ENDBRANCH  19  22
ENDBRANCH  13  19
ENDBRANCH   1  16
BRANCH  12  30
ATOM     30  C   UNL     1      -0.749   9.718  22.053  0.00  0.00    +0.000 C 
ATOM     31  C   UNL     1      -0.000   9.533  23.346  0.00  0.00    +0.000 C 
ATOM     32  C   UNL     1      -1.093  10.553  23.267  0.00  0.00    +0.000 C 
ENDBRANCH  12  30
BRANCH  10  33
ATOM     33  C   UNL     1      -0.559  13.130  18.361  0.00  0.00    +0.000 C 
ATOM     34  O   UNL     1      -0.458  14.346  18.502  0.00  0.00    +0.000 OA
BRANCH  33  35
ATOM     35  O   UNL     1      -1.274  12.560  17.378  0.00  0.00    +0.000 OA
ATOM     36  H   UNL     1      -0.753  12.043  16.709  0.00  0.00    +0.000 HD
ENDBRANCH  33  35
ENDBRANCH  10  33
TORSDOF 8
ENDMDL
MODEL 2
REMARK VINA RESULT:      -8.7      0.396      2.140
REMARK  Name = 
REMARK  10 active torsions:
REMARK  status: ('A' for Active; 'I' for Inactive)
REMARK    1  A    between atoms: C_1  and  O_2
REMARK    2  A    between atoms: O_2  and  C_3
REMARK    3  A    between atoms: C_5  and  C_6
REMARK    4  A    between atoms: C_6  and  N_7
REMARK    5  A    between atoms: N_10  and  C_11
REMARK    6  A    between atoms: C_20  and  C_21
REMARK    7  A    between atoms: C_21  and  O_23
REMARK    8  A    between atoms: N_25  and  C_26
REMARK    9  A    between atoms: C_32  and  O_33
REMARK   10  A    between atoms: O_33  and  C_34
REMARK                            x       y       z     vdW  Elec       q    Type
REMARK                         _______ _______ _______ _____ _____    ______ ____
ROOT
ATOM      1  C   UNL     1       2.074   7.671  19.311  0.00  0.00    +0.000 A 
ATOM      2  C   UNL     1       1.410   8.301  20.395  0.00  0.00    +0.000 A 
ATOM      3  C   UNL     1       0.980   9.610  20.241  0.00  0.00    +0.000 A 
ATOM      4  C   UNL     1       1.536  10.308  19.174  0.00  0.00    +0.000 A 
ATOM      5  C   UNL     1       1.862   9.678  17.997  0.00  0.00    +0.000 A 
ATOM      6  C   UNL     1       2.072   8.324  18.065  0.00  0.00    +0.000 A 
ATOM      7  F   UNL     1       2.305   7.677  16.917  0.00  0.00    +0.000 F 
ATOM      8  C   UNL     1       1.333  11.740  19.205  0.00  0.00    +0.000 A 
ATOM      9  O   UNL     1       2.220  12.567  19.062  0.00  0.00    +0.000 OA
ATOM     10  C   UNL     1      -0.084  12.064  19.254  0.00  0.00    +0.000 A 
ATOM     11  C   UNL     1      -0.742  11.291  20.143  0.00  0.00    +0.000 A 
ATOM     12  N   UNL     1      -0.099  10.282  20.902  0.00  0.00    +0.000 N 
ENDROOT
BRANCH   1  16
ATOM     13  N   UNL     1       4.312   3.954  19.050  0.00  0.00    +0.000 NA
ATOM     14  C   UNL     1       4.962   5.279  19.212  0.00  0.00    +0.000 C 
ATOM     15  C   UNL     1       4.108   6.529  18.862  0.00  0.00    +0.000 C 
ATOM     16  N   UNL     1       2.780   6.470  19.551  0.00  0.00    +0.000 N 
ATOM     17  C   UNL     1       2.082   5.212  19.199  0.00  0.00    +0.000 C 
ATOM     18  C   UNL     1       2.957   4.030  19.679  0.00  0.00    +0.000 C 
BRANCH  13  19
ATOM     19  C   UNL     1       4.178   3.547  17.642  0.00  0.00    +0.000 C 
BRANCH  19  22
ATOM     20  C   UNL     1       6.958   5.587  15.952  0.00  0.00    +0.000 A 
ATOM     21  C   UNL     1       6.036   5.179  16.934  0.00  0.00    +0.000 A 
ATOM     22  C   UNL     1       5.033   4.245  16.607  0.00  0.00    +0.000 A 
ATOM     23  C   UNL     1       4.969   3.760  15.282  0.00  0.00    +0.000 A 
ATOM     24  C   UNL     1       5.941   4.085  14.353  0.00  0.00    +0.000 A 
ATOM     25  C   UNL     1       6.937   4.996  14.683  0.00  0.00    +0.000 A 
BRANCH  20  27
ATOM     26  C   UNL     1       7.559   7.244  17.515  0.00  0.00    +0.000 C 
ATOM     27  O   UNL     1       7.893   6.518  16.330  0.00  0.00    +0.000 OA
ENDBRANCH  20  27
BRANCH  24  28
ATOM     28  O   UNL     1       5.852   3.444  13.145  0.00  0.00    +0.000 OA
ATOM     29  C   UNL     1       6.867   3.812  12.210  0.00  0.00    +0.000 C 
ENDBRANCH  24  28
ENDBRANCH  19  22
ENDBRANCH  13  19
ENDBRANCH   1  16
BRANCH  12  30
ATOM     30  C   UNL     1      -0.797   9.723  22.061  0.00  0.00    +0.000 C 
ATOM     31  C   UNL     1      -0.045   9.554  23.354  0.00  0.00    +0.000 C 
ATOM     32  C   UNL     1      -1.117  10.594  23.256  0.00  0.00    +0.000 C 
ENDBRANCH  12  30
BRANCH  10  33
ATOM     33  C   UNL     1      -0.605  12.978  18.230  0.00  0.00    +0.000 C 
ATOM     34  O   UNL     1      -0.429  14.192  18.271  0.00  0.00    +0.000 OA
BRANCH  33  35
ATOM     35  O   UNL     1      -1.402  12.378  17.332  0.00  0.00    +0.000 OA
ATOM     36  H   UNL     1      -1.311  11.391  17.264  0.00  0.00    +0.000 HD
ENDBRANCH  33  35
ENDBRANCH  10  33
TORSDOF 8
ENDMDL
MODEL 3
REMARK VINA RESULT:      -8.6      3.784      5.864
REMARK  Name = 
REMARK  10 active torsions:
REMARK  status: ('A' for Active; 'I' for Inactive)
REMARK    1  A    between atoms: C_1  and  O_2
REMARK    2  A    between atoms: O_2  and  C_3
REMARK    3  A    between atoms: C_5  and  C_6
REMARK    4  A    between atoms: C_6  and  N_7
REMARK    5  A    between atoms: N_10  and  C_11
REMARK    6  A    between atoms: C_20  and  C_21
REMARK    7  A    between atoms: C_21  and  O_23
REMARK    8  A    between atoms: N_25  and  C_26
REMARK    9  A    between atoms: C_32  and  O_33
REMARK   10  A    between atoms: O_33  and  C_34
REMARK                            x       y       z     vdW  Elec       q    Type
REMARK                         _______ _______ _______ _____ _____    ______ ____
ROOT
ATOM      1  C   UNL     1      -0.965  10.797  18.839  0.00  0.00    +0.000 A 
ATOM      2  C   UNL     1      -1.865  10.175  17.936  0.00  0.00    +0.000 A 
ATOM      3  C   UNL     1      -3.154  10.676  17.829  0.00  0.00    +0.000 A 
ATOM      4  C   UNL     1      -3.562  11.519  18.858  0.00  0.00    +0.000 A 
ATOM      5  C   UNL     1      -2.677  12.362  19.488  0.00  0.00    +0.000 A 
ATOM      6  C   UNL     1      -1.350  12.020  19.419  0.00  0.00    +0.000 A 
ATOM      7  F   UNL     1      -0.465  12.871  19.950  0.00  0.00    +0.000 F 
ATOM      8  C   UNL     1      -4.983  11.781  18.910  0.00  0.00    +0.000 A 
ATOM      9  O   UNL     1      -5.670  11.675  19.914  0.00  0.00    +0.000 OA
ATOM     10  C   UNL     1      -5.454  12.352  17.658  0.00  0.00    +0.000 A 
ATOM     11  C   UNL     1      -4.948  11.699  16.590  0.00  0.00    +0.000 A 
ATOM     12  N   UNL     1      -4.052  10.609  16.715  0.00  0.00    +0.000 N 
ENDROOT
BRANCH   1  16
ATOM     13  N   UNL     1       2.293   7.971  19.376  0.00  0.00    +0.000 NA
ATOM     14  C   UNL     1       2.255   8.959  18.267  0.00  0.00    +0.000 C 
ATOM     15  C   UNL     1       0.875   9.594  17.939  0.00  0.00    +0.000 C 
ATOM     16  N   UNL     1       0.228  10.123  19.182  0.00  0.00    +0.000 N 
ATOM     17  C   UNL     1       0.110   9.044  20.190  0.00  0.00    +0.000 C 
ATOM     18  C   UNL     1       1.537   8.549  20.530  0.00  0.00    +0.000 C 
BRANCH  13  19
ATOM     19  C   UNL     1       1.711   6.672  19.008  0.00  0.00    +0.000 C 
BRANCH  19  22
ATOM     20  C   UNL     1       4.722   4.383  18.343  0.00  0.00    +0.000 A 
ATOM     21  C   UNL     1       3.794   5.423  18.157  0.00  0.00    +0.000 A 
ATOM     22  C   UNL     1       2.624   5.466  18.942  0.00  0.00    +0.000 A 
ATOM     23  C   UNL     1       2.406   4.437  19.884  0.00  0.00    +0.000 A 
ATOM     24  C   UNL     1       3.371   3.479  20.133  0.00  0.00    +0.000 A 
ATOM     25  C   UNL     1       4.531   3.448  19.367  0.00  0.00    +0.000 A 
BRANCH  20  27
ATOM     26  C   UNL     1       7.007   4.919  18.139  0.00  0.00    +0.000 C 
ATOM     27  O   UNL     1       5.828   4.387  17.530  0.00  0.00    +0.000 OA
ENDBRANCH  20  27
BRANCH  24  28
ATOM     28  O   UNL     1       3.107   2.618  21.166  0.00  0.00    +0.000 OA
ATOM     29  C   UNL     1       1.743   2.609  21.589  0.00  0.00    +0.000 C 
ENDBRANCH  24  28
ENDBRANCH  19  22
ENDBRANCH  13  19
ENDBRANCH   1  16
BRANCH  12  30
ATOM     30  C   UNL     1      -3.812   9.760  15.547  0.00  0.00    +0.000 C 
ATOM     31  C   UNL     1      -4.140  10.293  14.178  0.00  0.00    +0.000 C 
ATOM     32  C   UNL     1      -2.709  10.096  14.568  0.00  0.00    +0.000 C 
ENDBRANCH  12  30
BRANCH  10  33
ATOM     33  C   UNL     1      -6.191  13.620  17.727  0.00  0.00    +0.000 C 
ATOM     34  O   UNL     1      -6.886  14.037  16.805  0.00  0.00    +0.000 OA
BRANCH  33  35
ATOM     35  O   UNL     1      -5.920  14.338  18.828  0.00  0.00    +0.000 OA
ATOM     36  H   UNL     1      -5.116  14.920  18.777  0.00  0.00    +0.000 HD
ENDBRANCH  33  35
ENDBRANCH  10  33
TORSDOF 8
ENDMDL
MODEL 4
REMARK VINA RESULT:      -8.4      3.825      5.950
REMARK  Name = 
REMARK  10 active torsions:
REMARK  status: ('A' for Active; 'I' for Inactive)
REMARK    1  A    between atoms: C_1  and  O_2
REMARK    2  A    between atoms: O_2  and  C_3
REMARK    3  A    between atoms: C_5  and  C_6
REMARK    4  A    between atoms: C_6  and  N_7
REMARK    5  A    between atoms: N_10  and  C_11
REMARK    6  A    between atoms: C_20  and  C_21
REMARK    7  A    between atoms: C_21  and  O_23
REMARK    8  A    between atoms: N_25  and  C_26
REMARK    9  A    between atoms: C_32  and  O_33
REMARK   10  A    between atoms: O_33  and  C_34
REMARK                            x       y       z     vdW  Elec       q    Type
REMARK                         _______ _______ _______ _____ _____    ______ ____
ROOT
ATOM      1  C   UNL     1      -1.182  11.011  18.950  0.00  0.00    +0.000 A 
ATOM      2  C   UNL     1      -1.817  10.645  17.736  0.00  0.00    +0.000 A 
ATOM      3  C   UNL     1      -3.149  10.986  17.552  0.00  0.00    +0.000 A 
ATOM      4  C   UNL     1      -3.844  11.349  18.701  0.00  0.00    +0.000 A 
ATOM      5  C   UNL     1      -3.227  12.014  19.733  0.00  0.00    +0.000 A 
ATOM      6  C   UNL     1      -1.864  11.888  19.815  0.00  0.00    +0.000 A 
ATOM      7  F   UNL     1      -1.233  12.596  20.759  0.00  0.00    +0.000 F 
ATOM      8  C   UNL     1      -5.283  11.395  18.558  0.00  0.00    +0.000 A 
ATOM      9  O   UNL     1      -6.071  10.853  19.317  0.00  0.00    +0.000 OA
ATOM     10  C   UNL     1      -5.673  12.312  17.498  0.00  0.00    +0.000 A 
ATOM     11  C   UNL     1      -4.911  12.153  16.396  0.00  0.00    +0.000 A 
ATOM     12  N   UNL     1      -3.855  11.211  16.326  0.00  0.00    +0.000 N 
ENDROOT
BRANCH   1  16
ATOM     13  N   UNL     1       2.223   8.369  19.512  0.00  0.00    +0.000 NA
ATOM     14  C   UNL     1       2.086   9.274  18.341  0.00  0.00    +0.000 C 
ATOM     15  C   UNL     1       0.665   9.826  18.042  0.00  0.00    +0.000 C 
ATOM     16  N   UNL     1       0.056  10.413  19.278  0.00  0.00    +0.000 N 
ATOM     17  C   UNL     1       0.035   9.404  20.361  0.00  0.00    +0.000 C 
ATOM     18  C   UNL     1       1.497   8.995  20.660  0.00  0.00    +0.000 C 
BRANCH  13  19
ATOM     19  C   UNL     1       1.683   7.023  19.264  0.00  0.00    +0.000 C 
BRANCH  19  22
ATOM     20  C   UNL     1       4.483   5.349  17.239  0.00  0.00    +0.000 A 
ATOM     21  C   UNL     1       3.752   6.362  17.886  0.00  0.00    +0.000 A 
ATOM     22  C   UNL     1       2.440   6.103  18.331  0.00  0.00    +0.000 A 
ATOM     23  C   UNL     1       1.886   4.827  18.089  0.00  0.00    +0.000 A 
ATOM     24  C   UNL     1       2.646   3.807  17.548  0.00  0.00    +0.000 A 
ATOM     25  C   UNL     1       3.945   4.062  17.123  0.00  0.00    +0.000 A 
BRANCH  20  27
ATOM     26  C   UNL     1       6.721   5.757  17.851  0.00  0.00    +0.000 C 
ATOM     27  O   UNL     1       5.745   5.674  16.810  0.00  0.00    +0.000 OA
ENDBRANCH  20  27
BRANCH  24  28
ATOM     28  O   UNL     1       2.044   2.577  17.491  0.00  0.00    +0.000 OA
ATOM     29  C   UNL     1       1.287   2.239  18.653  0.00  0.00    +0.000 C 
ENDBRANCH  24  28
ENDBRANCH  19  22
ENDBRANCH  13  19
ENDBRANCH   1  16
BRANCH  12  30
ATOM     30  C   UNL     1      -3.303  10.871  15.013  0.00  0.00    +0.000 C 
ATOM     31  C   UNL     1      -2.844   9.460  14.757  0.00  0.00    +0.000 C 
ATOM     32  C   UNL     1      -4.070   9.972  14.068  0.00  0.00    +0.000 C 
ENDBRANCH  12  30
BRANCH  10  33
ATOM     33  C   UNL     1      -6.633  13.369  17.838  0.00  0.00    +0.000 C 
ATOM     34  O   UNL     1      -7.062  14.169  17.011  0.00  0.00    +0.000 OA
BRANCH  33  35
ATOM     35  O   UNL     1      -6.884  13.464  19.153  0.00  0.00    +0.000 OA
ATOM     36  H   UNL     1      -6.751  14.364  19.554  0.00  0.00    +0.000 HD
ENDBRANCH  33  35
ENDBRANCH  10  33
TORSDOF 8
ENDMDL
MODEL 5
REMARK VINA RESULT:      -8.3      4.043      6.161
REMARK  Name = 
REMARK  10 active torsions:
REMARK  status: ('A' for Active; 'I' for Inactive)
REMARK    1  A    between atoms: C_1  and  O_2
REMARK    2  A    between atoms: O_2  and  C_3
REMARK    3  A    between atoms: C_5  and  C_6
REMARK    4  A    between atoms: C_6  and  N_7
REMARK    5  A    between atoms: N_10  and  C_11
REMARK    6  A    between atoms: C_20  and  C_21
REMARK    7  A    between atoms: C_21  and  O_23
REMARK    8  A    between atoms: N_25  and  C_26
REMARK    9  A    between atoms: C_32  and  O_33
REMARK   10  A    between atoms: O_33  and  C_34
REMARK                            x       y       z     vdW  Elec       q    Type
REMARK                         _______ _______ _______ _____ _____    ______ ____
ROOT
ATOM      1  C   UNL     1      -1.278  12.257  19.802  0.00  0.00    +0.000 A 
ATOM      2  C   UNL     1      -2.663  12.088  19.549  0.00  0.00    +0.000 A 
ATOM      3  C   UNL     1      -3.570  12.462  20.530  0.00  0.00    +0.000 A 
ATOM      4  C   UNL     1      -3.041  12.646  21.803  0.00  0.00    +0.000 A 
ATOM      5  C   UNL     1      -1.771  13.139  21.988  0.00  0.00    +0.000 A 
ATOM      6  C   UNL     1      -0.898  12.993  20.940  0.00  0.00    +0.000 A 
ATOM      7  F   UNL     1       0.315  13.542  21.065  0.00  0.00    +0.000 F 
ATOM      8  C   UNL     1      -4.017  12.723  22.868  0.00  0.00    +0.000 A 
ATOM      9  O   UNL     1      -3.965  12.074  23.902  0.00  0.00    +0.000 OA
ATOM     10  C   UNL     1      -4.969  13.796  22.626  0.00  0.00    +0.000 A 
ATOM     11  C   UNL     1      -5.395  13.805  21.346  0.00  0.00    +0.000 A 
ATOM     12  N   UNL     1      -4.932  12.878  20.380  0.00  0.00    +0.000 N 
ENDROOT
BRANCH   1  16
ATOM     13  N   UNL     1       1.516   9.530  17.893  0.00  0.00    +0.000 NA
ATOM     14  C   UNL     1       0.067   9.559  17.569  0.00  0.00    +0.000 C 
ATOM     15  C   UNL     1      -0.869  10.250  18.599  0.00  0.00    +0.000 C 
ATOM     16  N   UNL     1      -0.348  11.607  18.959  0.00  0.00    +0.000 N 
ATOM     17  C   UNL     1       1.039  11.499  19.465  0.00  0.00    +0.000 C 
ATOM     18  C   UNL     1       1.914  10.901  18.336  0.00  0.00    +0.000 C 
BRANCH  13  19
ATOM     19  C   UNL     1       1.850   8.557  18.944  0.00  0.00    +0.000 C 
BRANCH  19  22
ATOM     20  C   UNL     1       2.864   4.923  18.232  0.00  0.00    +0.000 A 
ATOM     21  C   UNL     1       2.214   6.012  18.839  0.00  0.00    +0.000 A 
ATOM     22  C   UNL     1       2.643   7.326  18.562  0.00  0.00    +0.000 A 
ATOM     23  C   UNL     1       3.741   7.507  17.693  0.00  0.00    +0.000 A 
ATOM     24  C   UNL     1       4.305   6.439  17.020  0.00  0.00    +0.000 A 
ATOM     25  C   UNL     1       3.870   5.146  17.284  0.00  0.00    +0.000 A 
BRANCH  20  27
ATOM     26  C   UNL     1       1.555   3.634  19.706  0.00  0.00    +0.000 C 
ATOM     27  O   UNL     1       2.412   3.669  18.562  0.00  0.00    +0.000 OA
ENDBRANCH  20  27
BRANCH  24  28
ATOM     28  O   UNL     1       5.270   6.754  16.098  0.00  0.00    +0.000 OA
ATOM     29  C   UNL     1       5.605   5.686  15.212  0.00  0.00    +0.000 C 
ENDBRANCH  24  28
ENDBRANCH  19  22
ENDBRANCH  13  19
ENDBRANCH   1  16
BRANCH  12  30
ATOM     30  C   UNL     1      -5.673  12.744  19.124  0.00  0.00    +0.000 C 
ATOM     31  C   UNL     1      -5.912  11.367  18.562  0.00  0.00    +0.000 C 
ATOM     32  C   UNL     1      -7.064  12.147  19.116  0.00  0.00    +0.000 C 
ENDBRANCH  12  30
BRANCH  10  33
ATOM     33  C   UNL     1      -5.147  14.794  23.688  0.00  0.00    +0.000 C 
ATOM     34  O   UNL     1      -6.015  15.661  23.646  0.00  0.00    +0.000 OA
BRANCH  33  35
ATOM     35  O   UNL     1      -4.191  14.754  24.629  0.00  0.00    +0.000 OA
ATOM     36  H   UNL     1      -3.889  13.847  24.900  0.00  0.00    +0.000 HD
ENDBRANCH  33  35
ENDBRANCH  10  33
TORSDOF 8
ENDMDL
MODEL 6
REMARK VINA RESULT:      -8.2      2.298      3.617
REMARK  Name = 
REMARK  10 active torsions:
REMARK  status: ('A' for Active; 'I' for Inactive)
REMARK    1  A    between atoms: C_1  and  O_2
REMARK    2  A    between atoms: O_2  and  C_3
REMARK    3  A    between atoms: C_5  and  C_6
REMARK    4  A    between atoms: C_6  and  N_7
REMARK    5  A    between atoms: N_10  and  C_11
REMARK    6  A    between atoms: C_20  and  C_21
REMARK    7  A    between atoms: C_21  and  O_23
REMARK    8  A    between atoms: N_25  and  C_26
REMARK    9  A    between atoms: C_32  and  O_33
REMARK   10  A    between atoms: O_33  and  C_34
REMARK                            x       y       z     vdW  Elec       q    Type
REMARK                         _______ _______ _______ _____ _____    ______ ____
ROOT
ATOM      1  C   UNL     1       1.094   9.131  20.237  0.00  0.00    +0.000 A 
ATOM      2  C   UNL     1       1.056  10.267  19.388  0.00  0.00    +0.000 A 
ATOM      3  C   UNL     1       0.476  11.434  19.862  0.00  0.00    +0.000 A 
ATOM      4  C   UNL     1      -0.324  11.295  20.991  0.00  0.00    +0.000 A 
ATOM      5  C   UNL     1      -0.036  10.370  21.966  0.00  0.00    +0.000 A 
ATOM      6  C   UNL     1       0.740   9.304  21.588  0.00  0.00    +0.000 A 
ATOM      7  F   UNL     1       1.106   8.438  22.540  0.00  0.00    +0.000 F 
ATOM      8  C   UNL     1      -1.167  12.433  21.290  0.00  0.00    +0.000 A 
ATOM      9  O   UNL     1      -2.365  12.366  21.516  0.00  0.00    +0.000 OA
ATOM     10  C   UNL     1      -0.372  13.640  21.457  0.00  0.00    +0.000 A 
ATOM     11  C   UNL     1       0.568  13.756  20.495  0.00  0.00    +0.000 A 
ATOM     12  N   UNL     1       0.741  12.787  19.476  0.00  0.00    +0.000 N 
ENDROOT
BRANCH   1  16
ATOM     13  N   UNL     1       2.870   5.355  19.021  0.00  0.00    +0.000 NA
ATOM     14  C   UNL     1       1.968   5.484  20.194  0.00  0.00    +0.000 C 
ATOM     15  C   UNL     1       1.758   6.913  20.766  0.00  0.00    +0.000 C 
ATOM     16  N   UNL     1       1.394   7.870  19.674  0.00  0.00    +0.000 N 
ATOM     17  C   UNL     1       2.431   7.850  18.616  0.00  0.00    +0.000 C 
ATOM     18  C   UNL     1       2.493   6.416  18.037  0.00  0.00    +0.000 C 
BRANCH  13  19
ATOM     19  C   UNL     1       4.292   5.493  19.372  0.00  0.00    +0.000 C 
BRANCH  19  22
ATOM     20  C   UNL     1       6.099   4.420  16.159  0.00  0.00    +0.000 A 
ATOM     21  C   UNL     1       5.265   4.339  17.288  0.00  0.00    +0.000 A 
ATOM     22  C   UNL     1       5.323   5.346  18.273  0.00  0.00    +0.000 A 
ATOM     23  C   UNL     1       6.244   6.402  18.105  0.00  0.00    +0.000 A 
ATOM     24  C   UNL     1       6.984   6.529  16.944  0.00  0.00    +0.000 A 
ATOM     25  C   UNL     1       6.914   5.541  15.967  0.00  0.00    +0.000 A 
BRANCH  20  27
ATOM     26  C   UNL     1       6.172   3.798  13.888  0.00  0.00    +0.000 C 
ATOM     27  O   UNL     1       6.011   3.395  15.250  0.00  0.00    +0.000 OA
ENDBRANCH  20  27
BRANCH  24  28
ATOM     28  O   UNL     1       7.738   7.668  16.835  0.00  0.00    +0.000 OA
ATOM     29  C   UNL     1       8.107   8.249  18.086  0.00  0.00    +0.000 C 
ENDBRANCH  24  28
ENDBRANCH  19  22
ENDBRANCH  13  19
ENDBRANCH   1  16
BRANCH  12  30
ATOM     30  C   UNL     1       1.541  13.140  18.302  0.00  0.00    +0.000 C 
ATOM     31  C   UNL     1       2.262  14.462  18.280  0.00  0.00    +0.000 C 
ATOM     32  C   UNL     1       3.051  13.194  18.391  0.00  0.00    +0.000 C 
ENDBRANCH  12  30
BRANCH  10  33
ATOM     33  C   UNL     1      -0.548  14.398  22.702  0.00  0.00    +0.000 C 
ATOM     34  O   UNL     1      -0.714  13.858  23.792  0.00  0.00    +0.000 OA
BRANCH  33  35
ATOM     35  O   UNL     1      -0.650  15.723  22.513  0.00  0.00    +0.000 OA
ATOM     36  H   UNL     1      -0.039  16.286  23.060  0.00  0.00    +0.000 HD
ENDBRANCH  33  35
ENDBRANCH  10  33
TORSDOF 8
ENDMDL
MODEL 7
REMARK VINA RESULT:      -8.1      3.924      6.063
REMARK  Name = 
REMARK  10 active torsions:
REMARK  status: ('A' for Active; 'I' for Inactive)
REMARK    1  A    between atoms: C_1  and  O_2
REMARK    2  A    between atoms: O_2  and  C_3
REMARK    3  A    between atoms: C_5  and  C_6
REMARK    4  A    between atoms: C_6  and  N_7
REMARK    5  A    between atoms: N_10  and  C_11
REMARK    6  A    between atoms: C_20  and  C_21
REMARK    7  A    between atoms: C_21  and  O_23
REMARK    8  A    between atoms: N_25  and  C_26
REMARK    9  A    between atoms: C_32  and  O_33
REMARK   10  A    between atoms: O_33  and  C_34
REMARK                            x       y       z     vdW  Elec       q    Type
REMARK                         _______ _______ _______ _____ _____    ______ ____
ROOT
ATOM      1  C   UNL     1      -1.294  11.075  19.139  0.00  0.00    +0.000 A 
ATOM      2  C   UNL     1      -1.944  10.700  17.935  0.00  0.00    +0.000 A 
ATOM      3  C   UNL     1      -3.271  11.059  17.756  0.00  0.00    +0.000 A 
ATOM      4  C   UNL     1      -3.952  11.449  18.904  0.00  0.00    +0.000 A 
ATOM      5  C   UNL     1      -3.318  12.120  19.922  0.00  0.00    +0.000 A 
ATOM      6  C   UNL     1      -1.956  11.975  19.995  0.00  0.00    +0.000 A 
ATOM      7  F   UNL     1      -1.308  12.688  20.923  0.00  0.00    +0.000 F 
ATOM      8  C   UNL     1      -5.391  11.515  18.771  0.00  0.00    +0.000 A 
ATOM      9  O   UNL     1      -6.182  10.996  19.544  0.00  0.00    +0.000 OA
ATOM     10  C   UNL     1      -5.775  12.421  17.700  0.00  0.00    +0.000 A 
ATOM     11  C   UNL     1      -5.024  12.234  16.595  0.00  0.00    +0.000 A 
ATOM     12  N   UNL     1      -3.983  11.275  16.532  0.00  0.00    +0.000 N 
ENDROOT
BRANCH   1  16
ATOM     13  N   UNL     1       2.060   8.379  19.753  0.00  0.00    +0.000 NA
ATOM     14  C   UNL     1       1.915   9.226  18.541  0.00  0.00    +0.000 C 
ATOM     15  C   UNL     1       0.500   9.798  18.249  0.00  0.00    +0.000 C 
ATOM     16  N   UNL     1      -0.063  10.463  19.467  0.00  0.00    +0.000 N 
ATOM     17  C   UNL     1      -0.079   9.511  20.601  0.00  0.00    +0.000 C 
ATOM     18  C   UNL     1       1.380   9.081  20.885  0.00  0.00    +0.000 C 
BRANCH  13  19
ATOM     19  C   UNL     1       1.481   7.037  19.588  0.00  0.00    +0.000 C 
BRANCH  19  22
ATOM     20  C   UNL     1       2.917   3.476  19.497  0.00  0.00    +0.000 A 
ATOM     21  C   UNL     1       2.122   4.565  19.901  0.00  0.00    +0.000 A 
ATOM     22  C   UNL     1       2.422   5.861  19.434  0.00  0.00    +0.000 A 
ATOM     23  C   UNL     1       3.537   6.031  18.586  0.00  0.00    +0.000 A 
ATOM     24  C   UNL     1       4.248   4.944  18.110  0.00  0.00    +0.000 A 
ATOM     25  C   UNL     1       3.941   3.665  18.562  0.00  0.00    +0.000 A 
BRANCH  20  27
ATOM     26  C   UNL     1       1.888   2.291  21.253  0.00  0.00    +0.000 C 
ATOM     27  O   UNL     1       2.586   2.246  20.007  0.00  0.00    +0.000 OA
ENDBRANCH  20  27
BRANCH  24  28
ATOM     28  O   UNL     1       5.219   5.222  17.184  0.00  0.00    +0.000 OA
ATOM     29  C   UNL     1       5.263   6.588  16.771  0.00  0.00    +0.000 C 
ENDBRANCH  24  28
ENDBRANCH  19  22
ENDBRANCH  13  19
ENDBRANCH   1  16
BRANCH  12  30
ATOM     30  C   UNL     1      -3.446  10.907  15.220  0.00  0.00    +0.000 C 
ATOM     31  C   UNL     1      -2.732   9.590  15.067  0.00  0.00    +0.000 C 
ATOM     32  C   UNL     1      -4.070   9.782  14.424  0.00  0.00    +0.000 C 
ENDBRANCH  12  30
BRANCH  10  33
ATOM     33  C   UNL     1      -6.717  13.498  18.030  0.00  0.00    +0.000 C 
ATOM     34  O   UNL     1      -7.917  13.433  17.776  0.00  0.00    +0.000 OA
BRANCH  33  35
ATOM     35  O   UNL     1      -6.123  14.605  18.502  0.00  0.00    +0.000 OA
ATOM     36  H   UNL     1      -6.098  14.694  19.492  0.00  0.00    +0.000 HD
ENDBRANCH  33  35
ENDBRANCH  10  33
TORSDOF 8
ENDMDL
MODEL 8
REMARK VINA RESULT:      -8.1      2.566     10.206
REMARK  Name = 
REMARK  10 active torsions:
REMARK  status: ('A' for Active; 'I' for Inactive)
REMARK    1  A    between atoms: C_1  and  O_2
REMARK    2  A    between atoms: O_2  and  C_3
REMARK    3  A    between atoms: C_5  and  C_6
REMARK    4  A    between atoms: C_6  and  N_7
REMARK    5  A    between atoms: N_10  and  C_11
REMARK    6  A    between atoms: C_20  and  C_21
REMARK    7  A    between atoms: C_21  and  O_23
REMARK    8  A    between atoms: N_25  and  C_26
REMARK    9  A    between atoms: C_32  and  O_33
REMARK   10  A    between atoms: O_33  and  C_34
REMARK                            x       y       z     vdW  Elec       q    Type
REMARK                         _______ _______ _______ _____ _____    ______ ____
ROOT
ATOM      1  C   UNL     1       2.334   7.632  18.833  0.00  0.00    +0.000 A 
ATOM      2  C   UNL     1       2.520   6.284  19.233  0.00  0.00    +0.000 A 
ATOM      3  C   UNL     1       3.520   5.541  18.623  0.00  0.00    +0.000 A 
ATOM      4  C   UNL     1       4.024   6.064  17.437  0.00  0.00    +0.000 A 
ATOM      5  C   UNL     1       4.125   7.420  17.237  0.00  0.00    +0.000 A 
ATOM      6  C   UNL     1       3.306   8.214  17.998  0.00  0.00    +0.000 A 
ATOM      7  F   UNL     1       3.449   9.539  17.882  0.00  0.00    +0.000 F 
ATOM      8  C   UNL     1       4.823   5.148  16.653  0.00  0.00    +0.000 A 
ATOM      9  O   UNL     1       4.663   4.937  15.461  0.00  0.00    +0.000 OA
ATOM     10  C   UNL     1       5.947   4.643  17.426  0.00  0.00    +0.000 A 
ATOM     11  C   UNL     1       5.574   4.284  18.673  0.00  0.00    +0.000 A 
ATOM     12  N   UNL     1       4.244   4.418  19.141  0.00  0.00    +0.000 N 
ENDROOT
BRANCH   1  16
ATOM     13  N   UNL     1      -0.715  10.467  20.081  0.00  0.00    +0.000 NA
ATOM     14  C   UNL     1      -0.405  10.188  18.655  0.00  0.00    +0.000 C 
ATOM     15  C   UNL     1       0.958   9.507  18.351  0.00  0.00    +0.000 C 
ATOM     16  N   UNL     1       1.145   8.296  19.212  0.00  0.00    +0.000 N 
ATOM     17  C   UNL     1       1.023   8.666  20.641  0.00  0.00    +0.000 C 
ATOM     18  C   UNL     1      -0.399   9.234  20.866  0.00  0.00    +0.000 C 
BRANCH  13  19
ATOM     19  C   UNL     1       0.046  11.604  20.622  0.00  0.00    +0.000 C 
BRANCH  19  22
ATOM     20  C   UNL     1      -0.825  14.319  23.193  0.00  0.00    +0.000 A 
ATOM     21  C   UNL     1      -0.096  13.619  22.215  0.00  0.00    +0.000 A 
ATOM     22  C   UNL     1      -0.497  12.321  21.838  0.00  0.00    +0.000 A 
ATOM     23  C   UNL     1      -1.617  11.749  22.481  0.00  0.00    +0.000 A 
ATOM     24  C   UNL     1      -2.388  12.483  23.363  0.00  0.00    +0.000 A 
ATOM     25  C   UNL     1      -1.998  13.768  23.722  0.00  0.00    +0.000 A 
BRANCH  20  27
ATOM     26  C   UNL     1      -0.842  16.052  24.789  0.00  0.00    +0.000 C 
ATOM     27  O   UNL     1      -0.366  15.568  23.531  0.00  0.00    +0.000 OA
ENDBRANCH  20  27
BRANCH  24  28
ATOM     28  O   UNL     1      -3.528  11.870  23.815  0.00  0.00    +0.000 OA
ATOM     29  C   UNL     1      -4.374  12.710  24.601  0.00  0.00    +0.000 C 
ENDBRANCH  24  28
ENDBRANCH  19  22
ENDBRANCH  13  19
ENDBRANCH   1  16
BRANCH  12  30
ATOM     30  C   UNL     1       3.856   3.713  20.364  0.00  0.00    +0.000 C 
ATOM     31  C   UNL     1       2.592   2.894  20.364  0.00  0.00    +0.000 C 
ATOM     32  C   UNL     1       3.919   2.203  20.431  0.00  0.00    +0.000 C 
ENDBRANCH  12  30
BRANCH  10  33
ATOM     33  C   UNL     1       7.288   4.798  16.849  0.00  0.00    +0.000 C 
ATOM     34  O   UNL     1       8.247   4.118  17.204  0.00  0.00    +0.000 OA
BRANCH  33  35
ATOM     35  O   UNL     1       7.395   5.839  16.009  0.00  0.00    +0.000 OA
ATOM     36  H   UNL     1       7.193   5.647  15.055  0.00  0.00    +0.000 HD
ENDBRANCH  33  35
ENDBRANCH  10  33
TORSDOF 8
ENDMDL
MODEL 9
REMARK VINA RESULT:      -8.1      2.663      3.984
REMARK  Name = 
REMARK  10 active torsions:
REMARK  status: ('A' for Active; 'I' for Inactive)
REMARK    1  A    between atoms: C_1  and  O_2
REMARK    2  A    between atoms: O_2  and  C_3
REMARK    3  A    between atoms: C_5  and  C_6
REMARK    4  A    between atoms: C_6  and  N_7
REMARK    5  A    between atoms: N_10  and  C_11
REMARK    6  A    between atoms: C_20  and  C_21
REMARK    7  A    between atoms: C_21  and  O_23
REMARK    8  A    between atoms: N_25  and  C_26
REMARK    9  A    between atoms: C_32  and  O_33
REMARK   10  A    between atoms: O_33  and  C_34
REMARK                            x       y       z     vdW  Elec       q    Type
REMARK                         _______ _______ _______ _____ _____    ______ ____
ROOT
ATOM      1  C   UNL     1       0.759   9.751  20.309  0.00  0.00    +0.000 A 
ATOM      2  C   UNL     1       1.206  11.028  19.884  0.00  0.00    +0.000 A 
ATOM      3  C   UNL     1       0.648  12.157  20.466  0.00  0.00    +0.000 A 
ATOM      4  C   UNL     1      -0.540  11.954  21.160  0.00  0.00    +0.000 A 
ATOM      5  C   UNL     1      -0.780  10.787  21.845  0.00  0.00    +0.000 A 
ATOM      6  C   UNL     1      -0.068   9.685  21.446  0.00  0.00    +0.000 A 
ATOM      7  F   UNL     1      -0.221   8.560  22.155  0.00  0.00    +0.000 F 
ATOM      8  C   UNL     1      -1.273  13.158  21.488  0.00  0.00    +0.000 A 
ATOM      9  O   UNL     1      -2.461  13.326  21.265  0.00  0.00    +0.000 OA
ATOM     10  C   UNL     1      -0.453  14.069  22.271  0.00  0.00    +0.000 A 
ATOM     11  C   UNL     1       0.794  14.179  21.766  0.00  0.00    +0.000 A 
ATOM     12  N   UNL     1       1.220  13.461  20.622  0.00  0.00    +0.000 N 
ENDROOT
BRANCH   1  16
ATOM     13  N   UNL     1       2.700   6.590  18.044  0.00  0.00    +0.000 NA
ATOM     14  C   UNL     1       2.360   6.461  19.484  0.00  0.00    +0.000 C 
ATOM     15  C   UNL     1       2.079   7.777  20.261  0.00  0.00    +0.000 C 
ATOM     16  N   UNL     1       1.084   8.621  19.525  0.00  0.00    +0.000 N 
ATOM     17  C   UNL     1       1.565   8.888  18.150  0.00  0.00    +0.000 C 
ATOM     18  C   UNL     1       1.714   7.529  17.424  0.00  0.00    +0.000 C 
BRANCH  13  19
ATOM     19  C   UNL     1       4.064   7.091  17.818  0.00  0.00    +0.000 C 
BRANCH  19  22
ATOM     20  C   UNL     1       6.502   5.178  15.549  0.00  0.00    +0.000 A 
ATOM     21  C   UNL     1       5.351   5.883  15.945  0.00  0.00    +0.000 A 
ATOM     22  C   UNL     1       5.113   6.123  17.314  0.00  0.00    +0.000 A 
ATOM     23  C   UNL     1       6.036   5.621  18.256  0.00  0.00    +0.000 A 
ATOM     24  C   UNL     1       7.216   5.022  17.854  0.00  0.00    +0.000 A 
ATOM     25  C   UNL     1       7.454   4.800  16.502  0.00  0.00    +0.000 A 
BRANCH  20  27
ATOM     26  C   UNL     1       5.880   3.878  13.686  0.00  0.00    +0.000 C 
ATOM     27  O   UNL     1       6.660   4.958  14.204  0.00  0.00    +0.000 OA
ENDBRANCH  20  27
BRANCH  24  28
ATOM     28  O   UNL     1       8.097   4.703  18.854  0.00  0.00    +0.000 OA
ATOM     29  C   UNL     1       8.098   5.617  19.951  0.00  0.00    +0.000 C 
ENDBRANCH  24  28
ENDBRANCH  19  22
ENDBRANCH  13  19
ENDBRANCH   1  16
BRANCH  12  30
ATOM     30  C   UNL     1       2.454  13.876  19.952  0.00  0.00    +0.000 C 
ATOM     31  C   UNL     1       2.495  13.900  18.447  0.00  0.00    +0.000 C 
ATOM     32  C   UNL     1       2.516  15.191  19.205  0.00  0.00    +0.000 C 
ENDBRANCH  12  30
BRANCH  10  33
ATOM     33  C   UNL     1      -0.998  14.538  23.551  0.00  0.00    +0.000 C 
ATOM     34  O   UNL     1      -0.434  15.378  24.247  0.00  0.00    +0.000 OA
BRANCH  33  35
ATOM     35  O   UNL     1      -2.087  13.862  23.951  0.00  0.00    +0.000 OA
ATOM     36  H   UNL     1      -2.516  14.189  24.786  0.00  0.00    +0.000 HD
ENDBRANCH  33  35
ENDBRANCH  10  33
TORSDOF 8
ENDMDL
