MODEL 1
REMARK VINA RESULT:      -8.2      0.000      0.000
REMARK  Name = 
REMARK  6 active torsions:
REMARK  status: ('A' for Active; 'I' for Inactive)
REMARK    1  A    between atoms: S_2  and  C_4
REMARK    2  A    between atoms: S_2  and  N_11
REMARK    3  A    between atoms: C_4  and  C_5
REMARK    4  A    between atoms: N_17  and  C_18
REMARK    5  A    between atoms: C_18  and  C_19
REMARK    6  A    between atoms: C_19  and  C_20
REMARK                            x       y       z     vdW  Elec       q    Type
REMARK                         _______ _______ _______ _____ _____    ______ ____
ROOT
ATOM      1  N   UNL     1       7.151   5.252  15.539  0.00  0.00    +0.000 N 
ATOM      2  C   UNL     1       7.471   5.847  16.786  0.00  0.00    +0.000 A 
ATOM      3  C   UNL     1       7.657   5.067  17.899  0.00  0.00    +0.000 A 
ATOM      4  C   UNL     1       8.000   5.761  19.024  0.00  0.00    +0.000 A 
ATOM      5  N   UNL     1       8.133   7.096  19.053  0.00  0.00    +0.000 NA
ATOM      6  C   UNL     1       7.929   7.773  17.912  0.00  0.00    +0.000 A 
ATOM      7  N   UNL     1       8.073   9.160  17.912  0.00  0.00    +0.000 N 
ATOM      8  N   UNL     1       7.618   7.181  16.748  0.00  0.00    +0.000 NA
ATOM      9  H   UNL     1       7.455   5.860  14.776  0.00  0.00    +0.000 HD
ATOM     10  H   UNL     1       8.210   9.451  16.951  0.00  0.00    +0.000 HD
ENDROOT
BRANCH   1  12
ATOM     11  O   UNL     1       5.522   4.246  13.959  0.00  0.00    +0.000 OA
ATOM     12  S   UNL     1       5.518   4.884  15.261  0.00  0.00    +0.000 S 
ATOM     13  O   UNL     1       4.715   6.057  15.528  0.00  0.00    +0.000 OA
BRANCH  12  14
ATOM     14  C   UNL     1       5.174   3.624  16.508  0.00  0.00    +0.000 C 
BRANCH  14  15
ATOM     15  C   UNL     1       3.982   4.051  17.337  0.00  0.00    +0.000 A 
ATOM     16  C   UNL     1       4.150   4.863  18.469  0.00  0.00    +0.000 A 
ATOM     17  C   UNL     1       3.050   5.236  19.249  0.00  0.00    +0.000 A 
ATOM     18  C   UNL     1       1.771   4.804  18.907  0.00  0.00    +0.000 A 
ATOM     19  C   UNL     1       1.589   4.004  17.781  0.00  0.00    +0.000 A 
ATOM     20  C   UNL     1       2.686   3.631  16.999  0.00  0.00    +0.000 A 
ENDBRANCH  14  15
ENDBRANCH  12  14
ENDBRANCH   1  12
BRANCH   7  21
ATOM     21  C   UNL     1       9.035   9.657  18.895  0.00  0.00    +0.000 C 
BRANCH  21  22
ATOM     22  C   UNL     1       9.840  10.846  18.351  0.00  0.00    +0.000 C 
BRANCH  22  23
ATOM     23  C   UNL     1       9.952  11.962  19.371  0.00  0.00    +0.000 A 
ATOM     24  C   UNL     1      10.417  13.234  18.994  0.00  0.00    +0.000 A 
ATOM     25  C   UNL     1      10.545  14.251  19.942  0.00  0.00    +0.000 A 
ATOM     26  C   UNL     1      10.217  14.013  21.274  0.00  0.00    +0.000 A 
ATOM     27  C   UNL     1       9.758  12.757  21.660  0.00  0.00    +0.000 A 
ATOM     28  C   UNL     1       9.628  11.736  20.714  0.00  0.00    +0.000 A 
ENDBRANCH  22  23
ENDBRANCH  21  22
ENDBRANCH   7  21
TORSDOF 6
ENDMDL
MODEL 2
REMARK VINA RESULT:      -8.0      1.124      1.574
REMARK  Name = 
REMARK  6 active torsions:
REMARK  status: ('A' for Active; 'I' for Inactive)
REMARK    1  A    between atoms: S_2  and  C_4
REMARK    2  A    between atoms: S_2  and  N_11
REMARK    3  A    between atoms: C_4  and  C_5
REMARK    4  A    between atoms: N_17  and  C_18
REMARK    5  A    between atoms: C_18  and  C_19
REMARK    6  A    between atoms: C_19  and  C_20
REMARK                            x       y       z     vdW  Elec       q    Type
REMARK                         _______ _______ _______ _____ _____    ______ ____
ROOT
ATOM      1  N   UNL     1       7.176   4.689  15.627  0.00  0.00    +0.000 N 
ATOM      2  C   UNL     1       7.465   5.422  16.807  0.00  0.00    +0.000 A 
ATOM      3  C   UNL     1       7.766   4.767  17.973  0.00  0.00    +0.000 A 
ATOM      4  C   UNL     1       8.063   5.589  19.023  0.00  0.00    +0.000 A 
ATOM      5  N   UNL     1       8.051   6.928  18.933  0.00  0.00    +0.000 NA
ATOM      6  C   UNL     1       7.743   7.477  17.748  0.00  0.00    +0.000 A 
ATOM      7  N   UNL     1       7.736   8.866  17.625  0.00  0.00    +0.000 N 
ATOM      8  N   UNL     1       7.466   6.756  16.651  0.00  0.00    +0.000 NA
ATOM      9  H   UNL     1       7.390   5.257  14.805  0.00  0.00    +0.000 HD
ATOM     10  H   UNL     1       7.814   9.085  16.639  0.00  0.00    +0.000 HD
ENDROOT
BRANCH   1  12
ATOM     11  O   UNL     1       5.636   2.769  15.949  0.00  0.00    +0.000 OA
ATOM     12  S   UNL     1       5.586   4.128  15.443  0.00  0.00    +0.000 S 
ATOM     13  O   UNL     1       5.131   4.420  14.101  0.00  0.00    +0.000 OA
BRANCH  12  14
ATOM     14  C   UNL     1       4.665   5.137  16.623  0.00  0.00    +0.000 C 
BRANCH  14  15
ATOM     15  C   UNL     1       3.902   4.235  17.568  0.00  0.00    +0.000 A 
ATOM     16  C   UNL     1       2.643   3.725  17.215  0.00  0.00    +0.000 A 
ATOM     17  C   UNL     1       1.929   2.911  18.101  0.00  0.00    +0.000 A 
ATOM     18  C   UNL     1       2.464   2.596  19.347  0.00  0.00    +0.000 A 
ATOM     19  C   UNL     1       3.716   3.089  19.707  0.00  0.00    +0.000 A 
ATOM     20  C   UNL     1       4.432   3.901  18.824  0.00  0.00    +0.000 A 
ENDBRANCH  14  15
ENDBRANCH  12  14
ENDBRANCH   1  12
BRANCH   7  21
ATOM     21  C   UNL     1       8.666   9.547  18.526  0.00  0.00    +0.000 C 
BRANCH  21  22
ATOM     22  C   UNL     1       9.411  10.687  17.818  0.00  0.00    +0.000 C 
BRANCH  22  23
ATOM     23  C   UNL     1       9.880  11.745  18.797  0.00  0.00    +0.000 A 
ATOM     24  C   UNL     1       9.070  12.852  19.098  0.00  0.00    +0.000 A 
ATOM     25  C   UNL     1       9.517  13.839  19.980  0.00  0.00    +0.000 A 
ATOM     26  C   UNL     1      10.776  13.737  20.566  0.00  0.00    +0.000 A 
ATOM     27  C   UNL     1      11.590  12.646  20.272  0.00  0.00    +0.000 A 
ATOM     28  C   UNL     1      11.145  11.656  19.390  0.00  0.00    +0.000 A 
ENDBRANCH  22  23
ENDBRANCH  21  22
ENDBRANCH   7  21
TORSDOF 6
ENDMDL
MODEL 3
REMARK VINA RESULT:      -7.9      0.881      1.703
REMARK  Name = 
REMARK  6 active torsions:
REMARK  status: ('A' for Active; 'I' for Inactive)
REMARK    1  A    between atoms: S_2  and  C_4
REMARK    2  A    between atoms: S_2  and  N_11
REMARK    3  A    between atoms: C_4  and  C_5
REMARK    4  A    between atoms: N_17  and  C_18
REMARK    5  A    between atoms: C_18  and  C_19
REMARK    6  A    between atoms: C_19  and  C_20
REMARK                            x       y       z     vdW  Elec       q    Type
REMARK                         _______ _______ _______ _____ _____    ______ ____
ROOT
ATOM      1  N   UNL     1       6.973   5.390  15.849  0.00  0.00    +0.000 N 
ATOM      2  C   UNL     1       7.410   6.004  17.051  0.00  0.00    +0.000 A 
ATOM      3  C   UNL     1       7.640   5.248  18.171  0.00  0.00    +0.000 A 
ATOM      4  C   UNL     1       8.095   5.955  19.247  0.00  0.00    +0.000 A 
ATOM      5  N   UNL     1       8.291   7.283  19.224  0.00  0.00    +0.000 NA
ATOM      6  C   UNL     1       8.037   7.936  18.080  0.00  0.00    +0.000 A 
ATOM      7  N   UNL     1       8.246   9.314  18.025  0.00  0.00    +0.000 N 
ATOM      8  N   UNL     1       7.616   7.328  16.960  0.00  0.00    +0.000 NA
ATOM      9  H   UNL     1       7.249   5.962  15.048  0.00  0.00    +0.000 HD
ATOM     10  H   UNL     1       8.327   9.571  17.049  0.00  0.00    +0.000 HD
ENDROOT
BRANCH   1  12
ATOM     11  O   UNL     1       5.147   4.718  14.308  0.00  0.00    +0.000 OA
ATOM     12  S   UNL     1       5.310   5.094  15.699  0.00  0.00    +0.000 S 
ATOM     13  O   UNL     1       4.577   6.201  16.275  0.00  0.00    +0.000 OA
BRANCH  12  14
ATOM     14  C   UNL     1       5.071   3.622  16.716  0.00  0.00    +0.000 C 
BRANCH  14  15
ATOM     15  C   UNL     1       3.942   3.865  17.694  0.00  0.00    +0.000 A 
ATOM     16  C   UNL     1       2.605   3.695  17.303  0.00  0.00    +0.000 A 
ATOM     17  C   UNL     1       1.562   3.945  18.201  0.00  0.00    +0.000 A 
ATOM     18  C   UNL     1       1.841   4.364  19.499  0.00  0.00    +0.000 A 
ATOM     19  C   UNL     1       3.164   4.529  19.903  0.00  0.00    +0.000 A 
ATOM     20  C   UNL     1       4.208   4.279  19.009  0.00  0.00    +0.000 A 
ENDBRANCH  14  15
ENDBRANCH  12  14
ENDBRANCH   1  12
BRANCH   7  21
ATOM     21  C   UNL     1       9.298   9.792  18.922  0.00  0.00    +0.000 C 
BRANCH  21  22
ATOM     22  C   UNL     1       9.037  11.231  19.388  0.00  0.00    +0.000 C 
BRANCH  22  23
ATOM     23  C   UNL     1      10.197  12.149  19.056  0.00  0.00    +0.000 A 
ATOM     24  C   UNL     1      10.523  13.226  19.897  0.00  0.00    +0.000 A 
ATOM     25  C   UNL     1      11.576  14.085  19.572  0.00  0.00    +0.000 A 
ATOM     26  C   UNL     1      12.311  13.883  18.408  0.00  0.00    +0.000 A 
ATOM     27  C   UNL     1      11.996  12.821  17.565  0.00  0.00    +0.000 A 
ATOM     28  C   UNL     1      10.943  11.959  17.886  0.00  0.00    +0.000 A 
ENDBRANCH  22  23
ENDBRANCH  21  22
ENDBRANCH   7  21
TORSDOF 6
ENDMDL
MODEL 4
REMARK VINA RESULT:      -7.9      1.504      2.108
REMARK  Name = 
REMARK  6 active torsions:
REMARK  status: ('A' for Active; 'I' for Inactive)
REMARK    1  A    between atoms: S_2  and  C_4
REMARK    2  A    between atoms: S_2  and  N_11
REMARK    3  A    between atoms: C_4  and  C_5
REMARK    4  A    between atoms: N_17  and  C_18
REMARK    5  A    between atoms: C_18  and  C_19
REMARK    6  A    between atoms: C_19  and  C_20
REMARK                            x       y       z     vdW  Elec       q    Type
REMARK                         _______ _______ _______ _____ _____    ______ ____
ROOT
ATOM      1  N   UNL     1       6.924   4.770  15.904  0.00  0.00    +0.000 N 
ATOM      2  C   UNL     1       7.333   5.523  17.034  0.00  0.00    +0.000 A 
ATOM      3  C   UNL     1       7.622   4.894  18.218  0.00  0.00    +0.000 A 
ATOM      4  C   UNL     1       8.043   5.728  19.214  0.00  0.00    +0.000 A 
ATOM      5  N   UNL     1       8.154   7.057  19.061  0.00  0.00    +0.000 NA
ATOM      6  C   UNL     1       7.847   7.580  17.864  0.00  0.00    +0.000 A 
ATOM      7  N   UNL     1       7.968   8.957  17.674  0.00  0.00    +0.000 N 
ATOM      8  N   UNL     1       7.454   6.842  16.814  0.00  0.00    +0.000 NA
ATOM      9  H   UNL     1       7.154   5.277  15.047  0.00  0.00    +0.000 HD
ATOM     10  H   UNL     1       8.022   9.123  16.676  0.00  0.00    +0.000 HD
ENDROOT
BRANCH   1  12
ATOM     11  O   UNL     1       5.174   3.163  16.627  0.00  0.00    +0.000 OA
ATOM     12  S   UNL     1       5.280   4.358  15.811  0.00  0.00    +0.000 S 
ATOM     13  O   UNL     1       4.866   4.368  14.425  0.00  0.00    +0.000 OA
BRANCH  12  14
ATOM     14  C   UNL     1       4.477   5.716  16.688  0.00  0.00    +0.000 C 
BRANCH  14  15
ATOM     15  C   UNL     1       3.581   5.154  17.770  0.00  0.00    +0.000 A 
ATOM     16  C   UNL     1       2.393   4.482  17.443  0.00  0.00    +0.000 A 
ATOM     17  C   UNL     1       1.554   3.986  18.446  0.00  0.00    +0.000 A 
ATOM     18  C   UNL     1       1.892   4.153  19.786  0.00  0.00    +0.000 A 
ATOM     19  C   UNL     1       3.072   4.811  20.126  0.00  0.00    +0.000 A 
ATOM     20  C   UNL     1       3.912   5.306  19.126  0.00  0.00    +0.000 A 
ENDBRANCH  14  15
ENDBRANCH  12  14
ENDBRANCH   1  12
BRANCH   7  21
ATOM     21  C   UNL     1       8.997   9.583  18.503  0.00  0.00    +0.000 C 
BRANCH  21  22
ATOM     22  C   UNL     1       8.682  11.060  18.780  0.00  0.00    +0.000 C 
BRANCH  22  23
ATOM     23  C   UNL     1       9.765  11.975  18.243  0.00  0.00    +0.000 A 
ATOM     24  C   UNL     1      11.102  11.548  18.184  0.00  0.00    +0.000 A 
ATOM     25  C   UNL     1      12.100  12.404  17.714  0.00  0.00    +0.000 A 
ATOM     26  C   UNL     1      11.779  13.695  17.301  0.00  0.00    +0.000 A 
ATOM     27  C   UNL     1      10.458  14.131  17.357  0.00  0.00    +0.000 A 
ATOM     28  C   UNL     1       9.456  13.277  17.827  0.00  0.00    +0.000 A 
ENDBRANCH  22  23
ENDBRANCH  21  22
ENDBRANCH   7  21
TORSDOF 6
ENDMDL
MODEL 5
REMARK VINA RESULT:      -7.8      0.903      1.559
REMARK  Name = 
REMARK  6 active torsions:
REMARK  status: ('A' for Active; 'I' for Inactive)
REMARK    1  A    between atoms: S_2  and  C_4
REMARK    2  A    between atoms: S_2  and  N_11
REMARK    3  A    between atoms: C_4  and  C_5
REMARK    4  A    between atoms: N_17  and  C_18
REMARK    5  A    between atoms: C_18  and  C_19
REMARK    6  A    between atoms: C_19  and  C_20
REMARK                            x       y       z     vdW  Elec       q    Type
REMARK                         _______ _______ _______ _____ _____    ______ ____
ROOT
ATOM      1  N   UNL     1       7.144   4.725  15.662  0.00  0.00    +0.000 N 
ATOM      2  C   UNL     1       7.446   5.440  16.849  0.00  0.00    +0.000 A 
ATOM      3  C   UNL     1       7.715   4.768  18.013  0.00  0.00    +0.000 A 
ATOM      4  C   UNL     1       8.029   5.573  19.071  0.00  0.00    +0.000 A 
ATOM      5  N   UNL     1       8.061   6.913  18.991  0.00  0.00    +0.000 NA
ATOM      6  C   UNL     1       7.782   7.479  17.806  0.00  0.00    +0.000 A 
ATOM      7  N   UNL     1       7.822   8.868  17.693  0.00  0.00    +0.000 N 
ATOM      8  N   UNL     1       7.491   6.774  16.702  0.00  0.00    +0.000 NA
ATOM      9  H   UNL     1       7.384   5.291  14.845  0.00  0.00    +0.000 HD
ATOM     10  H   UNL     1       7.915   9.090  16.709  0.00  0.00    +0.000 HD
ENDROOT
BRANCH   1  12
ATOM     11  O   UNL     1       5.580   2.800  15.766  0.00  0.00    +0.000 OA
ATOM     12  S   UNL     1       5.538   4.217  15.459  0.00  0.00    +0.000 S 
ATOM     13  O   UNL     1       5.043   4.702  14.189  0.00  0.00    +0.000 OA
BRANCH  12  14
ATOM     14  C   UNL     1       4.678   5.062  16.803  0.00  0.00    +0.000 C 
BRANCH  14  15
ATOM     15  C   UNL     1       3.627   4.141  17.384  0.00  0.00    +0.000 A 
ATOM     16  C   UNL     1       2.314   4.590  17.591  0.00  0.00    +0.000 A 
ATOM     17  C   UNL     1       1.351   3.745  18.152  0.00  0.00    +0.000 A 
ATOM     18  C   UNL     1       1.687   2.442  18.509  0.00  0.00    +0.000 A 
ATOM     19  C   UNL     1       2.984   1.980  18.302  0.00  0.00    +0.000 A 
ATOM     20  C   UNL     1       3.948   2.822  17.741  0.00  0.00    +0.000 A 
ENDBRANCH  14  15
ENDBRANCH  12  14
ENDBRANCH   1  12
BRANCH   7  21
ATOM     21  C   UNL     1       8.764   9.512  18.607  0.00  0.00    +0.000 C 
BRANCH  21  22
ATOM     22  C   UNL     1       9.292  10.837  18.038  0.00  0.00    +0.000 C 
BRANCH  22  23
ATOM     23  C   UNL     1       9.638  11.822  19.137  0.00  0.00    +0.000 A 
ATOM     24  C   UNL     1       9.513  11.462  20.489  0.00  0.00    +0.000 A 
ATOM     25  C   UNL     1       9.807  12.383  21.497  0.00  0.00    +0.000 A 
ATOM     26  C   UNL     1      10.224  13.670  21.172  0.00  0.00    +0.000 A 
ATOM     27  C   UNL     1      10.350  14.040  19.836  0.00  0.00    +0.000 A 
ATOM     28  C   UNL     1      10.057  13.122  18.823  0.00  0.00    +0.000 A 
ENDBRANCH  22  23
ENDBRANCH  21  22
ENDBRANCH   7  21
TORSDOF 6
ENDMDL
MODEL 6
REMARK VINA RESULT:      -7.6      6.980      9.994
REMARK  Name = 
REMARK  6 active torsions:
REMARK  status: ('A' for Active; 'I' for Inactive)
REMARK    1  A    between atoms: S_2  and  C_4
REMARK    2  A    between atoms: S_2  and  N_11
REMARK    3  A    between atoms: C_4  and  C_5
REMARK    4  A    between atoms: N_17  and  C_18
REMARK    5  A    between atoms: C_18  and  C_19
REMARK    6  A    between atoms: C_19  and  C_20
REMARK                            x       y       z     vdW  Elec       q    Type
REMARK                         _______ _______ _______ _____ _____    ______ ____
ROOT
ATOM      1  N   UNL     1       0.751  11.758  19.933  0.00  0.00    +0.000 N 
ATOM      2  C   UNL     1       1.162  10.490  19.448  0.00  0.00    +0.000 A 
ATOM      3  C   UNL     1       1.639  10.359  18.169  0.00  0.00    +0.000 A 
ATOM      4  C   UNL     1       2.037   9.094  17.841  0.00  0.00    +0.000 A 
ATOM      5  N   UNL     1       1.961   8.057  18.689  0.00  0.00    +0.000 NA
ATOM      6  C   UNL     1       1.479   8.285  19.920  0.00  0.00    +0.000 A 
ATOM      7  N   UNL     1       1.401   7.226  20.824  0.00  0.00    +0.000 N 
ATOM      8  N   UNL     1       1.090   9.496  20.348  0.00  0.00    +0.000 NA
ATOM      9  H   UNL     1       0.834  11.782  20.952  0.00  0.00    +0.000 HD
ATOM     10  H   UNL     1       1.341   7.624  21.754  0.00  0.00    +0.000 HD
ENDROOT
BRANCH   1  12
ATOM     11  O   UNL     1      -0.686  12.890  18.255  0.00  0.00    +0.000 OA
ATOM     12  S   UNL     1      -0.826  12.251  19.550  0.00  0.00    +0.000 S 
ATOM     13  O   UNL     1      -1.393  12.951  20.683  0.00  0.00    +0.000 OA
BRANCH  12  14
ATOM     14  C   UNL     1      -1.691  10.684  19.317  0.00  0.00    +0.000 C 
BRANCH  14  15
ATOM     15  C   UNL     1      -2.433  10.711  17.998  0.00  0.00    +0.000 A 
ATOM     16  C   UNL     1      -3.617  11.450  17.855  0.00  0.00    +0.000 A 
ATOM     17  C   UNL     1      -4.314  11.454  16.643  0.00  0.00    +0.000 A 
ATOM     18  C   UNL     1      -3.837  10.722  15.559  0.00  0.00    +0.000 A 
ATOM     19  C   UNL     1      -2.658   9.990  15.684  0.00  0.00    +0.000 A 
ATOM     20  C   UNL     1      -1.959   9.985  16.894  0.00  0.00    +0.000 A 
ENDBRANCH  14  15
ENDBRANCH  12  14
ENDBRANCH   1  12
BRANCH   7  21
ATOM     21  C   UNL     1       2.413   6.191  20.615  0.00  0.00    +0.000 C 
BRANCH  21  22
ATOM     22  C   UNL     1       1.831   4.782  20.803  0.00  0.00    +0.000 C 
BRANCH  22  23
ATOM     23  C   UNL     1       2.199   3.864  19.654  0.00  0.00    +0.000 A 
ATOM     24  C   UNL     1       2.865   2.650  19.891  0.00  0.00    +0.000 A 
ATOM     25  C   UNL     1       3.227   1.821  18.827  0.00  0.00    +0.000 A 
ATOM     26  C   UNL     1       2.934   2.192  17.518  0.00  0.00    +0.000 A 
ATOM     27  C   UNL     1       2.277   3.394  17.270  0.00  0.00    +0.000 A 
ATOM     28  C   UNL     1       1.913   4.227  18.332  0.00  0.00    +0.000 A 
ENDBRANCH  22  23
ENDBRANCH  21  22
ENDBRANCH   7  21
TORSDOF 6
ENDMDL
MODEL 7
REMARK VINA RESULT:      -7.6      5.281      8.157
REMARK  Name = 
REMARK  6 active torsions:
REMARK  status: ('A' for Active; 'I' for Inactive)
REMARK    1  A    between atoms: S_2  and  C_4
REMARK    2  A    between atoms: S_2  and  N_11
REMARK    3  A    between atoms: C_4  and  C_5
REMARK    4  A    between atoms: N_17  and  C_18
REMARK    5  A    between atoms: C_18  and  C_19
REMARK    6  A    between atoms: C_19  and  C_20
REMARK                            x       y       z     vdW  Elec       q    Type
REMARK                         _______ _______ _______ _____ _____    ______ ____
ROOT
ATOM      1  N   UNL     1       3.245   3.241  18.577  0.00  0.00    +0.000 N 
ATOM      2  C   UNL     1       4.389   3.935  18.106  0.00  0.00    +0.000 A 
ATOM      3  C   UNL     1       5.322   4.413  18.990  0.00  0.00    +0.000 A 
ATOM      4  C   UNL     1       6.393   5.026  18.405  0.00  0.00    +0.000 A 
ATOM      5  N   UNL     1       6.525   5.164  17.076  0.00  0.00    +0.000 NA
ATOM      6  C   UNL     1       5.558   4.663  16.293  0.00  0.00    +0.000 A 
ATOM      7  N   UNL     1       5.677   4.782  14.908  0.00  0.00    +0.000 N 
ATOM      8  N   UNL     1       4.482   4.018  16.769  0.00  0.00    +0.000 NA
ATOM      9  H   UNL     1       2.898   2.611  17.851  0.00  0.00    +0.000 HD
ATOM     10  H   UNL     1       5.067   4.090  14.490  0.00  0.00    +0.000 HD
ENDROOT
BRANCH   1  12
ATOM     11  O   UNL     1       1.186   3.304  19.964  0.00  0.00    +0.000 OA
ATOM     12  S   UNL     1       1.930   4.186  19.085  0.00  0.00    +0.000 S 
ATOM     13  O   UNL     1       1.313   4.800  17.929  0.00  0.00    +0.000 OA
BRANCH  12  14
ATOM     14  C   UNL     1       2.717   5.460  20.093  0.00  0.00    +0.000 C 
BRANCH  14  15
ATOM     15  C   UNL     1       2.380   6.824  19.532  0.00  0.00    +0.000 A 
ATOM     16  C   UNL     1       1.612   7.736  20.272  0.00  0.00    +0.000 A 
ATOM     17  C   UNL     1       1.280   8.986  19.741  0.00  0.00    +0.000 A 
ATOM     18  C   UNL     1       1.713   9.342  18.466  0.00  0.00    +0.000 A 
ATOM     19  C   UNL     1       2.483   8.450  17.723  0.00  0.00    +0.000 A 
ATOM     20  C   UNL     1       2.817   7.201  18.252  0.00  0.00    +0.000 A 
ENDBRANCH  14  15
ENDBRANCH  12  14
ENDBRANCH   1  12
BRANCH   7  21
ATOM     21  C   UNL     1       7.060   4.817  14.432  0.00  0.00    +0.000 C 
BRANCH  21  22
ATOM     22  C   UNL     1       7.131   4.929  12.902  0.00  0.00    +0.000 C 
BRANCH  22  23
ATOM     23  C   UNL     1       6.679   3.651  12.223  0.00  0.00    +0.000 A 
ATOM     24  C   UNL     1       7.619   2.737  11.719  0.00  0.00    +0.000 A 
ATOM     25  C   UNL     1       7.199   1.574  11.070  0.00  0.00    +0.000 A 
ATOM     26  C   UNL     1       5.841   1.311  10.911  0.00  0.00    +0.000 A 
ATOM     27  C   UNL     1       4.900   2.211  11.404  0.00  0.00    +0.000 A 
ATOM     28  C   UNL     1       5.316   3.377  12.055  0.00  0.00    +0.000 A 
ENDBRANCH  22  23
ENDBRANCH  21  22
ENDBRANCH   7  21
TORSDOF 6
ENDMDL
MODEL 8
REMARK VINA RESULT:      -7.5      1.647      2.030
REMARK  Name = 
REMARK  6 active torsions:
REMARK  status: ('A' for Active; 'I' for Inactive)
REMARK    1  A    between atoms: S_2  and  C_4
REMARK    2  A    between atoms: S_2  and  N_11
REMARK    3  A    between atoms: C_4  and  C_5
REMARK    4  A    between atoms: N_17  and  C_18
REMARK    5  A    between atoms: C_18  and  C_19
REMARK    6  A    between atoms: C_19  and  C_20
REMARK                            x       y       z     vdW  Elec       q    Type
REMARK                         _______ _______ _______ _____ _____    ______ ____
ROOT
ATOM      1  N   UNL     1       6.108   4.933  16.402  0.00  0.00    +0.000 N 
ATOM      2  C   UNL     1       6.862   5.709  17.319  0.00  0.00    +0.000 A 
ATOM      3  C   UNL     1       7.430   5.122  18.420  0.00  0.00    +0.000 A 
ATOM      4  C   UNL     1       8.162   5.972  19.200  0.00  0.00    +0.000 A 
ATOM      5  N   UNL     1       8.308   7.278  18.926  0.00  0.00    +0.000 NA
ATOM      6  C   UNL     1       7.712   7.760  17.825  0.00  0.00    +0.000 A 
ATOM      7  N   UNL     1       7.858   9.111  17.511  0.00  0.00    +0.000 N 
ATOM      8  N   UNL     1       6.997   7.001  16.980  0.00  0.00    +0.000 NA
ATOM      9  H   UNL     1       6.121   5.375  15.480  0.00  0.00    +0.000 HD
ATOM     10  H   UNL     1       7.642   9.220  16.527  0.00  0.00    +0.000 HD
ENDROOT
BRANCH   1  12
ATOM     11  O   UNL     1       3.991   3.853  15.683  0.00  0.00    +0.000 OA
ATOM     12  S   UNL     1       4.482   4.648  16.793  0.00  0.00    +0.000 S 
ATOM     13  O   UNL     1       3.857   5.898  17.164  0.00  0.00    +0.000 OA
BRANCH  12  14
ATOM     14  C   UNL     1       4.600   3.581  18.244  0.00  0.00    +0.000 C 
BRANCH  14  15
ATOM     15  C   UNL     1       3.255   3.525  18.937  0.00  0.00    +0.000 A 
ATOM     16  C   UNL     1       3.023   4.253  20.114  0.00  0.00    +0.000 A 
ATOM     17  C   UNL     1       1.788   4.181  20.766  0.00  0.00    +0.000 A 
ATOM     18  C   UNL     1       0.770   3.382  20.250  0.00  0.00    +0.000 A 
ATOM     19  C   UNL     1       0.985   2.660  19.078  0.00  0.00    +0.000 A 
ATOM     20  C   UNL     1       2.217   2.732  18.424  0.00  0.00    +0.000 A 
ENDBRANCH  14  15
ENDBRANCH  12  14
ENDBRANCH   1  12
BRANCH   7  21
ATOM     21  C   UNL     1       9.114   9.697  17.978  0.00  0.00    +0.000 C 
BRANCH  21  22
ATOM     22  C   UNL     1       8.877  10.990  18.771  0.00  0.00    +0.000 C 
BRANCH  22  23
ATOM     23  C   UNL     1       9.722  12.134  18.246  0.00  0.00    +0.000 A 
ATOM     24  C   UNL     1       9.254  13.458  18.306  0.00  0.00    +0.000 A 
ATOM     25  C   UNL     1      10.025  14.505  17.796  0.00  0.00    +0.000 A 
ATOM     26  C   UNL     1      11.265  14.247  17.219  0.00  0.00    +0.000 A 
ATOM     27  C   UNL     1      11.738  12.939  17.152  0.00  0.00    +0.000 A 
ATOM     28  C   UNL     1      10.971  11.888  17.661  0.00  0.00    +0.000 A 
ENDBRANCH  22  23
ENDBRANCH  21  22
ENDBRANCH   7  21
TORSDOF 6
ENDMDL
MODEL 9
REMARK VINA RESULT:      -7.5      1.695      2.157
REMARK  Name = 
REMARK  6 active torsions:
REMARK  status: ('A' for Active; 'I' for Inactive)
REMARK    1  A    between atoms: S_2  and  C_4
REMARK    2  A    between atoms: S_2  and  N_11
REMARK    3  A    between atoms: C_4  and  C_5
REMARK    4  A    between atoms: N_17  and  C_18
REMARK    5  A    between atoms: C_18  and  C_19
REMARK    6  A    between atoms: C_19  and  C_20
REMARK                            x       y       z     vdW  Elec       q    Type
REMARK                         _______ _______ _______ _____ _____    ______ ____
ROOT
ATOM      1  N   UNL     1       5.851   4.620  16.562  0.00  0.00    +0.000 N 
ATOM      2  C   UNL     1       6.654   5.436  17.400  0.00  0.00    +0.000 A 
ATOM      3  C   UNL     1       7.279   4.899  18.496  0.00  0.00    +0.000 A 
ATOM      4  C   UNL     1       8.054   5.781  19.193  0.00  0.00    +0.000 A 
ATOM      5  N   UNL     1       8.188   7.072  18.850  0.00  0.00    +0.000 NA
ATOM      6  C   UNL     1       7.536   7.504  17.760  0.00  0.00    +0.000 A 
ATOM      7  N   UNL     1       7.669   8.837  17.374  0.00  0.00    +0.000 N 
ATOM      8  N   UNL     1       6.775   6.709  16.992  0.00  0.00    +0.000 NA
ATOM      9  H   UNL     1       5.816   5.017  15.621  0.00  0.00    +0.000 HD
ATOM     10  H   UNL     1       7.401   8.900  16.399  0.00  0.00    +0.000 HD
ENDROOT
BRANCH   1  12
ATOM     11  O   UNL     1       3.624   3.747  15.896  0.00  0.00    +0.000 OA
ATOM     12  S   UNL     1       4.247   4.363  17.053  0.00  0.00    +0.000 S 
ATOM     13  O   UNL     1       3.727   5.581  17.634  0.00  0.00    +0.000 OA
BRANCH  12  14
ATOM     14  C   UNL     1       4.418   3.108  18.339  0.00  0.00    +0.000 C 
BRANCH  14  15
ATOM     15  C   UNL     1       3.165   3.085  19.188  0.00  0.00    +0.000 A 
ATOM     16  C   UNL     1       1.953   2.608  18.666  0.00  0.00    +0.000 A 
ATOM     17  C   UNL     1       0.790   2.612  19.444  0.00  0.00    +0.000 A 
ATOM     18  C   UNL     1       0.825   3.090  20.752  0.00  0.00    +0.000 A 
ATOM     19  C   UNL     1       2.023   3.559  21.285  0.00  0.00    +0.000 A 
ATOM     20  C   UNL     1       3.186   3.555  20.511  0.00  0.00    +0.000 A 
ENDBRANCH  14  15
ENDBRANCH  12  14
ENDBRANCH   1  12
BRANCH   7  21
ATOM     21  C   UNL     1       8.950   9.438  17.745  0.00  0.00    +0.000 C 
BRANCH  21  22
ATOM     22  C   UNL     1       8.781  10.509  18.832  0.00  0.00    +0.000 C 
BRANCH  22  23
ATOM     23  C   UNL     1      10.014  11.382  18.957  0.00  0.00    +0.000 A 
ATOM     24  C   UNL     1      10.799  11.681  17.831  0.00  0.00    +0.000 A 
ATOM     25  C   UNL     1      11.949  12.463  17.956  0.00  0.00    +0.000 A 
ATOM     26  C   UNL     1      12.333  12.952  19.202  0.00  0.00    +0.000 A 
ATOM     27  C   UNL     1      11.565  12.660  20.326  0.00  0.00    +0.000 A 
ATOM     28  C   UNL     1      10.413  11.877  20.205  0.00  0.00    +0.000 A 
ENDBRANCH  22  23
ENDBRANCH  21  22
ENDBRANCH   7  21
TORSDOF 6
ENDMDL
