MODEL 1
REMARK VINA RESULT:      -8.6      0.000      0.000
REMARK  Name = 
REMARK  6 active torsions:
REMARK  status: ('A' for Active; 'I' for Inactive)
REMARK    1  A    between atoms: N_1  and  C_2
REMARK    2  A    between atoms: C_5  and  C_6
REMARK    3  A    between atoms: C_13  and  C_14
REMARK    4  A    between atoms: C_17  and  C_18
REMARK    5  A    between atoms: N_20  and  C_21
REMARK    6  A    between atoms: C_21  and  C_22
REMARK                            x       y       z     vdW  Elec       q    Type
REMARK                         _______ _______ _______ _____ _____    ______ ____
ROOT
ATOM      1  C   UNL     1       6.876   6.809  17.704  0.00  0.00    +0.000 A 
ATOM      2  C   UNL     1       6.730   8.081  17.118  0.00  0.00    +0.000 A 
ATOM      3  C   UNL     1       7.536   9.163  17.490  0.00  0.00    +0.000 A 
ATOM      4  C   UNL     1       8.505   9.007  18.484  0.00  0.00    +0.000 A 
ATOM      5  C   UNL     1       8.659   7.762  19.092  0.00  0.00    +0.000 A 
ATOM      6  C   UNL     1       7.881   6.676  18.680  0.00  0.00    +0.000 A 
ENDROOT
BRANCH   1  12
ATOM      7  C   UNL     1       6.378   4.721  16.294  0.00  0.00    +0.000 A 
ATOM      8  N   UNL     1       5.575   3.712  15.898  0.00  0.00    +0.000 NA
ATOM      9  C   UNL     1       4.375   3.578  16.504  0.00  0.00    +0.000 A 
ATOM     10  C   UNL     1       3.923   4.411  17.514  0.00  0.00    +0.000 A 
ATOM     11  C   UNL     1       4.777   5.453  17.895  0.00  0.00    +0.000 A 
ATOM     12  C   UNL     1       6.030   5.656  17.289  0.00  0.00    +0.000 A 
BRANCH  10  13
ATOM     13  C   UNL     1       2.575   4.205  18.170  0.00  0.00    +0.000 C 
ATOM     14  C   UNL     1       2.582   4.657  19.640  0.00  0.00    +0.000 C 
ATOM     15  C   UNL     1       1.269   4.306  20.324  0.00  0.00    +0.000 C 
ATOM     16  O   UNL     1       0.996   2.910  20.200  0.00  0.00    +0.000 OA
ATOM     17  C   UNL     1       0.829   2.517  18.840  0.00  0.00    +0.000 C 
ATOM     18  C   UNL     1       2.116   2.741  18.059  0.00  0.00    +0.000 C 
ENDBRANCH  10  13
BRANCH   7  19
ATOM     19  N   UNL     1       7.589   4.767  15.600  0.00  0.00    +0.000 N 
ATOM     20  H   UNL     1       7.361   4.767  14.612  0.00  0.00    +0.000 HD
ATOM     21  H   UNL     1       8.186   3.991  15.860  0.00  0.00    +0.000 HD
ENDBRANCH   7  19
ENDBRANCH   1  12
BRANCH   4  22
ATOM     22  C   UNL     1       9.310  10.187  18.892  0.00  0.00    +0.000 C 
ATOM     23  O   UNL     1       9.577  10.365  20.076  0.00  0.00    +0.000 OA
ATOM     24  N   UNL     1       9.689  11.044  17.878  0.00  0.00    +0.000 N 
ATOM     25  H   UNL     1       9.328  10.924  16.945  0.00  0.00    +0.000 HD
BRANCH  24  26
ATOM     26  C   UNL     1      10.464  12.229  18.145  0.00  0.00    +0.000 C 
BRANCH  26  27
ATOM     27  C   UNL     1       9.629  13.474  17.996  0.00  0.00    +0.000 A 
ATOM     28  C   UNL     1      10.248  14.734  17.945  0.00  0.00    +0.000 A 
ATOM     29  C   UNL     1       9.483  15.899  17.861  0.00  0.00    +0.000 A 
ATOM     30  C   UNL     1       8.092  15.818  17.814  0.00  0.00    +0.000 A 
ATOM     31  C   UNL     1       7.472  14.568  17.831  0.00  0.00    +0.000 A 
ATOM     32 CL   UNL     1       5.756  14.468  17.768  0.00  0.00    +0.000 Cl
ATOM     33  C   UNL     1       8.232  13.400  17.910  0.00  0.00    +0.000 A 
ENDBRANCH  26  27
ENDBRANCH  24  26
ENDBRANCH   4  22
TORSDOF 6
ENDMDL
MODEL 2
REMARK VINA RESULT:      -8.4      5.889     10.242
REMARK  Name = 
REMARK  6 active torsions:
REMARK  status: ('A' for Active; 'I' for Inactive)
REMARK    1  A    between atoms: N_1  and  C_2
REMARK    2  A    between atoms: C_5  and  C_6
REMARK    3  A    between atoms: C_13  and  C_14
REMARK    4  A    between atoms: C_17  and  C_18
REMARK    5  A    between atoms: N_20  and  C_21
REMARK    6  A    between atoms: C_21  and  C_22
REMARK                            x       y       z     vdW  Elec       q    Type
REMARK                         _______ _______ _______ _____ _____    ______ ____
ROOT
ATOM      1  C   UNL     1       1.117   9.993  19.021  0.00  0.00    +0.000 A 
ATOM      2  C   UNL     1       1.703   9.424  17.875  0.00  0.00    +0.000 A 
ATOM      3  C   UNL     1       2.263   8.142  17.889  0.00  0.00    +0.000 A 
ATOM      4  C   UNL     1       2.271   7.393  19.069  0.00  0.00    +0.000 A 
ATOM      5  C   UNL     1       1.711   7.940  20.224  0.00  0.00    +0.000 A 
ATOM      6  C   UNL     1       1.112   9.202  20.186  0.00  0.00    +0.000 A 
ENDROOT
BRANCH   1  12
ATOM      7  C   UNL     1      -0.878  11.604  18.874  0.00  0.00    +0.000 A 
ATOM      8  N   UNL     1      -1.409  12.843  18.802  0.00  0.00    +0.000 NA
ATOM      9  C   UNL     1      -0.570  13.899  18.866  0.00  0.00    +0.000 A 
ATOM     10  C   UNL     1       0.803  13.788  19.012  0.00  0.00    +0.000 A 
ATOM     11  C   UNL     1       1.322  12.489  19.075  0.00  0.00    +0.000 A 
ATOM     12  C   UNL     1       0.503  11.349  18.994  0.00  0.00    +0.000 A 
BRANCH  10  13
ATOM     13  C   UNL     1       1.694  15.008  19.096  0.00  0.00    +0.000 C 
ATOM     14  C   UNL     1       0.949  16.288  18.679  0.00  0.00    +0.000 C 
ATOM     15  C   UNL     1       1.897  17.477  18.626  0.00  0.00    +0.000 C 
ATOM     16  O   UNL     1       3.000  17.200  17.763  0.00  0.00    +0.000 OA
ATOM     17  C   UNL     1       3.790  16.112  18.236  0.00  0.00    +0.000 C 
ATOM     18  C   UNL     1       2.970  14.829  18.255  0.00  0.00    +0.000 C 
ENDBRANCH  10  13
BRANCH   7  19
ATOM     19  N   UNL     1      -1.833  10.589  18.794  0.00  0.00    +0.000 N 
ATOM     20  H   UNL     1      -1.326   9.710  18.775  0.00  0.00    +0.000 HD
ATOM     21  H   UNL     1      -2.427  10.711  17.983  0.00  0.00    +0.000 HD
ENDBRANCH   7  19
ENDBRANCH   1  12
BRANCH   4  22
ATOM     22  C   UNL     1       2.918   6.056  19.066  0.00  0.00    +0.000 C 
ATOM     23  O   UNL     1       3.417   5.615  20.096  0.00  0.00    +0.000 OA
ATOM     24  N   UNL     1       2.938   5.394  17.854  0.00  0.00    +0.000 N 
ATOM     25  H   UNL     1       2.637   5.859  17.012  0.00  0.00    +0.000 HD
BRANCH  24  26
ATOM     26  C   UNL     1       3.543   4.094  17.717  0.00  0.00    +0.000 C 
BRANCH  26  27
ATOM     27  C   UNL     1       4.880   4.183  17.027  0.00  0.00    +0.000 A 
ATOM     28  C   UNL     1       6.033   4.495  17.765  0.00  0.00    +0.000 A 
ATOM     29  C   UNL     1       7.269   4.633  17.129  0.00  0.00    +0.000 A 
ATOM     30  C   UNL     1       7.368   4.446  15.751  0.00  0.00    +0.000 A 
ATOM     31  C   UNL     1       6.233   4.102  15.017  0.00  0.00    +0.000 A 
ATOM     32 CL   UNL     1       6.357   3.867  13.318  0.00  0.00    +0.000 Cl
ATOM     33  C   UNL     1       4.996   3.959  15.648  0.00  0.00    +0.000 A 
ENDBRANCH  26  27
ENDBRANCH  24  26
ENDBRANCH   4  22
TORSDOF 6
ENDMDL
MODEL 3
REMARK VINA RESULT:      -8.4      6.283      9.039
REMARK  Name = 
REMARK  6 active torsions:
REMARK  status: ('A' for Active; 'I' for Inactive)
REMARK    1  A    between atoms: N_1  and  C_2
REMARK    2  A    between atoms: C_5  and  C_6
REMARK    3  A    between atoms: C_13  and  C_14
REMARK    4  A    between atoms: C_17  and  C_18
REMARK    5  A    between atoms: N_20  and  C_21
REMARK    6  A    between atoms: C_21  and  C_22
REMARK                            x       y       z     vdW  Elec       q    Type
REMARK                         _______ _______ _______ _____ _____    ______ ____
ROOT
ATOM      1  C   UNL     1       1.834   8.277  18.952  0.00  0.00    +0.000 A 
ATOM      2  C   UNL     1       2.683   8.357  17.832  0.00  0.00    +0.000 A 
ATOM      3  C   UNL     1       3.627   7.364  17.548  0.00  0.00    +0.000 A 
ATOM      4  C   UNL     1       3.764   6.263  18.398  0.00  0.00    +0.000 A 
ATOM      5  C   UNL     1       2.947   6.169  19.524  0.00  0.00    +0.000 A 
ATOM      6  C   UNL     1       1.975   7.141  19.771  0.00  0.00    +0.000 A 
ENDROOT
BRANCH   1  12
ATOM      7  C   UNL     1       0.648   9.967  20.480  0.00  0.00    +0.000 A 
ATOM      8  N   UNL     1      -0.314  10.880  20.730  0.00  0.00    +0.000 NA
ATOM      9  C   UNL     1      -1.152  11.213  19.726  0.00  0.00    +0.000 A 
ATOM     10  C   UNL     1      -1.079  10.679  18.449  0.00  0.00    +0.000 A 
ATOM     11  C   UNL     1      -0.075   9.729  18.226  0.00  0.00    +0.000 A 
ATOM     12  C   UNL     1       0.816   9.326  19.237  0.00  0.00    +0.000 A 
BRANCH  10  13
ATOM     13  C   UNL     1      -2.035  11.101  17.356  0.00  0.00    +0.000 C 
ATOM     14  C   UNL     1      -3.443  11.382  17.907  0.00  0.00    +0.000 C 
ATOM     15  C   UNL     1      -4.425  11.659  16.778  0.00  0.00    +0.000 C 
ATOM     16  O   UNL     1      -4.427  10.583  15.840  0.00  0.00    +0.000 OA
ATOM     17  C   UNL     1      -3.161  10.424  15.206  0.00  0.00    +0.000 C 
ATOM     18  C   UNL     1      -2.095  10.055  16.230  0.00  0.00    +0.000 C 
ENDBRANCH  10  13
BRANCH   7  19
ATOM     19  N   UNL     1       1.454   9.697  21.588  0.00  0.00    +0.000 N 
ATOM     20  H   UNL     1       0.994   8.960  22.113  0.00  0.00    +0.000 HD
ATOM     21  H   UNL     1       1.603  10.531  22.142  0.00  0.00    +0.000 HD
ENDBRANCH   7  19
ENDBRANCH   1  12
BRANCH   4  22
ATOM     22  C   UNL     1       4.811   5.252  18.098  0.00  0.00    +0.000 C 
ATOM     23  O   UNL     1       5.419   4.710  19.015  0.00  0.00    +0.000 OA
ATOM     24  N   UNL     1       5.053   5.006  16.761  0.00  0.00    +0.000 N 
ATOM     25  H   UNL     1       4.622   5.577  16.050  0.00  0.00    +0.000 HD
BRANCH  24  26
ATOM     26  C   UNL     1       6.048   4.054  16.339  0.00  0.00    +0.000 C 
BRANCH  26  27
ATOM     27  C   UNL     1       6.316   4.163  14.860  0.00  0.00    +0.000 A 
ATOM     28  C   UNL     1       7.398   4.928  14.395  0.00  0.00    +0.000 A 
ATOM     29  C   UNL     1       7.626   5.080  13.026  0.00  0.00    +0.000 A 
ATOM     30  C   UNL     1       6.783   4.457  12.106  0.00  0.00    +0.000 A 
ATOM     31  C   UNL     1       5.727   3.668  12.561  0.00  0.00    +0.000 A 
ATOM     32 CL   UNL     1       4.691   2.895  11.426  0.00  0.00    +0.000 Cl
ATOM     33  C   UNL     1       5.498   3.509  13.928  0.00  0.00    +0.000 A 
ENDBRANCH  26  27
ENDBRANCH  24  26
ENDBRANCH   4  22
TORSDOF 6
ENDMDL
MODEL 4
REMARK VINA RESULT:      -8.4      2.500      2.650
REMARK  Name = 
REMARK  6 active torsions:
REMARK  status: ('A' for Active; 'I' for Inactive)
REMARK    1  A    between atoms: N_1  and  C_2
REMARK    2  A    between atoms: C_5  and  C_6
REMARK    3  A    between atoms: C_13  and  C_14
REMARK    4  A    between atoms: C_17  and  C_18
REMARK    5  A    between atoms: N_20  and  C_21
REMARK    6  A    between atoms: C_21  and  C_22
REMARK                            x       y       z     vdW  Elec       q    Type
REMARK                         _______ _______ _______ _____ _____    ______ ____
ROOT
ATOM      1  C   UNL     1       6.871   6.829  17.694  0.00  0.00    +0.000 A 
ATOM      2  C   UNL     1       6.683   8.094  17.105  0.00  0.00    +0.000 A 
ATOM      3  C   UNL     1       7.475   9.195  17.449  0.00  0.00    +0.000 A 
ATOM      4  C   UNL     1       8.474   9.065  18.416  0.00  0.00    +0.000 A 
ATOM      5  C   UNL     1       8.671   7.827  19.028  0.00  0.00    +0.000 A 
ATOM      6  C   UNL     1       7.906   6.723  18.642  0.00  0.00    +0.000 A 
ENDROOT
BRANCH   1  12
ATOM      7  C   UNL     1       6.409   4.688  16.353  0.00  0.00    +0.000 A 
ATOM      8  N   UNL     1       5.617   3.659  15.983  0.00  0.00    +0.000 NA
ATOM      9  C   UNL     1       4.410   3.540  16.574  0.00  0.00    +0.000 A 
ATOM     10  C   UNL     1       3.937   4.406  17.546  0.00  0.00    +0.000 A 
ATOM     11  C   UNL     1       4.779   5.467  17.902  0.00  0.00    +0.000 A 
ATOM     12  C   UNL     1       6.039   5.656  17.308  0.00  0.00    +0.000 A 
BRANCH  10  13
ATOM     13  C   UNL     1       2.580   4.215  18.189  0.00  0.00    +0.000 C 
ATOM     14  C   UNL     1       2.574   4.676  19.656  0.00  0.00    +0.000 C 
ATOM     15  C   UNL     1       1.251   4.341  20.327  0.00  0.00    +0.000 C 
ATOM     16  O   UNL     1       0.969   2.946  20.209  0.00  0.00    +0.000 OA
ATOM     17  C   UNL     1       0.813   2.545  18.850  0.00  0.00    +0.000 C 
ATOM     18  C   UNL     1       2.111   2.754  18.081  0.00  0.00    +0.000 C 
ENDBRANCH  10  13
BRANCH   7  19
ATOM     19  N   UNL     1       7.630   4.716  15.677  0.00  0.00    +0.000 N 
ATOM     20  H   UNL     1       8.322   4.319  16.305  0.00  0.00    +0.000 HD
ATOM     21  H   UNL     1       7.864   5.658  15.388  0.00  0.00    +0.000 HD
ENDBRANCH   7  19
ENDBRANCH   1  12
BRANCH   4  22
ATOM     22  C   UNL     1       9.265  10.264  18.796  0.00  0.00    +0.000 C 
ATOM     23  O   UNL     1       9.675  11.027  17.928  0.00  0.00    +0.000 OA
ATOM     24  N   UNL     1       9.515  10.426  20.145  0.00  0.00    +0.000 N 
ATOM     25  H   UNL     1       9.272   9.699  20.800  0.00  0.00    +0.000 HD
BRANCH  24  26
ATOM     26  C   UNL     1      10.276  11.542  20.640  0.00  0.00    +0.000 C 
BRANCH  26  27
ATOM     27  C   UNL     1       9.463  12.380  21.593  0.00  0.00    +0.000 A 
ATOM     28  C   UNL     1       9.768  13.739  21.772  0.00  0.00    +0.000 A 
ATOM     29  C   UNL     1       9.056  14.513  22.691  0.00  0.00    +0.000 A 
ATOM     30  C   UNL     1       8.023  13.941  23.432  0.00  0.00    +0.000 A 
ATOM     31  C   UNL     1       7.693  12.600  23.234  0.00  0.00    +0.000 A 
ATOM     32 CL   UNL     1       6.414  11.896  24.145  0.00  0.00    +0.000 Cl
ATOM     33  C   UNL     1       8.398  11.823  22.314  0.00  0.00    +0.000 A 
ENDBRANCH  26  27
ENDBRANCH  24  26
ENDBRANCH   4  22
TORSDOF 6
ENDMDL
MODEL 5
REMARK VINA RESULT:      -8.4      2.710      3.015
REMARK  Name = 
REMARK  6 active torsions:
REMARK  status: ('A' for Active; 'I' for Inactive)
REMARK    1  A    between atoms: N_1  and  C_2
REMARK    2  A    between atoms: C_5  and  C_6
REMARK    3  A    between atoms: C_13  and  C_14
REMARK    4  A    between atoms: C_17  and  C_18
REMARK    5  A    between atoms: N_20  and  C_21
REMARK    6  A    between atoms: C_21  and  C_22
REMARK                            x       y       z     vdW  Elec       q    Type
REMARK                         _______ _______ _______ _____ _____    ______ ____
ROOT
ATOM      1  C   UNL     1       7.016   6.811  17.742  0.00  0.00    +0.000 A 
ATOM      2  C   UNL     1       6.806   8.058  17.122  0.00  0.00    +0.000 A 
ATOM      3  C   UNL     1       7.562   9.187  17.457  0.00  0.00    +0.000 A 
ATOM      4  C   UNL     1       8.544   9.104  18.447  0.00  0.00    +0.000 A 
ATOM      5  C   UNL     1       8.762   7.885  19.088  0.00  0.00    +0.000 A 
ATOM      6  C   UNL     1       8.034   6.753  18.712  0.00  0.00    +0.000 A 
ENDROOT
BRANCH   1  12
ATOM      7  C   UNL     1       6.381   4.885  16.166  0.00  0.00    +0.000 A 
ATOM      8  N   UNL     1       5.618   3.826  15.823  0.00  0.00    +0.000 NA
ATOM      9  C   UNL     1       4.661   3.425  16.687  0.00  0.00    +0.000 A 
ATOM     10  C   UNL     1       4.420   4.029  17.909  0.00  0.00    +0.000 A 
ATOM     11  C   UNL     1       5.224   5.130  18.231  0.00  0.00    +0.000 A 
ATOM     12  C   UNL     1       6.224   5.608  17.365  0.00  0.00    +0.000 A 
BRANCH  10  13
ATOM     13  C   UNL     1       3.345   3.526  18.846  0.00  0.00    +0.000 C 
ATOM     14  C   UNL     1       2.060   3.148  18.089  0.00  0.00    +0.000 C 
ATOM     15  C   UNL     1       0.943   2.788  19.057  0.00  0.00    +0.000 C 
ATOM     16  O   UNL     1       0.719   3.851  19.983  0.00  0.00    +0.000 OA
ATOM     17  C   UNL     1       1.860   4.097  20.801  0.00  0.00    +0.000 C 
ATOM     18  C   UNL     1       3.037   4.554  19.949  0.00  0.00    +0.000 C 
ENDBRANCH  10  13
BRANCH   7  19
ATOM     19  N   UNL     1       7.334   5.214  15.201  0.00  0.00    +0.000 N 
ATOM     20  H   UNL     1       7.906   5.955  15.594  0.00  0.00    +0.000 HD
ATOM     21  H   UNL     1       6.892   5.487  14.331  0.00  0.00    +0.000 HD
ENDBRANCH   7  19
ENDBRANCH   1  12
BRANCH   4  22
ATOM     22  C   UNL     1       9.295  10.332  18.816  0.00  0.00    +0.000 C 
ATOM     23  O   UNL     1       9.833  11.006  17.943  0.00  0.00    +0.000 OA
ATOM     24  N   UNL     1       9.360  10.623  20.164  0.00  0.00    +0.000 N 
ATOM     25  H   UNL     1       9.018   9.965  20.846  0.00  0.00    +0.000 HD
BRANCH  24  26
ATOM     26  C   UNL     1      10.064  11.781  20.651  0.00  0.00    +0.000 C 
BRANCH  26  27
ATOM     27  C   UNL     1       9.315  12.444  21.778  0.00  0.00    +0.000 A 
ATOM     28  C   UNL     1       9.502  13.811  22.038  0.00  0.00    +0.000 A 
ATOM     29  C   UNL     1       8.854  14.425  23.112  0.00  0.00    +0.000 A 
ATOM     30  C   UNL     1       8.002  13.684  23.929  0.00  0.00    +0.000 A 
ATOM     31  C   UNL     1       7.786  12.333  23.655  0.00  0.00    +0.000 A 
ATOM     32 CL   UNL     1       6.730  11.419  24.660  0.00  0.00    +0.000 Cl
ATOM     33  C   UNL     1       8.427  11.715  22.581  0.00  0.00    +0.000 A 
ENDBRANCH  26  27
ENDBRANCH  24  26
ENDBRANCH   4  22
TORSDOF 6
ENDMDL
MODEL 6
REMARK VINA RESULT:      -8.3      6.762      9.827
REMARK  Name = 
REMARK  6 active torsions:
REMARK  status: ('A' for Active; 'I' for Inactive)
REMARK    1  A    between atoms: N_1  and  C_2
REMARK    2  A    between atoms: C_5  and  C_6
REMARK    3  A    between atoms: C_13  and  C_14
REMARK    4  A    between atoms: C_17  and  C_18
REMARK    5  A    between atoms: N_20  and  C_21
REMARK    6  A    between atoms: C_21  and  C_22
REMARK                            x       y       z     vdW  Elec       q    Type
REMARK                         _______ _______ _______ _____ _____    ______ ____
ROOT
ATOM      1  C   UNL     1       0.991  10.040  19.448  0.00  0.00    +0.000 A 
ATOM      2  C   UNL     1       1.054   9.193  20.571  0.00  0.00    +0.000 A 
ATOM      3  C   UNL     1       1.628   7.919  20.504  0.00  0.00    +0.000 A 
ATOM      4  C   UNL     1       2.140   7.443  19.294  0.00  0.00    +0.000 A 
ATOM      5  C   UNL     1       2.075   8.256  18.162  0.00  0.00    +0.000 A 
ATOM      6  C   UNL     1       1.543   9.545  18.252  0.00  0.00    +0.000 A 
ENDROOT
BRANCH   1  12
ATOM      7  C   UNL     1       0.840  12.518  18.790  0.00  0.00    +0.000 A 
ATOM      8  N   UNL     1       0.321  13.758  18.917  0.00  0.00    +0.000 NA
ATOM      9  C   UNL     1      -0.693  13.937  19.792  0.00  0.00    +0.000 A 
ATOM     10  C   UNL     1      -1.238  12.922  20.560  0.00  0.00    +0.000 A 
ATOM     11  C   UNL     1      -0.671  11.650  20.411  0.00  0.00    +0.000 A 
ATOM     12  C   UNL     1       0.398  11.405  19.531  0.00  0.00    +0.000 A 
BRANCH  10  13
ATOM     13  C   UNL     1      -2.386  13.176  21.513  0.00  0.00    +0.000 C 
ATOM     14  C   UNL     1      -2.302  12.278  22.759  0.00  0.00    +0.000 C 
ATOM     15  C   UNL     1      -3.538  12.439  23.631  0.00  0.00    +0.000 C 
ATOM     16  O   UNL     1      -4.722  12.187  22.874  0.00  0.00    +0.000 OA
ATOM     17  C   UNL     1      -4.887  13.123  21.811  0.00  0.00    +0.000 C 
ATOM     18  C   UNL     1      -3.744  13.002  20.813  0.00  0.00    +0.000 C 
ENDBRANCH  10  13
BRANCH   7  19
ATOM     19  N   UNL     1       1.882  12.449  17.863  0.00  0.00    +0.000 N 
ATOM     20  H   UNL     1       2.425  13.300  17.969  0.00  0.00    +0.000 HD
ATOM     21  H   UNL     1       1.525  12.332  16.923  0.00  0.00    +0.000 HD
ENDBRANCH   7  19
ENDBRANCH   1  12
BRANCH   4  22
ATOM     22  C   UNL     1       2.696   6.067  19.243  0.00  0.00    +0.000 C 
ATOM     23  O   UNL     1       2.922   5.459  20.284  0.00  0.00    +0.000 OA
ATOM     24  N   UNL     1       2.955   5.562  17.984  0.00  0.00    +0.000 N 
ATOM     25  H   UNL     1       2.879   6.152  17.171  0.00  0.00    +0.000 HD
BRANCH  24  26
ATOM     26  C   UNL     1       3.503   4.243  17.800  0.00  0.00    +0.000 C 
BRANCH  26  27
ATOM     27  C   UNL     1       4.851   4.299  17.129  0.00  0.00    +0.000 A 
ATOM     28  C   UNL     1       6.001   4.585  17.882  0.00  0.00    +0.000 A 
ATOM     29  C   UNL     1       7.248   4.692  17.264  0.00  0.00    +0.000 A 
ATOM     30  C   UNL     1       7.362   4.501  15.888  0.00  0.00    +0.000 A 
ATOM     31  C   UNL     1       6.229   4.183  15.139  0.00  0.00    +0.000 A 
ATOM     32 CL   UNL     1       6.372   3.942  13.441  0.00  0.00    +0.000 Cl
ATOM     33  C   UNL     1       4.981   4.070  15.752  0.00  0.00    +0.000 A 
ENDBRANCH  26  27
ENDBRANCH  24  26
ENDBRANCH   4  22
TORSDOF 6
ENDMDL
MODEL 7
REMARK VINA RESULT:      -8.3      1.000      1.595
REMARK  Name = 
REMARK  6 active torsions:
REMARK  status: ('A' for Active; 'I' for Inactive)
REMARK    1  A    between atoms: N_1  and  C_2
REMARK    2  A    between atoms: C_5  and  C_6
REMARK    3  A    between atoms: C_13  and  C_14
REMARK    4  A    between atoms: C_17  and  C_18
REMARK    5  A    between atoms: N_20  and  C_21
REMARK    6  A    between atoms: C_21  and  C_22
REMARK                            x       y       z     vdW  Elec       q    Type
REMARK                         _______ _______ _______ _____ _____    ______ ____
ROOT
ATOM      1  C   UNL     1       6.880   6.786  17.718  0.00  0.00    +0.000 A 
ATOM      2  C   UNL     1       7.913   6.694  18.670  0.00  0.00    +0.000 A 
ATOM      3  C   UNL     1       8.673   7.807  19.046  0.00  0.00    +0.000 A 
ATOM      4  C   UNL     1       8.431   9.052  18.459  0.00  0.00    +0.000 A 
ATOM      5  C   UNL     1       7.424   9.167  17.501  0.00  0.00    +0.000 A 
ATOM      6  C   UNL     1       6.640   8.059  17.168  0.00  0.00    +0.000 A 
ENDROOT
BRANCH   1  12
ATOM      7  C   UNL     1       6.453   4.618  16.408  0.00  0.00    +0.000 A 
ATOM      8  N   UNL     1       5.673   3.580  16.041  0.00  0.00    +0.000 NA
ATOM      9  C   UNL     1       4.455   3.465  16.612  0.00  0.00    +0.000 A 
ATOM     10  C   UNL     1       3.960   4.346  17.559  0.00  0.00    +0.000 A 
ATOM     11  C   UNL     1       4.790   5.418  17.911  0.00  0.00    +0.000 A 
ATOM     12  C   UNL     1       6.061   5.602  17.338  0.00  0.00    +0.000 A 
BRANCH  10  13
ATOM     13  C   UNL     1       2.592   4.160  18.178  0.00  0.00    +0.000 C 
ATOM     14  C   UNL     1       2.567   4.610  19.649  0.00  0.00    +0.000 C 
ATOM     15  C   UNL     1       1.231   4.278  20.297  0.00  0.00    +0.000 C 
ATOM     16  O   UNL     1       0.940   2.887  20.163  0.00  0.00    +0.000 OA
ATOM     17  C   UNL     1       0.802   2.498  18.799  0.00  0.00    +0.000 C 
ATOM     18  C   UNL     1       2.113   2.704  18.052  0.00  0.00    +0.000 C 
ENDBRANCH  10  13
BRANCH   7  19
ATOM     19  N   UNL     1       7.687   4.640  15.755  0.00  0.00    +0.000 N 
ATOM     20  H   UNL     1       8.104   5.545  15.947  0.00  0.00    +0.000 HD
ATOM     21  H   UNL     1       7.577   4.468  14.763  0.00  0.00    +0.000 HD
ENDBRANCH   7  19
ENDBRANCH   1  12
BRANCH   4  22
ATOM     22  C   UNL     1       9.288  10.204  18.842  0.00  0.00    +0.000 C 
ATOM     23  O   UNL     1       9.584  10.382  20.020  0.00  0.00    +0.000 OA
ATOM     24  N   UNL     1       9.681  11.038  17.815  0.00  0.00    +0.000 N 
ATOM     25  H   UNL     1       9.298  10.924  16.889  0.00  0.00    +0.000 HD
BRANCH  24  26
ATOM     26  C   UNL     1      10.505  12.193  18.056  0.00  0.00    +0.000 C 
BRANCH  26  27
ATOM     27  C   UNL     1       9.694  13.463  18.016  0.00  0.00    +0.000 A 
ATOM     28  C   UNL     1       8.298  13.402  17.885  0.00  0.00    +0.000 A 
ATOM     29  C   UNL     1       7.540  14.571  17.792  0.00  0.00    +0.000 A 
ATOM     30  C   UNL     1       8.168  15.815  17.844  0.00  0.00    +0.000 A 
ATOM     31  C   UNL     1       9.552  15.883  18.009  0.00  0.00    +0.000 A 
ATOM     32 CL   UNL     1      10.326  17.417  18.078  0.00  0.00    +0.000 Cl
ATOM     33  C   UNL     1      10.313  14.717  18.106  0.00  0.00    +0.000 A 
ENDBRANCH  26  27
ENDBRANCH  24  26
ENDBRANCH   4  22
TORSDOF 6
ENDMDL
MODEL 8
REMARK VINA RESULT:      -8.3      5.817      8.422
REMARK  Name = 
REMARK  6 active torsions:
REMARK  status: ('A' for Active; 'I' for Inactive)
REMARK    1  A    between atoms: N_1  and  C_2
REMARK    2  A    between atoms: C_5  and  C_6
REMARK    3  A    between atoms: C_13  and  C_14
REMARK    4  A    between atoms: C_17  and  C_18
REMARK    5  A    between atoms: N_20  and  C_21
REMARK    6  A    between atoms: C_21  and  C_22
REMARK                            x       y       z     vdW  Elec       q    Type
REMARK                         _______ _______ _______ _____ _____    ______ ____
ROOT
ATOM      1  C   UNL     1       3.896   6.654  18.053  0.00  0.00    +0.000 A 
ATOM      2  C   UNL     1       3.468   7.861  17.471  0.00  0.00    +0.000 A 
ATOM      3  C   UNL     1       2.458   8.642  18.044  0.00  0.00    +0.000 A 
ATOM      4  C   UNL     1       1.827   8.221  19.217  0.00  0.00    +0.000 A 
ATOM      5  C   UNL     1       2.221   7.020  19.807  0.00  0.00    +0.000 A 
ATOM      6  C   UNL     1       3.263   6.272  19.252  0.00  0.00    +0.000 A 
ENDROOT
BRANCH   1  12
ATOM      7  C   UNL     1       6.026   5.224  18.175  0.00  0.00    +0.000 A 
ATOM      8  N   UNL     1       7.033   4.530  17.603  0.00  0.00    +0.000 NA
ATOM      9  C   UNL     1       7.032   4.401  16.259  0.00  0.00    +0.000 A 
ATOM     10  C   UNL     1       6.056   4.930  15.432  0.00  0.00    +0.000 A 
ATOM     11  C   UNL     1       5.031   5.652  16.057  0.00  0.00    +0.000 A 
ATOM     12  C   UNL     1       4.986   5.838  17.450  0.00  0.00    +0.000 A 
BRANCH  10  13
ATOM     13  C   UNL     1       6.096   4.739  13.932  0.00  0.00    +0.000 C 
ATOM     14  C   UNL     1       5.546   3.365  13.517  0.00  0.00    +0.000 C 
ATOM     15  C   UNL     1       5.731   3.130  12.025  0.00  0.00    +0.000 C 
ATOM     16  O   UNL     1       7.103   3.285  11.661  0.00  0.00    +0.000 OA
ATOM     17  C   UNL     1       7.573   4.610  11.894  0.00  0.00    +0.000 C 
ATOM     18  C   UNL     1       7.518   4.939  13.380  0.00  0.00    +0.000 C 
ENDBRANCH  10  13
BRANCH   7  19
ATOM     19  N   UNL     1       6.128   5.298  19.566  0.00  0.00    +0.000 N 
ATOM     20  H   UNL     1       5.383   5.910  19.883  0.00  0.00    +0.000 HD
ATOM     21  H   UNL     1       7.044   5.625  19.847  0.00  0.00    +0.000 HD
ENDBRANCH   7  19
ENDBRANCH   1  12
BRANCH   4  22
ATOM     22  C   UNL     1       0.724   9.046  19.774  0.00  0.00    +0.000 C 
ATOM     23  O   UNL     1       0.394   8.915  20.949  0.00  0.00    +0.000 OA
ATOM     24  N   UNL     1       0.108   9.912  18.893  0.00  0.00    +0.000 N 
ATOM     25  H   UNL     1       0.327   9.881  17.909  0.00  0.00    +0.000 HD
BRANCH  24  26
ATOM     26  C   UNL     1      -0.980  10.760  19.307  0.00  0.00    +0.000 C 
BRANCH  26  27
ATOM     27  C   UNL     1      -2.082  10.776  18.280  0.00  0.00    +0.000 A 
ATOM     28  C   UNL     1      -1.949  10.040  17.092  0.00  0.00    +0.000 A 
ATOM     29  C   UNL     1      -2.940  10.090  16.109  0.00  0.00    +0.000 A 
ATOM     30  C   UNL     1      -4.081  10.865  16.309  0.00  0.00    +0.000 A 
ATOM     31  C   UNL     1      -4.235  11.572  17.501  0.00  0.00    +0.000 A 
ATOM     32 CL   UNL     1      -5.647  12.525  17.749  0.00  0.00    +0.000 Cl
ATOM     33  C   UNL     1      -3.251  11.523  18.488  0.00  0.00    +0.000 A 
ENDBRANCH  26  27
ENDBRANCH  24  26
ENDBRANCH   4  22
TORSDOF 6
ENDMDL
MODEL 9
REMARK VINA RESULT:      -8.3      6.826      9.654
REMARK  Name = 
REMARK  6 active torsions:
REMARK  status: ('A' for Active; 'I' for Inactive)
REMARK    1  A    between atoms: N_1  and  C_2
REMARK    2  A    between atoms: C_5  and  C_6
REMARK    3  A    between atoms: C_13  and  C_14
REMARK    4  A    between atoms: C_17  and  C_18
REMARK    5  A    between atoms: N_20  and  C_21
REMARK    6  A    between atoms: C_21  and  C_22
REMARK                            x       y       z     vdW  Elec       q    Type
REMARK                         _______ _______ _______ _____ _____    ______ ____
ROOT
ATOM      1  C   UNL     1       1.028   9.459  19.122  0.00  0.00    +0.000 A 
ATOM      2  C   UNL     1       1.675   9.102  17.923  0.00  0.00    +0.000 A 
ATOM      3  C   UNL     1       2.454   7.944  17.820  0.00  0.00    +0.000 A 
ATOM      4  C   UNL     1       2.626   7.114  18.931  0.00  0.00    +0.000 A 
ATOM      5  C   UNL     1       2.010   7.453  20.135  0.00  0.00    +0.000 A 
ATOM      6  C   UNL     1       1.196   8.586  20.213  0.00  0.00    +0.000 A 
ENDROOT
BRANCH   1  12
ATOM      7  C   UNL     1       0.663  11.967  19.538  0.00  0.00    +0.000 A 
ATOM      8  N   UNL     1      -0.129  13.052  19.670  0.00  0.00    +0.000 NA
ATOM      9  C   UNL     1      -1.455  12.901  19.465  0.00  0.00    +0.000 A 
ATOM     10  C   UNL     1      -2.051  11.700  19.120  0.00  0.00    +0.000 A 
ATOM     11  C   UNL     1      -1.203  10.592  19.000  0.00  0.00    +0.000 A 
ATOM     12  C   UNL     1       0.183  10.681  19.219  0.00  0.00    +0.000 A 
BRANCH  10  13
ATOM     13  C   UNL     1      -3.542  11.592  18.886  0.00  0.00    +0.000 C 
ATOM     14  C   UNL     1      -3.892  11.674  17.390  0.00  0.00    +0.000 C 
ATOM     15  C   UNL     1      -5.398  11.714  17.184  0.00  0.00    +0.000 C 
ATOM     16  O   UNL     1      -5.977  12.789  17.924  0.00  0.00    +0.000 OA
ATOM     17  C   UNL     1      -5.794  12.631  19.329  0.00  0.00    +0.000 C 
ATOM     18  C   UNL     1      -4.312  12.661  19.679  0.00  0.00    +0.000 C 
ENDBRANCH  10  13
BRANCH   7  19
ATOM     19  N   UNL     1       2.013  12.236  19.774  0.00  0.00    +0.000 N 
ATOM     20  H   UNL     1       2.286  11.683  20.580  0.00  0.00    +0.000 HD
ATOM     21  H   UNL     1       2.167  13.227  19.916  0.00  0.00    +0.000 HD
ENDBRANCH   7  19
ENDBRANCH   1  12
BRANCH   4  22
ATOM     22  C   UNL     1       3.500   5.919  18.804  0.00  0.00    +0.000 C 
ATOM     23  O   UNL     1       4.359   5.696  19.651  0.00  0.00    +0.000 OA
ATOM     24  N   UNL     1       3.295   5.132  17.688  0.00  0.00    +0.000 N 
ATOM     25  H   UNL     1       2.671   5.434  16.956  0.00  0.00    +0.000 HD
BRANCH  24  26
ATOM     26  C   UNL     1       4.083   3.951  17.445  0.00  0.00    +0.000 C 
BRANCH  26  27
ATOM     27  C   UNL     1       5.177   4.219  16.444  0.00  0.00    +0.000 A 
ATOM     28  C   UNL     1       6.324   4.932  16.829  0.00  0.00    +0.000 A 
ATOM     29  C   UNL     1       7.320   5.232  15.898  0.00  0.00    +0.000 A 
ATOM     30  C   UNL     1       7.188   4.812  14.576  0.00  0.00    +0.000 A 
ATOM     31  C   UNL     1       6.068   4.074  14.195  0.00  0.00    +0.000 A 
ATOM     32 CL   UNL     1       5.908   3.551  12.563  0.00  0.00    +0.000 Cl
ATOM     33  C   UNL     1       5.071   3.767  15.121  0.00  0.00    +0.000 A 
ENDBRANCH  26  27
ENDBRANCH  24  26
ENDBRANCH   4  22
TORSDOF 6
ENDMDL
