MODEL 1
REMARK VINA RESULT:      -8.2      0.000      0.000
REMARK  Name = 
REMARK  7 active torsions:
REMARK  status: ('A' for Active; 'I' for Inactive)
REMARK    1  A    between atoms: C_1  and  C_2
REMARK    2  A    between atoms: C_4  and  C_5
REMARK    3  A    between atoms: C_6  and  S_7
REMARK    4  A    between atoms: S_7  and  N_10
REMARK    5  A    between atoms: C_13  and  S_14
REMARK    6  A    between atoms: S_14  and  C_15
REMARK    7  A    between atoms: C_29  and  C_30
REMARK                            x       y       z     vdW  Elec       q    Type
REMARK                         _______ _______ _______ _____ _____    ______ ____
ROOT
ATOM      1  N   UNL     1       2.023   8.023  19.542  0.00  0.00    +0.000 NA
ATOM      2  C   UNL     1       2.620   6.930  19.149  0.00  0.00    +0.000 C 
ATOM      3  C   UNL     1       3.664   7.101  18.096  0.00  0.00    +0.000 C 
ATOM      4  C   UNL     1       4.735   6.294  18.027  0.00  0.00    +0.000 C 
ATOM      5  C   UNL     1       4.874   5.156  18.985  0.00  0.00    +0.000 C 
ATOM      6  O   UNL     1       5.930   4.569  19.186  0.00  0.00    +0.000 OA
ATOM      7  C   UNL     1       3.646   4.743  19.707  0.00  0.00    +0.000 A 
ATOM      8  C   UNL     1       3.630   3.528  20.406  0.00  0.00    +0.000 A 
ATOM      9  C   UNL     1       2.466   3.103  21.048  0.00  0.00    +0.000 A 
ATOM     10  C   UNL     1       1.296   3.837  20.906  0.00  0.00    +0.000 A 
ATOM     11  C   UNL     1       1.306   5.028  20.182  0.00  0.00    +0.000 A 
ATOM     12  C   UNL     1       2.504   5.546  19.680  0.00  0.00    +0.000 A 
ENDROOT
BRANCH   1  13
ATOM     13  S   UNL     1       1.104   8.127  20.885  0.00  0.00    +0.000 S 
ATOM     14  O   UNL     1       1.977   8.010  22.035  0.00  0.00    +0.000 OA
ATOM     15  O   UNL     1      -0.056   7.278  20.721  0.00  0.00    +0.000 OA
BRANCH  13  21
ATOM     16  C   UNL     1      -2.295  13.102  20.716  0.00  0.00    +0.000 C 
ATOM     17  C   UNL     1      -1.245  12.028  20.799  0.00  0.00    +0.000 A 
ATOM     18  C   UNL     1      -1.065  11.348  22.014  0.00  0.00    +0.000 A 
ATOM     19  C   UNL     1      -0.223  10.230  22.110  0.00  0.00    +0.000 A 
ATOM     20  C   UNL     1      -0.132   9.526  23.437  0.00  0.00    +0.000 C 
ATOM     21  C   UNL     1       0.415   9.778  20.938  0.00  0.00    +0.000 A 
ATOM     22  C   UNL     1       0.341  10.521  19.754  0.00  0.00    +0.000 A 
ATOM     23  C   UNL     1      -0.471  11.664  19.683  0.00  0.00    +0.000 A 
ATOM     24  C   UNL     1      -0.558  12.427  18.390  0.00  0.00    +0.000 C 
ENDBRANCH  13  21
ENDBRANCH   1  13
BRANCH   4  25
ATOM     25  S   UNL     1       6.102   6.747  17.063  0.00  0.00    +0.000 S 
BRANCH  25  26
ATOM     26  C   UNL     1       6.133   5.502  15.845  0.00  0.00    +0.000 A 
ATOM     27  N   UNL     1       5.134   4.596  15.585  0.00  0.00    +0.000 NA
ATOM     28  C   UNL     1       5.620   3.899  14.577  0.00  0.00    +0.000 A 
ATOM     29  N   UNL     1       6.835   4.395  14.224  0.00  0.00    +0.000 N 
ATOM     30  N   UNL     1       7.177   5.429  15.003  0.00  0.00    +0.000 NA
ATOM     31  H   UNL     1       7.462   4.097  13.484  0.00  0.00    +0.000 HD
ENDBRANCH  25  26
ENDBRANCH   4  25
TORSDOF 4
ENDMDL
MODEL 2
REMARK VINA RESULT:      -8.1      4.354      8.774
REMARK  Name = 
REMARK  7 active torsions:
REMARK  status: ('A' for Active; 'I' for Inactive)
REMARK    1  A    between atoms: C_1  and  C_2
REMARK    2  A    between atoms: C_4  and  C_5
REMARK    3  A    between atoms: C_6  and  S_7
REMARK    4  A    between atoms: S_7  and  N_10
REMARK    5  A    between atoms: C_13  and  S_14
REMARK    6  A    between atoms: S_14  and  C_15
REMARK    7  A    between atoms: C_29  and  C_30
REMARK                            x       y       z     vdW  Elec       q    Type
REMARK                         _______ _______ _______ _____ _____    ______ ____
ROOT
ATOM      1  N   UNL     1      -0.530  10.578  19.645  0.00  0.00    +0.000 NA
ATOM      2  C   UNL     1      -1.466  11.471  19.827  0.00  0.00    +0.000 C 
ATOM      3  C   UNL     1      -2.411  11.665  18.689  0.00  0.00    +0.000 C 
ATOM      4  C   UNL     1      -3.692  12.017  18.889  0.00  0.00    +0.000 C 
ATOM      5  C   UNL     1      -4.187  12.279  20.273  0.00  0.00    +0.000 C 
ATOM      6  O   UNL     1      -5.375  12.310  20.571  0.00  0.00    +0.000 OA
ATOM      7  C   UNL     1      -3.156  12.514  21.312  0.00  0.00    +0.000 A 
ATOM      8  C   UNL     1      -3.535  13.030  22.560  0.00  0.00    +0.000 A 
ATOM      9  C   UNL     1      -2.569  13.304  23.529  0.00  0.00    +0.000 A 
ATOM     10  C   UNL     1      -1.223  13.160  23.219  0.00  0.00    +0.000 A 
ATOM     11  C   UNL     1      -0.847  12.678  21.966  0.00  0.00    +0.000 A 
ATOM     12  C   UNL     1      -1.811  12.242  21.052  0.00  0.00    +0.000 A 
ENDROOT
BRANCH   1  13
ATOM     13  S   UNL     1       0.395   9.971  20.842  0.00  0.00    +0.000 S 
ATOM     14  O   UNL     1      -0.480   9.326  21.800  0.00  0.00    +0.000 OA
ATOM     15  O   UNL     1       1.356  10.975  21.244  0.00  0.00    +0.000 OA
BRANCH  13  21
ATOM     16  C   UNL     1       2.704   5.199  17.971  0.00  0.00    +0.000 C 
ATOM     17  C   UNL     1       2.372   6.418  18.788  0.00  0.00    +0.000 A 
ATOM     18  C   UNL     1       2.374   7.675  18.163  0.00  0.00    +0.000 A 
ATOM     19  C   UNL     1       1.913   8.823  18.826  0.00  0.00    +0.000 A 
ATOM     20  C   UNL     1       1.897  10.119  18.062  0.00  0.00    +0.000 C 
ATOM     21  C   UNL     1       1.409   8.676  20.132  0.00  0.00    +0.000 A 
ATOM     22  C   UNL     1       1.518   7.454  20.807  0.00  0.00    +0.000 A 
ATOM     23  C   UNL     1       2.022   6.323  20.147  0.00  0.00    +0.000 A 
ATOM     24  C   UNL     1       2.100   5.014  20.883  0.00  0.00    +0.000 C 
ENDBRANCH  13  21
ENDBRANCH   1  13
BRANCH   4  25
ATOM     25  S   UNL     1      -4.846  11.854  17.605  0.00  0.00    +0.000 S 
BRANCH  25  26
ATOM     26  C   UNL     1      -3.967  10.920  16.425  0.00  0.00    +0.000 A 
ATOM     27  N   UNL     1      -3.626  11.327  15.159  0.00  0.00    +0.000 NA
ATOM     28  C   UNL     1      -2.962  10.292  14.684  0.00  0.00    +0.000 A 
ATOM     29  N   UNL     1      -2.873   9.330  15.639  0.00  0.00    +0.000 N 
ATOM     30  N   UNL     1      -3.489   9.712  16.765  0.00  0.00    +0.000 NA
ATOM     31  H   UNL     1      -2.418   8.424  15.600  0.00  0.00    +0.000 HD
ENDBRANCH  25  26
ENDBRANCH   4  25
TORSDOF 4
ENDMDL
MODEL 3
REMARK VINA RESULT:      -7.9      1.611      1.980
REMARK  Name = 
REMARK  7 active torsions:
REMARK  status: ('A' for Active; 'I' for Inactive)
REMARK    1  A    between atoms: C_1  and  C_2
REMARK    2  A    between atoms: C_4  and  C_5
REMARK    3  A    between atoms: C_6  and  S_7
REMARK    4  A    between atoms: S_7  and  N_10
REMARK    5  A    between atoms: C_13  and  S_14
REMARK    6  A    between atoms: S_14  and  C_15
REMARK    7  A    between atoms: C_29  and  C_30
REMARK                            x       y       z     vdW  Elec       q    Type
REMARK                         _______ _______ _______ _____ _____    ______ ____
ROOT
ATOM      1  N   UNL     1       2.065   7.755  19.341  0.00  0.00    +0.000 NA
ATOM      2  C   UNL     1       2.538   6.597  18.963  0.00  0.00    +0.000 C 
ATOM      3  C   UNL     1       3.428   6.617  17.766  0.00  0.00    +0.000 C 
ATOM      4  C   UNL     1       4.432   5.736  17.620  0.00  0.00    +0.000 C 
ATOM      5  C   UNL     1       4.642   4.667  18.642  0.00  0.00    +0.000 C 
ATOM      6  O   UNL     1       5.681   4.027  18.745  0.00  0.00    +0.000 OA
ATOM      7  C   UNL     1       3.509   4.395  19.558  0.00  0.00    +0.000 A 
ATOM      8  C   UNL     1       3.524   3.240  20.354  0.00  0.00    +0.000 A 
ATOM      9  C   UNL     1       2.442   2.945  21.183  0.00  0.00    +0.000 A 
ATOM     10  C   UNL     1       1.306   3.743  21.143  0.00  0.00    +0.000 A 
ATOM     11  C   UNL     1       1.280   4.872  20.325  0.00  0.00    +0.000 A 
ATOM     12  C   UNL     1       2.421   5.268  19.621  0.00  0.00    +0.000 A 
ENDROOT
BRANCH   1  13
ATOM     13  S   UNL     1       1.355   8.022  20.783  0.00  0.00    +0.000 S 
ATOM     14  O   UNL     1       2.350   7.825  21.816  0.00  0.00    +0.000 OA
ATOM     15  O   UNL     1       0.082   7.332  20.811  0.00  0.00    +0.000 OA
BRANCH  13  21
ATOM     16  C   UNL     1      -1.276  13.437  20.473  0.00  0.00    +0.000 C 
ATOM     17  C   UNL     1      -0.404  12.221  20.627  0.00  0.00    +0.000 A 
ATOM     18  C   UNL     1      -0.485  11.474  21.813  0.00  0.00    +0.000 A 
ATOM     19  C   UNL     1       0.175  10.243  21.950  0.00  0.00    +0.000 A 
ATOM     20  C   UNL     1      -0.012   9.481  23.234  0.00  0.00    +0.000 C 
ATOM     21  C   UNL     1       0.897   9.752  20.845  0.00  0.00    +0.000 A 
ATOM     22  C   UNL     1       1.086  10.544  19.706  0.00  0.00    +0.000 A 
ATOM     23  C   UNL     1       0.456  11.794  19.599  0.00  0.00    +0.000 A 
ATOM     24  C   UNL     1       0.650  12.613  18.353  0.00  0.00    +0.000 C 
ENDBRANCH  13  21
ENDBRANCH   1  13
BRANCH   4  25
ATOM     25  S   UNL     1       5.671   6.021  16.441  0.00  0.00    +0.000 S 
BRANCH  25  26
ATOM     26  C   UNL     1       6.855   6.919  17.351  0.00  0.00    +0.000 A 
ATOM     27  N   UNL     1       7.117   8.262  17.239  0.00  0.00    +0.000 NA
ATOM     28  C   UNL     1       8.059   8.457  18.141  0.00  0.00    +0.000 A 
ATOM     29  N   UNL     1       8.316   7.292  18.790  0.00  0.00    +0.000 N 
ATOM     30  N   UNL     1       7.549   6.300  18.321  0.00  0.00    +0.000 NA
ATOM     31  H   UNL     1       8.970   7.105  19.543  0.00  0.00    +0.000 HD
ENDBRANCH  25  26
ENDBRANCH   4  25
TORSDOF 4
ENDMDL
MODEL 4
REMARK VINA RESULT:      -7.8      5.433     10.328
REMARK  Name = 
REMARK  7 active torsions:
REMARK  status: ('A' for Active; 'I' for Inactive)
REMARK    1  A    between atoms: C_1  and  C_2
REMARK    2  A    between atoms: C_4  and  C_5
REMARK    3  A    between atoms: C_6  and  S_7
REMARK    4  A    between atoms: S_7  and  N_10
REMARK    5  A    between atoms: C_13  and  S_14
REMARK    6  A    between atoms: S_14  and  C_15
REMARK    7  A    between atoms: C_29  and  C_30
REMARK                            x       y       z     vdW  Elec       q    Type
REMARK                         _______ _______ _______ _____ _____    ______ ____
ROOT
ATOM      1  N   UNL     1      -1.841  11.904  20.572  0.00  0.00    +0.000 NA
ATOM      2  C   UNL     1      -2.850  12.640  20.955  0.00  0.00    +0.000 C 
ATOM      3  C   UNL     1      -4.026  12.661  20.039  0.00  0.00    +0.000 C 
ATOM      4  C   UNL     1      -5.278  12.810  20.502  0.00  0.00    +0.000 C 
ATOM      5  C   UNL     1      -5.514  13.016  21.962  0.00  0.00    +0.000 C 
ATOM      6  O   UNL     1      -6.605  12.864  22.498  0.00  0.00    +0.000 OA
ATOM      7  C   UNL     1      -4.342  13.430  22.770  0.00  0.00    +0.000 A 
ATOM      8  C   UNL     1      -4.535  13.903  24.077  0.00  0.00    +0.000 A 
ATOM      9  C   UNL     1      -3.447  14.344  24.831  0.00  0.00    +0.000 A 
ATOM     10  C   UNL     1      -2.188  14.409  24.249  0.00  0.00    +0.000 A 
ATOM     11  C   UNL     1      -2.005  13.970  22.939  0.00  0.00    +0.000 A 
ATOM     12  C   UNL     1      -3.054  13.370  22.235  0.00  0.00    +0.000 A 
ENDROOT
BRANCH   1  13
ATOM     13  S   UNL     1      -0.606  11.473  21.544  0.00  0.00    +0.000 S 
ATOM     14  O   UNL     1      -1.126  10.577  22.557  0.00  0.00    +0.000 OA
ATOM     15  O   UNL     1       0.150  12.657  21.890  0.00  0.00    +0.000 OA
BRANCH  13  21
ATOM     16  C   UNL     1       2.198   7.747  17.723  0.00  0.00    +0.000 C 
ATOM     17  C   UNL     1       1.742   8.725  18.772  0.00  0.00    +0.000 A 
ATOM     18  C   UNL     1       1.511  10.059  18.401  0.00  0.00    +0.000 A 
ATOM     19  C   UNL     1       0.928  10.976  19.289  0.00  0.00    +0.000 A 
ATOM     20  C   UNL     1       0.663  12.371  18.790  0.00  0.00    +0.000 C 
ATOM     21  C   UNL     1       0.542  10.512  20.561  0.00  0.00    +0.000 A 
ATOM     22  C   UNL     1       0.880   9.221  20.983  0.00  0.00    +0.000 A 
ATOM     23  C   UNL     1       1.504   8.326  20.099  0.00  0.00    +0.000 A 
ATOM     24  C   UNL     1       1.829   6.935  20.567  0.00  0.00    +0.000 C 
ENDBRANCH  13  21
ENDBRANCH   1  13
BRANCH   4  25
ATOM     25  S   UNL     1      -6.630  12.442  19.480  0.00  0.00    +0.000 S 
BRANCH  25  26
ATOM     26  C   UNL     1      -6.925  10.762  19.837  0.00  0.00    +0.000 A 
ATOM     27  N   UNL     1      -7.537  10.266  20.962  0.00  0.00    +0.000 NA
ATOM     28  C   UNL     1      -7.541   8.965  20.749  0.00  0.00    +0.000 A 
ATOM     29  N   UNL     1      -6.996   8.701  19.533  0.00  0.00    +0.000 N 
ATOM     30  N   UNL     1      -6.613   9.830  18.922  0.00  0.00    +0.000 NA
ATOM     31  H   UNL     1      -6.865   7.810  19.065  0.00  0.00    +0.000 HD
ENDBRANCH  25  26
ENDBRANCH   4  25
TORSDOF 4
ENDMDL
MODEL 5
REMARK VINA RESULT:      -7.6      4.247      8.617
REMARK  Name = 
REMARK  7 active torsions:
REMARK  status: ('A' for Active; 'I' for Inactive)
REMARK    1  A    between atoms: C_1  and  C_2
REMARK    2  A    between atoms: C_4  and  C_5
REMARK    3  A    between atoms: C_6  and  S_7
REMARK    4  A    between atoms: S_7  and  N_10
REMARK    5  A    between atoms: C_13  and  S_14
REMARK    6  A    between atoms: S_14  and  C_15
REMARK    7  A    between atoms: C_29  and  C_30
REMARK                            x       y       z     vdW  Elec       q    Type
REMARK                         _______ _______ _______ _____ _____    ______ ____
ROOT
ATOM      1  N   UNL     1       1.083  11.231  20.718  0.00  0.00    +0.000 NA
ATOM      2  C   UNL     1       0.543  12.356  21.102  0.00  0.00    +0.000 C 
ATOM      3  C   UNL     1       1.213  13.599  20.620  0.00  0.00    +0.000 C 
ATOM      4  C   UNL     1       0.522  14.725  20.380  0.00  0.00    +0.000 C 
ATOM      5  C   UNL     1      -0.947  14.771  20.650  0.00  0.00    +0.000 C 
ATOM      6  O   UNL     1      -1.690  15.631  20.192  0.00  0.00    +0.000 OA
ATOM      7  C   UNL     1      -1.493  13.707  21.526  0.00  0.00    +0.000 A 
ATOM      8  C   UNL     1      -2.790  13.834  22.043  0.00  0.00    +0.000 A 
ATOM      9  C   UNL     1      -3.299  12.865  22.909  0.00  0.00    +0.000 A 
ATOM     10  C   UNL     1      -2.481  11.828  23.337  0.00  0.00    +0.000 A 
ATOM     11  C   UNL     1      -1.180  11.722  22.847  0.00  0.00    +0.000 A 
ATOM     12  C   UNL     1      -0.720  12.590  21.853  0.00  0.00    +0.000 A 
ENDROOT
BRANCH   1  13
ATOM     13  S   UNL     1       0.353   9.779  20.844  0.00  0.00    +0.000 S 
ATOM     14  O   UNL     1      -0.857   9.817  20.049  0.00  0.00    +0.000 OA
ATOM     15  O   UNL     1       0.336   9.385  22.236  0.00  0.00    +0.000 OA
BRANCH  13  21
ATOM     16  C   UNL     1       2.873   5.224  17.804  0.00  0.00    +0.000 C 
ATOM     17  C   UNL     1       2.489   6.404  18.656  0.00  0.00    +0.000 A 
ATOM     18  C   UNL     1       2.384   7.669  18.055  0.00  0.00    +0.000 A 
ATOM     19  C   UNL     1       1.871   8.771  18.755  0.00  0.00    +0.000 A 
ATOM     20  C   UNL     1       1.740  10.076  18.017  0.00  0.00    +0.000 C 
ATOM     21  C   UNL     1       1.425   8.569  20.076  0.00  0.00    +0.000 A 
ATOM     22  C   UNL     1       1.641   7.346  20.723  0.00  0.00    +0.000 A 
ATOM     23  C   UNL     1       2.196   6.263  20.024  0.00  0.00    +0.000 A 
ATOM     24  C   UNL     1       2.389   4.950  20.732  0.00  0.00    +0.000 C 
ENDBRANCH  13  21
ENDBRANCH   1  13
BRANCH   4  25
ATOM     25  S   UNL     1       1.244  16.007  19.463  0.00  0.00    +0.000 S 
BRANCH  25  26
ATOM     26  C   UNL     1       2.773  15.317  18.991  0.00  0.00    +0.000 A 
ATOM     27  N   UNL     1       3.962  15.443  19.666  0.00  0.00    +0.000 NA
ATOM     28  C   UNL     1       4.796  14.733  18.932  0.00  0.00    +0.000 A 
ATOM     29  N   UNL     1       4.125  14.175  17.891  0.00  0.00    +0.000 N 
ATOM     30  N   UNL     1       2.830  14.515  17.916  0.00  0.00    +0.000 NA
ATOM     31  H   UNL     1       4.468  13.566  17.155  0.00  0.00    +0.000 HD
ENDBRANCH  25  26
ENDBRANCH   4  25
TORSDOF 4
ENDMDL
MODEL 6
REMARK VINA RESULT:      -7.6      0.582      1.627
REMARK  Name = 
REMARK  7 active torsions:
REMARK  status: ('A' for Active; 'I' for Inactive)
REMARK    1  A    between atoms: C_1  and  C_2
REMARK    2  A    between atoms: C_4  and  C_5
REMARK    3  A    between atoms: C_6  and  S_7
REMARK    4  A    between atoms: S_7  and  N_10
REMARK    5  A    between atoms: C_13  and  S_14
REMARK    6  A    between atoms: S_14  and  C_15
REMARK    7  A    between atoms: C_29  and  C_30
REMARK                            x       y       z     vdW  Elec       q    Type
REMARK                         _______ _______ _______ _____ _____    ______ ____
ROOT
ATOM      1  N   UNL     1       2.116   7.882  19.468  0.00  0.00    +0.000 NA
ATOM      2  C   UNL     1       2.726   6.782  19.117  0.00  0.00    +0.000 C 
ATOM      3  C   UNL     1       3.811   6.934  18.104  0.00  0.00    +0.000 C 
ATOM      4  C   UNL     1       4.882   6.124  18.091  0.00  0.00    +0.000 C 
ATOM      5  C   UNL     1       4.981   5.002  19.072  0.00  0.00    +0.000 C 
ATOM      6  O   UNL     1       6.027   4.417  19.324  0.00  0.00    +0.000 OA
ATOM      7  C   UNL     1       3.725   4.603  19.751  0.00  0.00    +0.000 A 
ATOM      8  C   UNL     1       3.678   3.399  20.469  0.00  0.00    +0.000 A 
ATOM      9  C   UNL     1       2.489   2.986  21.070  0.00  0.00    +0.000 A 
ATOM     10  C   UNL     1       1.326   3.719  20.870  0.00  0.00    +0.000 A 
ATOM     11  C   UNL     1       1.368   4.898  20.128  0.00  0.00    +0.000 A 
ATOM     12  C   UNL     1       2.586   5.406  19.665  0.00  0.00    +0.000 A 
ENDROOT
BRANCH   1  13
ATOM     13  S   UNL     1       1.144   8.008  20.771  0.00  0.00    +0.000 S 
ATOM     14  O   UNL     1       1.983   8.160  21.942  0.00  0.00    +0.000 OA
ATOM     15  O   UNL     1       0.125   6.984  20.693  0.00  0.00    +0.000 OA
BRANCH  13  21
ATOM     16  C   UNL     1      -0.840  13.693  20.487  0.00  0.00    +0.000 C 
ATOM     17  C   UNL     1      -0.601  12.208  20.530  0.00  0.00    +0.000 A 
ATOM     18  C   UNL     1      -0.199  11.551  19.357  0.00  0.00    +0.000 A 
ATOM     19  C   UNL     1       0.199  10.206  19.370  0.00  0.00    +0.000 A 
ATOM     20  C   UNL     1       0.669   9.596  18.078  0.00  0.00    +0.000 C 
ATOM     21  C   UNL     1       0.222   9.534  20.608  0.00  0.00    +0.000 A 
ATOM     22  C   UNL     1      -0.294  10.141  21.759  0.00  0.00    +0.000 A 
ATOM     23  C   UNL     1      -0.731  11.474  21.723  0.00  0.00    +0.000 A 
ATOM     24  C   UNL     1      -1.252  12.114  22.980  0.00  0.00    +0.000 C 
ENDBRANCH  13  21
ENDBRANCH   1  13
BRANCH   4  25
ATOM     25  S   UNL     1       6.288   6.560  17.175  0.00  0.00    +0.000 S 
BRANCH  25  26
ATOM     26  C   UNL     1       6.220   5.452  15.832  0.00  0.00    +0.000 A 
ATOM     27  N   UNL     1       5.137   4.695  15.458  0.00  0.00    +0.000 NA
ATOM     28  C   UNL     1       5.575   4.057  14.392  0.00  0.00    +0.000 A 
ATOM     29  N   UNL     1       6.847   4.448  14.117  0.00  0.00    +0.000 N 
ATOM     30  N   UNL     1       7.276   5.351  15.007  0.00  0.00    +0.000 NA
ATOM     31  H   UNL     1       7.461   4.160  13.362  0.00  0.00    +0.000 HD
ENDBRANCH  25  26
ENDBRANCH   4  25
TORSDOF 4
ENDMDL
MODEL 7
REMARK VINA RESULT:      -7.6      1.783      2.592
REMARK  Name = 
REMARK  7 active torsions:
REMARK  status: ('A' for Active; 'I' for Inactive)
REMARK    1  A    between atoms: C_1  and  C_2
REMARK    2  A    between atoms: C_4  and  C_5
REMARK    3  A    between atoms: C_6  and  S_7
REMARK    4  A    between atoms: S_7  and  N_10
REMARK    5  A    between atoms: C_13  and  S_14
REMARK    6  A    between atoms: S_14  and  C_15
REMARK    7  A    between atoms: C_29  and  C_30
REMARK                            x       y       z     vdW  Elec       q    Type
REMARK                         _______ _______ _______ _____ _____    ______ ____
ROOT
ATOM      1  N   UNL     1       2.189   7.347  19.148  0.00  0.00    +0.000 NA
ATOM      2  C   UNL     1       2.670   6.159  18.893  0.00  0.00    +0.000 C 
ATOM      3  C   UNL     1       3.622   6.075  17.747  0.00  0.00    +0.000 C 
ATOM      4  C   UNL     1       4.624   5.181  17.727  0.00  0.00    +0.000 C 
ATOM      5  C   UNL     1       4.772   4.201  18.844  0.00  0.00    +0.000 C 
ATOM      6  O   UNL     1       5.799   3.567  19.054  0.00  0.00    +0.000 OA
ATOM      7  C   UNL     1       3.590   4.011  19.720  0.00  0.00    +0.000 A 
ATOM      8  C   UNL     1       3.555   2.927  20.609  0.00  0.00    +0.000 A 
ATOM      9  C   UNL     1       2.429   2.706  21.402  0.00  0.00    +0.000 A 
ATOM     10  C   UNL     1       1.303   3.503  21.236  0.00  0.00    +0.000 A 
ATOM     11  C   UNL     1       1.329   4.560  20.327  0.00  0.00    +0.000 A 
ATOM     12  C   UNL     1       2.508   4.891  19.653  0.00  0.00    +0.000 A 
ENDROOT
BRANCH   1  13
ATOM     13  S   UNL     1       1.407   7.736  20.524  0.00  0.00    +0.000 S 
ATOM     14  O   UNL     1       2.387   7.822  21.587  0.00  0.00    +0.000 OA
ATOM     15  O   UNL     1       0.228   6.906  20.641  0.00  0.00    +0.000 OA
BRANCH  13  21
ATOM     16  C   UNL     1       0.260  13.653  20.372  0.00  0.00    +0.000 C 
ATOM     17  C   UNL     1       0.297  12.149  20.322  0.00  0.00    +0.000 A 
ATOM     18  C   UNL     1       0.867  11.521  19.204  0.00  0.00    +0.000 A 
ATOM     19  C   UNL     1       1.081  10.135  19.172  0.00  0.00    +0.000 A 
ATOM     20  C   UNL     1       1.750   9.552  17.957  0.00  0.00    +0.000 C 
ATOM     21  C   UNL     1       0.742   9.386  20.316  0.00  0.00    +0.000 A 
ATOM     22  C   UNL     1       0.061   9.982  21.384  0.00  0.00    +0.000 A 
ATOM     23  C   UNL     1      -0.188  11.363  21.384  0.00  0.00    +0.000 A 
ATOM     24  C   UNL     1      -0.894  11.985  22.556  0.00  0.00    +0.000 C 
ENDBRANCH  13  21
ENDBRANCH   1  13
BRANCH   4  25
ATOM     25  S   UNL     1       5.925   5.361  16.595  0.00  0.00    +0.000 S 
BRANCH  25  26
ATOM     26  C   UNL     1       6.963   6.509  17.396  0.00  0.00    +0.000 A 
ATOM     27  N   UNL     1       7.078   7.845  17.098  0.00  0.00    +0.000 NA
ATOM     28  C   UNL     1       7.954   8.272  17.985  0.00  0.00    +0.000 A 
ATOM     29  N   UNL     1       8.313   7.247  18.802  0.00  0.00    +0.000 N 
ATOM     30  N   UNL     1       7.681   6.117  18.461  0.00  0.00    +0.000 NA
ATOM     31  H   UNL     1       8.952   7.245  19.590  0.00  0.00    +0.000 HD
ENDBRANCH  25  26
ENDBRANCH   4  25
TORSDOF 4
ENDMDL
MODEL 8
REMARK VINA RESULT:      -7.5      5.770     10.601
REMARK  Name = 
REMARK  7 active torsions:
REMARK  status: ('A' for Active; 'I' for Inactive)
REMARK    1  A    between atoms: C_1  and  C_2
REMARK    2  A    between atoms: C_4  and  C_5
REMARK    3  A    between atoms: C_6  and  S_7
REMARK    4  A    between atoms: S_7  and  N_10
REMARK    5  A    between atoms: C_13  and  S_14
REMARK    6  A    between atoms: S_14  and  C_15
REMARK    7  A    between atoms: C_29  and  C_30
REMARK                            x       y       z     vdW  Elec       q    Type
REMARK                         _______ _______ _______ _____ _____    ______ ____
ROOT
ATOM      1  N   UNL     1      -2.027  12.408  20.855  0.00  0.00    +0.000 NA
ATOM      2  C   UNL     1      -2.917  13.306  21.184  0.00  0.00    +0.000 C 
ATOM      3  C   UNL     1      -4.075  13.447  20.255  0.00  0.00    +0.000 C 
ATOM      4  C   UNL     1      -5.292  13.805  20.694  0.00  0.00    +0.000 C 
ATOM      5  C   UNL     1      -5.499  14.129  22.138  0.00  0.00    +0.000 C 
ATOM      6  O   UNL     1      -6.602  14.171  22.669  0.00  0.00    +0.000 OA
ATOM      7  C   UNL     1      -4.281  14.413  22.934  0.00  0.00    +0.000 A 
ATOM      8  C   UNL     1      -4.404  14.985  24.209  0.00  0.00    +0.000 A 
ATOM      9  C   UNL     1      -3.265  15.304  24.948  0.00  0.00    +0.000 A 
ATOM     10  C   UNL     1      -2.009  15.148  24.378  0.00  0.00    +0.000 A 
ATOM     11  C   UNL     1      -1.889  14.611  23.097  0.00  0.00    +0.000 A 
ATOM     12  C   UNL     1      -3.014  14.132  22.418  0.00  0.00    +0.000 A 
ENDROOT
BRANCH   1  13
ATOM     13  S   UNL     1      -0.872  11.857  21.864  0.00  0.00    +0.000 S 
ATOM     14  O   UNL     1      -1.510  11.468  23.105  0.00  0.00    +0.000 OA
ATOM     15  O   UNL     1       0.246  12.775  21.839  0.00  0.00    +0.000 OA
BRANCH  13  21
ATOM     16  C   UNL     1       2.497   7.418  19.565  0.00  0.00    +0.000 C 
ATOM     17  C   UNL     1       1.449   8.374  20.068  0.00  0.00    +0.000 A 
ATOM     18  C   UNL     1       1.121   8.364  21.433  0.00  0.00    +0.000 A 
ATOM     19  C   UNL     1       0.280   9.338  21.991  0.00  0.00    +0.000 A 
ATOM     20  C   UNL     1       0.026   9.286  23.473  0.00  0.00    +0.000 C 
ATOM     21  C   UNL     1      -0.203  10.358  21.148  0.00  0.00    +0.000 A 
ATOM     22  C   UNL     1       0.016  10.306  19.766  0.00  0.00    +0.000 A 
ATOM     23  C   UNL     1       0.824   9.300  19.214  0.00  0.00    +0.000 A 
ATOM     24  C   UNL     1       1.070   9.284  17.731  0.00  0.00    +0.000 C 
ENDBRANCH  13  21
ENDBRANCH   1  13
BRANCH   4  25
ATOM     25  S   UNL     1      -6.681  13.582  19.681  0.00  0.00    +0.000 S 
BRANCH  25  26
ATOM     26  C   UNL     1      -6.913  11.855  19.735  0.00  0.00    +0.000 A 
ATOM     27  N   UNL     1      -7.206  11.110  20.851  0.00  0.00    +0.000 NA
ATOM     28  C   UNL     1      -7.304   9.886  20.372  0.00  0.00    +0.000 A 
ATOM     29  N   UNL     1      -7.120   9.907  19.026  0.00  0.00    +0.000 N 
ATOM     30  N   UNL     1      -6.889  11.152  18.591  0.00  0.00    +0.000 NA
ATOM     31  H   UNL     1      -7.146   9.141  18.361  0.00  0.00    +0.000 HD
ENDBRANCH  25  26
ENDBRANCH   4  25
TORSDOF 4
ENDMDL
MODEL 9
REMARK VINA RESULT:      -7.5      4.330      9.661
REMARK  Name = 
REMARK  7 active torsions:
REMARK  status: ('A' for Active; 'I' for Inactive)
REMARK    1  A    between atoms: C_1  and  C_2
REMARK    2  A    between atoms: C_4  and  C_5
REMARK    3  A    between atoms: C_6  and  S_7
REMARK    4  A    between atoms: S_7  and  N_10
REMARK    5  A    between atoms: C_13  and  S_14
REMARK    6  A    between atoms: S_14  and  C_15
REMARK    7  A    between atoms: C_29  and  C_30
REMARK                            x       y       z     vdW  Elec       q    Type
REMARK                         _______ _______ _______ _____ _____    ______ ____
ROOT
ATOM      1  N   UNL     1      -0.658  10.378  19.513  0.00  0.00    +0.000 NA
ATOM      2  C   UNL     1      -1.483  11.383  19.635  0.00  0.00    +0.000 C 
ATOM      3  C   UNL     1      -2.536  11.493  18.583  0.00  0.00    +0.000 C 
ATOM      4  C   UNL     1      -3.748  12.006  18.849  0.00  0.00    +0.000 C 
ATOM      5  C   UNL     1      -4.051  12.537  20.212  0.00  0.00    +0.000 C 
ATOM      6  O   UNL     1      -5.188  12.741  20.620  0.00  0.00    +0.000 OA
ATOM      7  C   UNL     1      -2.887  12.824  21.085  0.00  0.00    +0.000 A 
ATOM      8  C   UNL     1      -3.068  13.571  22.258  0.00  0.00    +0.000 A 
ATOM      9  C   UNL     1      -1.975  13.891  23.063  0.00  0.00    +0.000 A 
ATOM     10  C   UNL     1      -0.693  13.557  22.646  0.00  0.00    +0.000 A 
ATOM     11  C   UNL     1      -0.512  12.844  21.462  0.00  0.00    +0.000 A 
ATOM     12  C   UNL     1      -1.611  12.373  20.738  0.00  0.00    +0.000 A 
ENDROOT
BRANCH   1  13
ATOM     13  S   UNL     1       0.345   9.875  20.695  0.00  0.00    +0.000 S 
ATOM     14  O   UNL     1      -0.457   9.246  21.725  0.00  0.00    +0.000 OA
ATOM     15  O   UNL     1       1.277  10.939  21.000  0.00  0.00    +0.000 OA
BRANCH  13  21
ATOM     16  C   UNL     1       2.747   5.111  17.888  0.00  0.00    +0.000 C 
ATOM     17  C   UNL     1       2.391   6.332  18.692  0.00  0.00    +0.000 A 
ATOM     18  C   UNL     1       2.381   7.584  18.056  0.00  0.00    +0.000 A 
ATOM     19  C   UNL     1       1.898   8.731  18.704  0.00  0.00    +0.000 A 
ATOM     20  C   UNL     1       1.871  10.020  17.928  0.00  0.00    +0.000 C 
ATOM     21  C   UNL     1       1.384   8.589  20.007  0.00  0.00    +0.000 A 
ATOM     22  C   UNL     1       1.503   7.374  20.693  0.00  0.00    +0.000 A 
ATOM     23  C   UNL     1       2.029   6.244  20.048  0.00  0.00    +0.000 A 
ATOM     24  C   UNL     1       2.119   4.943  20.797  0.00  0.00    +0.000 C 
ENDBRANCH  13  21
ENDBRANCH   1  13
BRANCH   4  25
ATOM     25  S   UNL     1      -5.056  11.764  17.737  0.00  0.00    +0.000 S 
BRANCH  25  26
ATOM     26  C   UNL     1      -6.124  10.719  18.634  0.00  0.00    +0.000 A 
ATOM     27  N   UNL     1      -5.879   9.413  18.982  0.00  0.00    +0.000 NA
ATOM     28  C   UNL     1      -6.959   9.079  19.660  0.00  0.00    +0.000 A 
ATOM     29  N   UNL     1      -7.790  10.150  19.749  0.00  0.00    +0.000 N 
ATOM     30  N   UNL     1      -7.273  11.214  19.122  0.00  0.00    +0.000 NA
ATOM     31  H   UNL     1      -8.689  10.231  20.213  0.00  0.00    +0.000 HD
ENDBRANCH  25  26
ENDBRANCH   4  25
TORSDOF 4
ENDMDL
