MODEL 1
REMARK VINA RESULT:      -7.2      0.000      0.000
REMARK  Name = 
REMARK  3 active torsions:
REMARK  status: ('A' for Active; 'I' for Inactive)
REMARK    1  A    between atoms: C_11  and  O_12
REMARK    2  A    between atoms: N_18  and  C_19
REMARK    3  A    between atoms: C_19  and  C_20
REMARK                            x       y       z     vdW  Elec       q    Type
REMARK                         _______ _______ _______ _____ _____    ______ ____
ROOT
ATOM      1  O   UNL     1       8.450   7.735  18.614  0.00  0.00    +0.000 OA
ATOM      2  C   UNL     1       7.859   6.673  18.503  0.00  0.00    +0.000 C 
ATOM      3  C   UNL     1       7.240   6.014  19.707  0.00  0.00    +0.000 C 
ATOM      4  C   UNL     1       6.508   4.667  19.302  0.00  0.00    +0.000 C 
ATOM      5  C   UNL     1       5.658   4.869  17.984  0.00  0.00    +0.000 C 
ATOM      6  C   UNL     1       4.227   4.421  17.670  0.00  0.00    +0.000 C 
ATOM      7  C   UNL     1       4.128   3.671  16.300  0.00  0.00    +0.000 C 
ATOM      8  C   UNL     1       5.119   4.046  15.221  0.00  0.00    +0.000 A 
ATOM      9  C   UNL     1       5.068   3.375  13.981  0.00  0.00    +0.000 A 
ATOM     10  C   UNL     1       5.973   3.685  12.956  0.00  0.00    +0.000 A 
ATOM     11  C   UNL     1       6.948   4.651  13.153  0.00  0.00    +0.000 A 
ATOM     12  C   UNL     1       7.011   5.320  14.391  0.00  0.00    +0.000 A 
ATOM     13  C   UNL     1       6.122   5.014  15.456  0.00  0.00    +0.000 A 
ATOM     14  C   UNL     1       6.184   5.757  16.812  0.00  0.00    +0.000 C 
ATOM     15  C   UNL     1       5.167   6.977  16.654  0.00  0.00    +0.000 C 
ATOM     16  C   UNL     1       3.919   6.964  17.618  0.00  0.00    +0.000 C 
ATOM     17  N   UNL     1       3.269   5.600  17.797  0.00  0.00    +0.000 NA
ATOM     18  C   UNL     1       7.684   6.073  17.144  0.00  0.00    +0.000 C 
ENDROOT
BRANCH  11  19
ATOM     19  O   UNL     1       7.827   4.968  12.192  0.00  0.00    +0.000 OA
ATOM     20  H   UNL     1       7.782   4.576  11.304  0.00  0.00    +0.000 HD
ENDBRANCH  11  19
BRANCH  17  21
ATOM     21  C   UNL     1       2.682   5.465  19.172  0.00  0.00    +0.000 C 
BRANCH  21  22
ATOM     22  C   UNL     1       2.515   4.063  19.769  0.00  0.00    +0.000 C 
ATOM     23  C   UNL     1       2.255   3.929  21.265  0.00  0.00    +0.000 C 
ATOM     24  C   UNL     1       1.228   2.842  20.923  0.00  0.00    +0.000 C 
ATOM     25  C   UNL     1       1.125   3.450  19.531  0.00  0.00    +0.000 C 
ENDBRANCH  21  22
ENDBRANCH  17  21
TORSDOF 3
ENDMDL
MODEL 2
REMARK VINA RESULT:      -7.0      3.176      5.009
REMARK  Name = 
REMARK  3 active torsions:
REMARK  status: ('A' for Active; 'I' for Inactive)
REMARK    1  A    between atoms: C_11  and  O_12
REMARK    2  A    between atoms: N_18  and  C_19
REMARK    3  A    between atoms: C_19  and  C_20
REMARK                            x       y       z     vdW  Elec       q    Type
REMARK                         _______ _______ _______ _____ _____    ______ ____
ROOT
ATOM      1  O   UNL     1       2.201   1.398  19.337  0.00  0.00    +0.000 OA
ATOM      2  C   UNL     1       2.167   2.427  18.680  0.00  0.00    +0.000 C 
ATOM      3  C   UNL     1       0.856   3.119  18.413  0.00  0.00    +0.000 C 
ATOM      4  C   UNL     1       1.076   4.442  17.568  0.00  0.00    +0.000 C 
ATOM      5  C   UNL     1       2.306   5.263  18.129  0.00  0.00    +0.000 C 
ATOM      6  C   UNL     1       2.428   6.764  18.408  0.00  0.00    +0.000 C 
ATOM      7  C   UNL     1       3.719   7.382  17.774  0.00  0.00    +0.000 C 
ATOM      8  C   UNL     1       4.924   6.482  17.617  0.00  0.00    +0.000 A 
ATOM      9  C   UNL     1       6.097   7.003  17.031  0.00  0.00    +0.000 A 
ATOM     10  C   UNL     1       7.234   6.201  16.859  0.00  0.00    +0.000 A 
ATOM     11  C   UNL     1       7.217   4.872  17.249  0.00  0.00    +0.000 A 
ATOM     12  C   UNL     1       6.048   4.341  17.828  0.00  0.00    +0.000 A 
ATOM     13  C   UNL     1       4.873   5.121  17.997  0.00  0.00    +0.000 A 
ATOM     14  C   UNL     1       3.592   4.541  18.643  0.00  0.00    +0.000 C 
ATOM     15  C   UNL     1       3.730   4.878  20.196  0.00  0.00    +0.000 C 
ATOM     16  C   UNL     1       2.640   5.848  20.793  0.00  0.00    +0.000 C 
ATOM     17  N   UNL     1       2.288   7.032  19.903  0.00  0.00    +0.000 NA
ATOM     18  C   UNL     1       3.449   3.039  18.213  0.00  0.00    +0.000 C 
ENDROOT
BRANCH  11  19
ATOM     19  O   UNL     1       8.289   4.082  17.097  0.00  0.00    +0.000 OA
ATOM     20  H   UNL     1       8.326   3.187  17.473  0.00  0.00    +0.000 HD
ENDBRANCH  11  19
BRANCH  17  21
ATOM     21  C   UNL     1       0.852   7.427  20.084  0.00  0.00    +0.000 C 
BRANCH  21  22
ATOM     22  C   UNL     1       0.529   8.693  20.888  0.00  0.00    +0.000 C 
ATOM     23  C   UNL     1      -0.627   8.657  21.879  0.00  0.00    +0.000 C 
ATOM     24  C   UNL     1       0.263   9.447  22.847  0.00  0.00    +0.000 C 
ATOM     25  C   UNL     1       1.471   8.923  22.082  0.00  0.00    +0.000 C 
ENDBRANCH  21  22
ENDBRANCH  17  21
TORSDOF 3
ENDMDL
MODEL 3
REMARK VINA RESULT:      -6.6      3.538      6.864
REMARK  Name = 
REMARK  3 active torsions:
REMARK  status: ('A' for Active; 'I' for Inactive)
REMARK    1  A    between atoms: C_11  and  O_12
REMARK    2  A    between atoms: N_18  and  C_19
REMARK    3  A    between atoms: C_19  and  C_20
REMARK                            x       y       z     vdW  Elec       q    Type
REMARK                         _______ _______ _______ _____ _____    ______ ____
ROOT
ATOM      1  O   UNL     1       1.939   1.987  21.980  0.00  0.00    +0.000 OA
ATOM      2  C   UNL     1       2.664   2.833  21.481  0.00  0.00    +0.000 C 
ATOM      3  C   UNL     1       3.980   2.441  20.861  0.00  0.00    +0.000 C 
ATOM      4  C   UNL     1       4.721   3.706  20.258  0.00  0.00    +0.000 C 
ATOM      5  C   UNL     1       3.707   4.616  19.455  0.00  0.00    +0.000 C 
ATOM      6  C   UNL     1       3.866   5.272  18.080  0.00  0.00    +0.000 C 
ATOM      7  C   UNL     1       3.498   6.793  18.103  0.00  0.00    +0.000 C 
ATOM      8  C   UNL     1       2.466   7.250  19.109  0.00  0.00    +0.000 A 
ATOM      9  C   UNL     1       2.126   8.618  19.168  0.00  0.00    +0.000 A 
ATOM     10  C   UNL     1       1.180   9.086  20.091  0.00  0.00    +0.000 A 
ATOM     11  C   UNL     1       0.574   8.210  20.976  0.00  0.00    +0.000 A 
ATOM     12  C   UNL     1       0.913   6.843  20.930  0.00  0.00    +0.000 A 
ATOM     13  C   UNL     1       1.882   6.341  20.021  0.00  0.00    +0.000 A 
ATOM     14  C   UNL     1       2.246   4.838  19.961  0.00  0.00    +0.000 C 
ATOM     15  C   UNL     1       1.269   4.225  18.860  0.00  0.00    +0.000 C 
ATOM     16  C   UNL     1       1.963   3.632  17.574  0.00  0.00    +0.000 C 
ATOM     17  N   UNL     1       3.108   4.470  17.026  0.00  0.00    +0.000 NA
ATOM     18  C   UNL     1       2.195   4.252  21.416  0.00  0.00    +0.000 C 
ENDROOT
BRANCH  11  19
ATOM     19  O   UNL     1      -0.333   8.629  21.870  0.00  0.00    +0.000 OA
ATOM     20  H   UNL     1      -0.667   8.049  22.574  0.00  0.00    +0.000 HD
ENDBRANCH  11  19
BRANCH  17  21
ATOM     21  C   UNL     1       4.151   3.599  16.390  0.00  0.00    +0.000 C 
BRANCH  21  22
ATOM     22  C   UNL     1       5.503   4.218  16.015  0.00  0.00    +0.000 C 
ATOM     23  C   UNL     1       6.305   3.595  14.880  0.00  0.00    +0.000 C 
ATOM     24  C   UNL     1       6.625   5.021  14.411  0.00  0.00    +0.000 C 
ATOM     25  C   UNL     1       5.384   5.490  15.157  0.00  0.00    +0.000 C 
ENDBRANCH  21  22
ENDBRANCH  17  21
TORSDOF 3
ENDMDL
MODEL 4
REMARK VINA RESULT:      -6.6      3.298      5.272
REMARK  Name = 
REMARK  3 active torsions:
REMARK  status: ('A' for Active; 'I' for Inactive)
REMARK    1  A    between atoms: C_11  and  O_12
REMARK    2  A    between atoms: N_18  and  C_19
REMARK    3  A    between atoms: C_19  and  C_20
REMARK                            x       y       z     vdW  Elec       q    Type
REMARK                         _______ _______ _______ _____ _____    ______ ____
ROOT
ATOM      1  O   UNL     1       1.963   1.836  19.624  0.00  0.00    +0.000 OA
ATOM      2  C   UNL     1       2.047   2.769  18.841  0.00  0.00    +0.000 C 
ATOM      3  C   UNL     1       0.808   3.475  18.357  0.00  0.00    +0.000 C 
ATOM      4  C   UNL     1       1.179   4.664  17.377  0.00  0.00    +0.000 C 
ATOM      5  C   UNL     1       2.394   5.499  17.948  0.00  0.00    +0.000 C 
ATOM      6  C   UNL     1       2.573   7.017  18.044  0.00  0.00    +0.000 C 
ATOM      7  C   UNL     1       3.949   7.489  17.467  0.00  0.00    +0.000 C 
ATOM      8  C   UNL     1       5.112   6.526  17.548  0.00  0.00    +0.000 A 
ATOM      9  C   UNL     1       6.362   6.914  17.021  0.00  0.00    +0.000 A 
ATOM     10  C   UNL     1       7.464   6.049  17.068  0.00  0.00    +0.000 A 
ATOM     11  C   UNL     1       7.337   4.785  17.621  0.00  0.00    +0.000 A 
ATOM     12  C   UNL     1       6.091   4.386  18.143  0.00  0.00    +0.000 A 
ATOM     13  C   UNL     1       4.950   5.231  18.093  0.00  0.00    +0.000 A 
ATOM     14  C   UNL     1       3.584   4.797  18.676  0.00  0.00    +0.000 C 
ATOM     15  C   UNL     1       3.596   5.331  20.179  0.00  0.00    +0.000 C 
ATOM     16  C   UNL     1       2.509   6.418  20.535  0.00  0.00    +0.000 C 
ATOM     17  N   UNL     1       2.308   7.487  19.470  0.00  0.00    +0.000 NA
ATOM     18  C   UNL     1       3.400   3.259  18.431  0.00  0.00    +0.000 C 
ENDROOT
BRANCH  11  19
ATOM     19  O   UNL     1       8.373   3.937  17.679  0.00  0.00    +0.000 OA
ATOM     20  H   UNL     1       8.353   3.070  17.242  0.00  0.00    +0.000 HD
ENDBRANCH  11  19
BRANCH  17  21
ATOM     21  C   UNL     1       0.885   7.964  19.454  0.00  0.00    +0.000 C 
BRANCH  21  22
ATOM     22  C   UNL     1       0.612   9.472  19.469  0.00  0.00    +0.000 C 
ATOM     23  C   UNL     1      -0.429  10.038  18.511  0.00  0.00    +0.000 C 
ATOM     24  C   UNL     1      -0.912  10.927  19.664  0.00  0.00    +0.000 C 
ATOM     25  C   UNL     1      -0.292   9.925  20.628  0.00  0.00    +0.000 C 
ENDBRANCH  21  22
ENDBRANCH  17  21
TORSDOF 3
ENDMDL
MODEL 5
REMARK VINA RESULT:      -6.4      7.169      9.714
REMARK  Name = 
REMARK  3 active torsions:
REMARK  status: ('A' for Active; 'I' for Inactive)
REMARK    1  A    between atoms: C_11  and  O_12
REMARK    2  A    between atoms: N_18  and  C_19
REMARK    3  A    between atoms: C_19  and  C_20
REMARK                            x       y       z     vdW  Elec       q    Type
REMARK                         _______ _______ _______ _____ _____    ______ ____
ROOT
ATOM      1  O   UNL     1       1.180  14.058  22.091  0.00  0.00    +0.000 OA
ATOM      2  C   UNL     1       1.021  13.592  20.974  0.00  0.00    +0.000 C 
ATOM      3  C   UNL     1       2.207  13.207  20.131  0.00  0.00    +0.000 C 
ATOM      4  C   UNL     1       1.743  12.602  18.741  0.00  0.00    +0.000 C 
ATOM      5  C   UNL     1       0.553  11.581  18.947  0.00  0.00    +0.000 C 
ATOM      6  C   UNL     1       0.349  10.189  18.343  0.00  0.00    +0.000 C 
ATOM      7  C   UNL     1      -1.074  10.018  17.715  0.00  0.00    +0.000 C 
ATOM      8  C   UNL     1      -2.207  10.819  18.316  0.00  0.00    +0.000 A 
ATOM      9  C   UNL     1      -3.499  10.701  17.761  0.00  0.00    +0.000 A 
ATOM     10  C   UNL     1      -4.576  11.432  18.282  0.00  0.00    +0.000 A 
ATOM     11  C   UNL     1      -4.384  12.298  19.346  0.00  0.00    +0.000 A 
ATOM     12  C   UNL     1      -3.096  12.427  19.902  0.00  0.00    +0.000 A 
ATOM     13  C   UNL     1      -1.980  11.717  19.384  0.00  0.00    +0.000 A 
ATOM     14  C   UNL     1      -0.567  11.850  20.002  0.00  0.00    +0.000 C 
ATOM     15  C   UNL     1      -0.484  10.681  21.083  0.00  0.00    +0.000 C 
ATOM     16  C   UNL     1       0.601   9.568  20.817  0.00  0.00    +0.000 C 
ATOM     17  N   UNL     1       0.704   9.116  19.367  0.00  0.00    +0.000 NA
ATOM     18  C   UNL     1      -0.368  13.330  20.483  0.00  0.00    +0.000 C 
ENDROOT
BRANCH  11  19
ATOM     19  O   UNL     1      -5.395  13.009  19.865  0.00  0.00    +0.000 OA
ATOM     20  H   UNL     1      -6.277  12.626  20.000  0.00  0.00    +0.000 HD
ENDBRANCH  11  19
BRANCH  17  21
ATOM     21  C   UNL     1       2.111   8.720  19.030  0.00  0.00    +0.000 C 
BRANCH  21  22
ATOM     22  C   UNL     1       2.339   7.522  18.099  0.00  0.00    +0.000 C 
ATOM     23  C   UNL     1       3.731   7.295  17.525  0.00  0.00    +0.000 C 
ATOM     24  C   UNL     1       3.529   5.799  17.798  0.00  0.00    +0.000 C 
ATOM     25  C   UNL     1       2.488   6.183  18.841  0.00  0.00    +0.000 C 
ENDBRANCH  21  22
ENDBRANCH  17  21
TORSDOF 3
ENDMDL
MODEL 6
REMARK VINA RESULT:      -6.4      2.910      4.538
REMARK  Name = 
REMARK  3 active torsions:
REMARK  status: ('A' for Active; 'I' for Inactive)
REMARK    1  A    between atoms: C_11  and  O_12
REMARK    2  A    between atoms: N_18  and  C_19
REMARK    3  A    between atoms: C_19  and  C_20
REMARK                            x       y       z     vdW  Elec       q    Type
REMARK                         _______ _______ _______ _____ _____    ______ ____
ROOT
ATOM      1  O   UNL     1       3.139   0.910  18.914  0.00  0.00    +0.000 OA
ATOM      2  C   UNL     1       2.739   1.942  18.396  0.00  0.00    +0.000 C 
ATOM      3  C   UNL     1       1.358   2.460  18.696  0.00  0.00    +0.000 C 
ATOM      4  C   UNL     1       1.085   3.821  17.931  0.00  0.00    +0.000 C 
ATOM      5  C   UNL     1       2.334   4.784  18.045  0.00  0.00    +0.000 C 
ATOM      6  C   UNL     1       2.384   6.281  18.368  0.00  0.00    +0.000 C 
ATOM      7  C   UNL     1       3.252   7.080  17.341  0.00  0.00    +0.000 C 
ATOM      8  C   UNL     1       4.398   6.353  16.674  0.00  0.00    +0.000 A 
ATOM      9  C   UNL     1       5.189   7.040  15.729  0.00  0.00    +0.000 A 
ATOM     10  C   UNL     1       6.256   6.401  15.082  0.00  0.00    +0.000 A 
ATOM     11  C   UNL     1       6.541   5.072  15.350  0.00  0.00    +0.000 A 
ATOM     12  C   UNL     1       5.752   4.375  16.286  0.00  0.00    +0.000 A 
ATOM     13  C   UNL     1       4.652   4.988  16.944  0.00  0.00    +0.000 A 
ATOM     14  C   UNL     1       3.792   4.227  17.981  0.00  0.00    +0.000 C 
ATOM     15  C   UNL     1       4.477   4.540  19.386  0.00  0.00    +0.000 C 
ATOM     16  C   UNL     1       3.597   5.342  20.421  0.00  0.00    +0.000 C 
ATOM     17  N   UNL     1       2.798   6.490  19.821  0.00  0.00    +0.000 NA
ATOM     18  C   UNL     1       3.666   2.730  17.527  0.00  0.00    +0.000 C 
ENDROOT
BRANCH  11  19
ATOM     19  O   UNL     1       7.554   4.435  14.746  0.00  0.00    +0.000 OA
ATOM     20  H   UNL     1       7.442   3.982  13.894  0.00  0.00    +0.000 HD
ENDBRANCH  11  19
BRANCH  17  21
ATOM     21  C   UNL     1       1.507   6.686  20.559  0.00  0.00    +0.000 C 
BRANCH  21  22
ATOM     22  C   UNL     1       1.184   8.074  21.127  0.00  0.00    +0.000 C 
ATOM     23  C   UNL     1       0.992   9.235  20.159  0.00  0.00    +0.000 C 
ATOM     24  C   UNL     1      -0.191   9.679  21.028  0.00  0.00    +0.000 C 
ATOM     25  C   UNL     1      -0.288   8.247  21.536  0.00  0.00    +0.000 C 
ENDBRANCH  21  22
ENDBRANCH  17  21
TORSDOF 3
ENDMDL
MODEL 7
REMARK VINA RESULT:      -6.2      3.357      6.445
REMARK  Name = 
REMARK  3 active torsions:
REMARK  status: ('A' for Active; 'I' for Inactive)
REMARK    1  A    between atoms: C_11  and  O_12
REMARK    2  A    between atoms: N_18  and  C_19
REMARK    3  A    between atoms: C_19  and  C_20
REMARK                            x       y       z     vdW  Elec       q    Type
REMARK                         _______ _______ _______ _____ _____    ______ ____
ROOT
ATOM      1  O   UNL     1       1.488   2.758  21.652  0.00  0.00    +0.000 OA
ATOM      2  C   UNL     1       2.383   3.424  21.156  0.00  0.00    +0.000 C 
ATOM      3  C   UNL     1       3.712   2.795  20.831  0.00  0.00    +0.000 C 
ATOM      4  C   UNL     1       4.692   3.851  20.170  0.00  0.00    +0.000 C 
ATOM      5  C   UNL     1       3.935   4.709  19.079  0.00  0.00    +0.000 C 
ATOM      6  C   UNL     1       4.377   5.096  17.665  0.00  0.00    +0.000 C 
ATOM      7  C   UNL     1       4.212   6.628  17.391  0.00  0.00    +0.000 C 
ATOM      8  C   UNL     1       3.113   7.359  18.128  0.00  0.00    +0.000 A 
ATOM      9  C   UNL     1       2.950   8.744  17.918  0.00  0.00    +0.000 A 
ATOM     10  C   UNL     1       1.949   9.462  18.587  0.00  0.00    +0.000 A 
ATOM     11  C   UNL     1       1.111   8.820  19.485  0.00  0.00    +0.000 A 
ATOM     12  C   UNL     1       1.271   7.439  19.708  0.00  0.00    +0.000 A 
ATOM     13  C   UNL     1       2.288   6.687  19.061  0.00  0.00    +0.000 A 
ATOM     14  C   UNL     1       2.457   5.167  19.296  0.00  0.00    +0.000 C 
ATOM     15  C   UNL     1       1.580   4.479  18.156  0.00  0.00    +0.000 C 
ATOM     16  C   UNL     1       2.370   3.602  17.110  0.00  0.00    +0.000 C 
ATOM     17  N   UNL     1       3.683   4.207  16.637  0.00  0.00    +0.000 NA
ATOM     18  C   UNL     1       2.118   4.851  20.795  0.00  0.00    +0.000 C 
ENDROOT
BRANCH  11  19
ATOM     19  O   UNL     1       0.146   9.481  20.139  0.00  0.00    +0.000 OA
ATOM     20  H   UNL     1       0.342  10.232  20.724  0.00  0.00    +0.000 HD
ENDBRANCH  11  19
BRANCH  17  21
ATOM     21  C   UNL     1       4.685   3.135  16.326  0.00  0.00    +0.000 C 
BRANCH  21  22
ATOM     22  C   UNL     1       5.818   3.445  15.340  0.00  0.00    +0.000 C 
ATOM     23  C   UNL     1       5.607   4.538  14.301  0.00  0.00    +0.000 C 
ATOM     24  C   UNL     1       7.043   4.996  14.584  0.00  0.00    +0.000 C 
ATOM     25  C   UNL     1       6.939   4.311  15.940  0.00  0.00    +0.000 C 
ENDBRANCH  21  22
ENDBRANCH  17  21
TORSDOF 3
ENDMDL
MODEL 8
REMARK VINA RESULT:      -6.2      9.592     11.176
REMARK  Name = 
REMARK  3 active torsions:
REMARK  status: ('A' for Active; 'I' for Inactive)
REMARK    1  A    between atoms: C_11  and  O_12
REMARK    2  A    between atoms: N_18  and  C_19
REMARK    3  A    between atoms: C_19  and  C_20
REMARK                            x       y       z     vdW  Elec       q    Type
REMARK                         _______ _______ _______ _____ _____    ______ ____
ROOT
ATOM      1  O   UNL     1       9.543  18.483  19.924  0.00  0.00    +0.000 OA
ATOM      2  C   UNL     1       9.956  17.482  20.487  0.00  0.00    +0.000 C 
ATOM      3  C   UNL     1       9.890  17.368  21.987  0.00  0.00    +0.000 C 
ATOM      4  C   UNL     1      10.457  15.971  22.475  0.00  0.00    +0.000 C 
ATOM      5  C   UNL     1       9.909  14.798  21.566  0.00  0.00    +0.000 C 
ATOM      6  C   UNL     1       9.338  13.436  21.973  0.00  0.00    +0.000 C 
ATOM      7  C   UNL     1       9.998  12.257  21.184  0.00  0.00    +0.000 C 
ATOM      8  C   UNL     1      10.505  12.543  19.788  0.00  0.00    +0.000 A 
ATOM      9  C   UNL     1      11.122  11.506  19.057  0.00  0.00    +0.000 A 
ATOM     10  C   UNL     1      11.613  11.731  17.763  0.00  0.00    +0.000 A 
ATOM     11  C   UNL     1      11.514  12.986  17.186  0.00  0.00    +0.000 A 
ATOM     12  C   UNL     1      10.907  14.030  17.911  0.00  0.00    +0.000 A 
ATOM     13  C   UNL     1      10.418  13.841  19.232  0.00  0.00    +0.000 A 
ATOM     14  C   UNL     1       9.740  14.983  20.025  0.00  0.00    +0.000 C 
ATOM     15  C   UNL     1       8.185  14.836  19.702  0.00  0.00    +0.000 C 
ATOM     16  C   UNL     1       7.253  14.500  20.930  0.00  0.00    +0.000 C 
ATOM     17  N   UNL     1       7.815  13.460  21.888  0.00  0.00    +0.000 NA
ATOM     18  C   UNL     1      10.453  16.334  19.667  0.00  0.00    +0.000 C 
ENDROOT
BRANCH  11  19
ATOM     19  O   UNL     1      11.975  13.230  15.951  0.00  0.00    +0.000 OA
ATOM     20  H   UNL     1      11.387  13.253  15.178  0.00  0.00    +0.000 HD
ENDBRANCH  11  19
BRANCH  17  21
ATOM     21  C   UNL     1       7.361  13.726  23.292  0.00  0.00    +0.000 C 
BRANCH  21  22
ATOM     22  C   UNL     1       8.360  13.539  24.441  0.00  0.00    +0.000 C 
ATOM     23  C   UNL     1       8.583  14.691  25.413  0.00  0.00    +0.000 C 
ATOM     24  C   UNL     1       8.584  13.652  26.541  0.00  0.00    +0.000 C 
ATOM     25  C   UNL     1       7.801  12.727  25.621  0.00  0.00    +0.000 C 
ENDBRANCH  21  22
ENDBRANCH  17  21
TORSDOF 3
ENDMDL
MODEL 9
REMARK VINA RESULT:      -6.1      8.999     11.902
REMARK  Name = 
REMARK  3 active torsions:
REMARK  status: ('A' for Active; 'I' for Inactive)
REMARK    1  A    between atoms: C_11  and  O_12
REMARK    2  A    between atoms: N_18  and  C_19
REMARK    3  A    between atoms: C_19  and  C_20
REMARK                            x       y       z     vdW  Elec       q    Type
REMARK                         _______ _______ _______ _____ _____    ______ ____
ROOT
ATOM      1  O   UNL     1       2.890  13.824  21.583  0.00  0.00    +0.000 OA
ATOM      2  C   UNL     1       1.831  13.950  20.987  0.00  0.00    +0.000 C 
ATOM      3  C   UNL     1       1.789  13.884  19.483  0.00  0.00    +0.000 C 
ATOM      4  C   UNL     1       0.305  14.044  18.951  0.00  0.00    +0.000 C 
ATOM      5  C   UNL     1      -0.693  13.169  19.810  0.00  0.00    +0.000 C 
ATOM      6  C   UNL     1      -1.824  12.246  19.348  0.00  0.00    +0.000 C 
ATOM      7  C   UNL     1      -3.167  12.530  20.101  0.00  0.00    +0.000 C 
ATOM      8  C   UNL     1      -3.080  13.069  21.511  0.00  0.00    +0.000 A 
ATOM      9  C   UNL     1      -4.272  13.353  22.210  0.00  0.00    +0.000 A 
ATOM     10  C   UNL     1      -4.238  13.862  23.516  0.00  0.00    +0.000 A 
ATOM     11  C   UNL     1      -3.024  14.110  24.138  0.00  0.00    +0.000 A 
ATOM     12  C   UNL     1      -1.829  13.836  23.445  0.00  0.00    +0.000 A 
ATOM     13  C   UNL     1      -1.830  13.340  22.114  0.00  0.00    +0.000 A 
ATOM     14  C   UNL     1      -0.517  13.028  21.356  0.00  0.00    +0.000 C 
ATOM     15  C   UNL     1      -0.229  11.489  21.657  0.00  0.00    +0.000 C 
ATOM     16  C   UNL     1      -0.249  10.525  20.409  0.00  0.00    +0.000 C 
ATOM     17  N   UNL     1      -1.374  10.790  19.419  0.00  0.00    +0.000 NA
ATOM     18  C   UNL     1       0.564  14.087  21.770  0.00  0.00    +0.000 C 
ENDROOT
BRANCH  11  19
ATOM     19  O   UNL     1      -2.961  14.596  25.385  0.00  0.00    +0.000 OA
ATOM     20  H   UNL     1      -3.661  14.431  26.038  0.00  0.00    +0.000 HD
ENDBRANCH  11  19
BRANCH  17  21
ATOM     21  C   UNL     1      -0.945  10.457  18.021  0.00  0.00    +0.000 C 
BRANCH  21  22
ATOM     22  C   UNL     1      -1.990   9.919  17.035  0.00  0.00    +0.000 C 
ATOM     23  C   UNL     1      -3.418   9.711  17.523  0.00  0.00    +0.000 C 
ATOM     24  C   UNL     1      -3.890  10.301  16.188  0.00  0.00    +0.000 C 
ATOM     25  C   UNL     1      -2.535  10.985  16.069  0.00  0.00    +0.000 C 
ENDBRANCH  21  22
ENDBRANCH  17  21
TORSDOF 3
ENDMDL
