MODEL 1
REMARK VINA RESULT:      -8.6      0.000      0.000
REMARK  Name = 
REMARK  5 active torsions:
REMARK  status: ('A' for Active; 'I' for Inactive)
REMARK    1  A    between atoms: C_1  and  N_2
REMARK    2  A    between atoms: C_4  and  C_5
REMARK    3  A    between atoms: C_5  and  O_7
REMARK    4  A    between atoms: C_12  and  N_13
REMARK    5  A    between atoms: C_14  and  N_15
REMARK                            x       y       z     vdW  Elec       q    Type
REMARK                         _______ _______ _______ _____ _____    ______ ____
ROOT
ATOM      1  C   UNL     1       1.925   5.273  21.047  0.00  0.00    +0.000 C 
ATOM      2  N   UNL     1       2.612   5.708  19.827  0.00  0.00    +0.000 N 
ATOM      3  C   UNL     1       3.486   4.869  19.152  0.00  0.00    +0.000 A 
ATOM      4  C   UNL     1       4.189   5.169  18.048  0.00  0.00    +0.000 A 
ATOM      5  C   UNL     1       4.031   6.530  17.512  0.00  0.00    +0.000 A 
ATOM      6  O   UNL     1       4.667   6.878  16.524  0.00  0.00    +0.000 OA
ATOM      7  C   UNL     1       3.072   7.434  18.178  0.00  0.00    +0.000 A 
ATOM      8  C   UNL     1       2.908   8.708  17.634  0.00  0.00    +0.000 A 
ATOM      9  C   UNL     1       1.984   9.584  18.200  0.00  0.00    +0.000 A 
ATOM     10  C   UNL     1       1.239   9.202  19.344  0.00  0.00    +0.000 A 
ATOM     11  C   UNL     1       1.464   7.926  19.905  0.00  0.00    +0.000 A 
ATOM     12  C   UNL     1       2.379   7.012  19.327  0.00  0.00    +0.000 A 
ENDROOT
BRANCH  10  13
ATOM     13  N   UNL     1       0.304  10.105  19.847  0.00  0.00    +0.000 N 
ATOM     14  C   UNL     1       0.148  10.333  21.285  0.00  0.00    +0.000 C 
ATOM     15  C   UNL     1      -0.417  11.754  21.496  0.00  0.00    +0.000 C 
ATOM     16  N   UNL     1      -1.639  11.998  20.702  0.00  0.00    +0.000 N 
ATOM     17  C   UNL     1      -2.736  12.685  21.197  0.00  0.00    +0.000 C 
ATOM     18  N   UNL     1      -3.917  12.599  20.642  0.00  0.00    +0.000 NA
ATOM     19  C   UNL     1      -4.999  13.159  21.371  0.00  0.00    +0.000 A 
ATOM     20  C   UNL     1      -5.918  13.967  20.713  0.00  0.00    +0.000 A 
ATOM     21  C   UNL     1      -6.910  14.632  21.441  0.00  0.00    +0.000 A 
ATOM     22  C   UNL     1      -7.071  14.391  22.809  0.00  0.00    +0.000 A 
ATOM     23  C   UNL     1      -6.184  13.562  23.484  0.00  0.00    +0.000 A 
ATOM     24  C   UNL     1      -5.104  13.034  22.781  0.00  0.00    +0.000 A 
ATOM     25  S   UNL     1      -3.597  12.701  23.716  0.00  0.00    +0.000 S 
ATOM     26  C   UNL     1      -2.575  13.537  22.464  0.00  0.00    +0.000 C 
ATOM     27  C   UNL     1      -1.563  11.600  19.285  0.00  0.00    +0.000 C 
ATOM     28  C   UNL     1      -0.997  10.172  19.135  0.00  0.00    +0.000 C 
ENDBRANCH  10  13
BRANCH   9  29
ATOM     29  N   UNL     1       1.973  10.921  17.751  0.00  0.00    +0.000 N 
ATOM     30  H   UNL     1       2.458  11.073  16.875  0.00  0.00    +0.000 HD
ATOM     31  H   UNL     1       1.044  11.321  17.799  0.00  0.00    +0.000 HD
ENDBRANCH   9  29
BRANCH   4  32
ATOM     32  C   UNL     1       5.066   4.158  17.421  0.00  0.00    +0.000 C 
ATOM     33  O   UNL     1       4.810   3.617  16.355  0.00  0.00    +0.000 OA
BRANCH  32  34
ATOM     34  O   UNL     1       6.187   3.875  18.119  0.00  0.00    +0.000 OA
ATOM     35  H   UNL     1       6.681   4.673  18.435  0.00  0.00    +0.000 HD
ENDBRANCH  32  34
ENDBRANCH   4  32
TORSDOF 4
ENDMDL
MODEL 2
REMARK VINA RESULT:      -7.4      5.091     10.952
REMARK  Name = 
REMARK  5 active torsions:
REMARK  status: ('A' for Active; 'I' for Inactive)
REMARK    1  A    between atoms: C_1  and  N_2
REMARK    2  A    between atoms: C_4  and  C_5
REMARK    3  A    between atoms: C_5  and  O_7
REMARK    4  A    between atoms: C_12  and  N_13
REMARK    5  A    between atoms: C_14  and  N_15
REMARK                            x       y       z     vdW  Elec       q    Type
REMARK                         _______ _______ _______ _____ _____    ______ ____
ROOT
ATOM      1  C   UNL     1      -0.310  14.438  19.062  0.00  0.00    +0.000 C 
ATOM      2  N   UNL     1      -0.997  14.037  20.294  0.00  0.00    +0.000 N 
ATOM      3  C   UNL     1      -1.860  14.900  20.953  0.00  0.00    +0.000 A 
ATOM      4  C   UNL     1      -2.518  14.652  22.097  0.00  0.00    +0.000 A 
ATOM      5  C   UNL     1      -2.285  13.342  22.724  0.00  0.00    +0.000 A 
ATOM      6  O   UNL     1      -2.831  13.063  23.785  0.00  0.00    +0.000 OA
ATOM      7  C   UNL     1      -1.410  12.380  22.024  0.00  0.00    +0.000 A 
ATOM      8  C   UNL     1      -1.229  11.129  22.614  0.00  0.00    +0.000 A 
ATOM      9  C   UNL     1      -0.447  10.171  21.972  0.00  0.00    +0.000 A 
ATOM     10  C   UNL     1       0.194  10.473  20.745  0.00  0.00    +0.000 A 
ATOM     11  C   UNL     1       0.037  11.765  20.197  0.00  0.00    +0.000 A 
ATOM     12  C   UNL     1      -0.776  12.743  20.822  0.00  0.00    +0.000 A 
ENDROOT
BRANCH  10  13
ATOM     13  N   UNL     1       0.936   9.466  20.129  0.00  0.00    +0.000 N 
ATOM     14  C   UNL     1       1.699   8.487  20.907  0.00  0.00    +0.000 C 
ATOM     15  C   UNL     1       1.841   7.199  20.066  0.00  0.00    +0.000 C 
ATOM     16  N   UNL     1       2.380   7.465  18.716  0.00  0.00    +0.000 N 
ATOM     17  C   UNL     1       3.315   6.646  18.103  0.00  0.00    +0.000 C 
ATOM     18  N   UNL     1       4.037   7.053  17.092  0.00  0.00    +0.000 NA
ATOM     19  C   UNL     1       5.113   6.211  16.704  0.00  0.00    +0.000 A 
ATOM     20  C   UNL     1       5.302   5.923  15.358  0.00  0.00    +0.000 A 
ATOM     21  C   UNL     1       6.272   4.992  14.973  0.00  0.00    +0.000 A 
ATOM     22  C   UNL     1       7.145   4.442  15.917  0.00  0.00    +0.000 A 
ATOM     23  C   UNL     1       6.997   4.738  17.266  0.00  0.00    +0.000 A 
ATOM     24  C   UNL     1       5.926   5.540  17.655  0.00  0.00    +0.000 A 
ATOM     25  S   UNL     1       5.248   5.265  19.304  0.00  0.00    +0.000 S 
ATOM     26  C   UNL     1       3.548   5.233  18.656  0.00  0.00    +0.000 C 
ATOM     27  C   UNL     1       1.744   8.576  17.987  0.00  0.00    +0.000 C 
ATOM     28  C   UNL     1       1.634   9.835  18.873  0.00  0.00    +0.000 C 
ENDBRANCH  10  13
BRANCH   9  29
ATOM     29  N   UNL     1      -0.130   8.991  22.675  0.00  0.00    +0.000 N 
ATOM     30  H   UNL     1      -0.931   8.422  22.922  0.00  0.00    +0.000 HD
ATOM     31  H   UNL     1       0.629   8.487  22.233  0.00  0.00    +0.000 HD
ENDBRANCH   9  29
BRANCH   4  32
ATOM     32  C   UNL     1      -3.429  15.664  22.671  0.00  0.00    +0.000 C 
ATOM     33  O   UNL     1      -3.086  16.811  22.918  0.00  0.00    +0.000 OA
BRANCH  32  34
ATOM     34  O   UNL     1      -4.685  15.225  22.902  0.00  0.00    +0.000 OA
ATOM     35  H   UNL     1      -5.274  15.242  22.106  0.00  0.00    +0.000 HD
ENDBRANCH  32  34
ENDBRANCH   4  32
TORSDOF 4
ENDMDL
MODEL 3
REMARK VINA RESULT:      -7.4      5.083     10.239
REMARK  Name = 
REMARK  5 active torsions:
REMARK  status: ('A' for Active; 'I' for Inactive)
REMARK    1  A    between atoms: C_1  and  N_2
REMARK    2  A    between atoms: C_4  and  C_5
REMARK    3  A    between atoms: C_5  and  O_7
REMARK    4  A    between atoms: C_12  and  N_13
REMARK    5  A    between atoms: C_14  and  N_15
REMARK                            x       y       z     vdW  Elec       q    Type
REMARK                         _______ _______ _______ _____ _____    ______ ____
ROOT
ATOM      1  C   UNL     1      -3.010  13.314  21.165  0.00  0.00    +0.000 C 
ATOM      2  N   UNL     1      -2.095  14.244  20.497  0.00  0.00    +0.000 N 
ATOM      3  C   UNL     1      -2.342  15.609  20.473  0.00  0.00    +0.000 A 
ATOM      4  C   UNL     1      -1.593  16.546  19.870  0.00  0.00    +0.000 A 
ATOM      5  C   UNL     1      -0.402  16.076  19.145  0.00  0.00    +0.000 A 
ATOM      6  O   UNL     1       0.308  16.876  18.547  0.00  0.00    +0.000 OA
ATOM      7  C   UNL     1      -0.082  14.635  19.191  0.00  0.00    +0.000 A 
ATOM      8  C   UNL     1       1.071  14.212  18.529  0.00  0.00    +0.000 A 
ATOM      9  C   UNL     1       1.439  12.869  18.577  0.00  0.00    +0.000 A 
ATOM     10  C   UNL     1       0.631  11.927  19.262  0.00  0.00    +0.000 A 
ATOM     11  C   UNL     1      -0.558  12.374  19.877  0.00  0.00    +0.000 A 
ATOM     12  C   UNL     1      -0.935  13.740  19.862  0.00  0.00    +0.000 A 
ENDROOT
BRANCH  10  13
ATOM     13  N   UNL     1       1.066  10.604  19.307  0.00  0.00    +0.000 N 
ATOM     14  C   UNL     1       1.125   9.770  18.104  0.00  0.00    +0.000 C 
ATOM     15  C   UNL     1       2.199   8.680  18.318  0.00  0.00    +0.000 C 
ATOM     16  N   UNL     1       1.996   7.929  19.574  0.00  0.00    +0.000 N 
ATOM     17  C   UNL     1       2.171   6.558  19.670  0.00  0.00    +0.000 C 
ATOM     18  N   UNL     1       1.666   5.861  20.655  0.00  0.00    +0.000 NA
ATOM     19  C   UNL     1       1.715   4.449  20.519  0.00  0.00    +0.000 A 
ATOM     20  C   UNL     1       2.141   3.675  21.591  0.00  0.00    +0.000 A 
ATOM     21  C   UNL     1       2.320   2.297  21.430  0.00  0.00    +0.000 A 
ATOM     22  C   UNL     1       1.952   1.666  20.238  0.00  0.00    +0.000 A 
ATOM     23  C   UNL     1       1.493   2.413  19.161  0.00  0.00    +0.000 A 
ATOM     24  C   UNL     1       1.471   3.801  19.279  0.00  0.00    +0.000 A 
ATOM     25  S   UNL     1       1.694   4.760  17.766  0.00  0.00    +0.000 S 
ATOM     26  C   UNL     1       2.937   5.823  18.561  0.00  0.00    +0.000 C 
ATOM     27  C   UNL     1       1.749   8.753  20.771  0.00  0.00    +0.000 C 
ATOM     28  C   UNL     1       0.666   9.819  20.501  0.00  0.00    +0.000 C 
ENDBRANCH  10  13
BRANCH   9  29
ATOM     29  N   UNL     1       2.497  12.439  17.750  0.00  0.00    +0.000 N 
ATOM     30  H   UNL     1       3.269  13.092  17.684  0.00  0.00    +0.000 HD
ATOM     31  H   UNL     1       2.764  11.484  17.954  0.00  0.00    +0.000 HD
ENDBRANCH   9  29
BRANCH   4  32
ATOM     32  C   UNL     1      -1.969  17.972  19.952  0.00  0.00    +0.000 C 
ATOM     33  O   UNL     1      -2.077  18.577  21.009  0.00  0.00    +0.000 OA
BRANCH  32  34
ATOM     34  O   UNL     1      -2.185  18.568  18.759  0.00  0.00    +0.000 OA
ATOM     35  H   UNL     1      -3.069  19.006  18.678  0.00  0.00    +0.000 HD
ENDBRANCH  32  34
ENDBRANCH   4  32
TORSDOF 4
ENDMDL
MODEL 4
REMARK VINA RESULT:      -7.3      1.801      2.468
REMARK  Name = 
REMARK  5 active torsions:
REMARK  status: ('A' for Active; 'I' for Inactive)
REMARK    1  A    between atoms: C_1  and  N_2
REMARK    2  A    between atoms: C_4  and  C_5
REMARK    3  A    between atoms: C_5  and  O_7
REMARK    4  A    between atoms: C_12  and  N_13
REMARK    5  A    between atoms: C_14  and  N_15
REMARK                            x       y       z     vdW  Elec       q    Type
REMARK                         _______ _______ _______ _____ _____    ______ ____
ROOT
ATOM      1  C   UNL     1       2.084   4.989  21.200  0.00  0.00    +0.000 C 
ATOM      2  N   UNL     1       2.686   5.393  19.925  0.00  0.00    +0.000 N 
ATOM      3  C   UNL     1       3.478   4.522  19.193  0.00  0.00    +0.000 A 
ATOM      4  C   UNL     1       4.100   4.791  18.033  0.00  0.00    +0.000 A 
ATOM      5  C   UNL     1       3.942   6.151  17.497  0.00  0.00    +0.000 A 
ATOM      6  O   UNL     1       4.509   6.472  16.458  0.00  0.00    +0.000 OA
ATOM      7  C   UNL     1       3.066   7.089  18.226  0.00  0.00    +0.000 A 
ATOM      8  C   UNL     1       2.897   8.364  17.684  0.00  0.00    +0.000 A 
ATOM      9  C   UNL     1       2.048   9.273  18.310  0.00  0.00    +0.000 A 
ATOM     10  C   UNL     1       1.384   8.923  19.513  0.00  0.00    +0.000 A 
ATOM     11  C   UNL     1       1.615   7.646  20.068  0.00  0.00    +0.000 A 
ATOM     12  C   UNL     1       2.454   6.699  19.431  0.00  0.00    +0.000 A 
ENDROOT
BRANCH  10  13
ATOM     13  N   UNL     1       0.519   9.859  20.078  0.00  0.00    +0.000 N 
ATOM     14  C   UNL     1      -0.108  10.911  19.276  0.00  0.00    +0.000 C 
ATOM     15  C   UNL     1      -1.427  11.328  19.963  0.00  0.00    +0.000 C 
ATOM     16  N   UNL     1      -1.236  11.675  21.387  0.00  0.00    +0.000 N 
ATOM     17  C   UNL     1      -1.871  12.746  21.995  0.00  0.00    +0.000 C 
ATOM     18  N   UNL     1      -1.448  13.255  23.121  0.00  0.00    +0.000 NA
ATOM     19  C   UNL     1      -2.036  14.484  23.520  0.00  0.00    +0.000 A 
ATOM     20  C   UNL     1      -2.463  14.642  24.833  0.00  0.00    +0.000 A 
ATOM     21  C   UNL     1      -3.163  15.794  25.206  0.00  0.00    +0.000 A 
ATOM     22  C   UNL     1      -3.328  16.850  24.304  0.00  0.00    +0.000 A 
ATOM     23  C   UNL     1      -2.883  16.730  22.993  0.00  0.00    +0.000 A 
ATOM     24  C   UNL     1      -2.332  15.516  22.590  0.00  0.00    +0.000 A 
ATOM     25  S   UNL     1      -2.523  15.061  20.854  0.00  0.00    +0.000 S 
ATOM     26  C   UNL     1      -3.081  13.388  21.301  0.00  0.00    +0.000 C 
ATOM     27  C   UNL     1      -0.443  10.712  22.172  0.00  0.00    +0.000 C 
ATOM     28  C   UNL     1       0.864  10.337  21.440  0.00  0.00    +0.000 C 
ENDBRANCH  10  13
BRANCH   9  29
ATOM     29  N   UNL     1       2.042  10.606  17.850  0.00  0.00    +0.000 N 
ATOM     30  H   UNL     1       1.122  11.026  17.796  0.00  0.00    +0.000 HD
ATOM     31  H   UNL     1       2.739  11.166  18.325  0.00  0.00    +0.000 HD
ENDBRANCH   9  29
BRANCH   4  32
ATOM     32  C   UNL     1       4.895   3.748  17.351  0.00  0.00    +0.000 C 
ATOM     33  O   UNL     1       4.454   2.640  17.079  0.00  0.00    +0.000 OA
BRANCH  32  34
ATOM     34  O   UNL     1       6.157   4.114  17.040  0.00  0.00    +0.000 OA
ATOM     35  H   UNL     1       6.845   3.442  17.280  0.00  0.00    +0.000 HD
ENDBRANCH  32  34
ENDBRANCH   4  32
TORSDOF 4
ENDMDL
MODEL 5
REMARK VINA RESULT:      -7.0      4.906     10.908
REMARK  Name = 
REMARK  5 active torsions:
REMARK  status: ('A' for Active; 'I' for Inactive)
REMARK    1  A    between atoms: C_1  and  N_2
REMARK    2  A    between atoms: C_4  and  C_5
REMARK    3  A    between atoms: C_5  and  O_7
REMARK    4  A    between atoms: C_12  and  N_13
REMARK    5  A    between atoms: C_14  and  N_15
REMARK                            x       y       z     vdW  Elec       q    Type
REMARK                         _______ _______ _______ _____ _____    ______ ____
ROOT
ATOM      1  C   UNL     1      -3.095  12.073  18.396  0.00  0.00    +0.000 C 
ATOM      2  N   UNL     1      -2.904  12.254  19.839  0.00  0.00    +0.000 N 
ATOM      3  C   UNL     1      -3.728  13.089  20.577  0.00  0.00    +0.000 A 
ATOM      4  C   UNL     1      -3.629  13.352  21.891  0.00  0.00    +0.000 A 
ATOM      5  C   UNL     1      -2.523  12.705  22.614  0.00  0.00    +0.000 A 
ATOM      6  O   UNL     1      -2.357  12.927  23.808  0.00  0.00    +0.000 OA
ATOM      7  C   UNL     1      -1.655  11.772  21.868  0.00  0.00    +0.000 A 
ATOM      8  C   UNL     1      -0.634  11.139  22.578  0.00  0.00    +0.000 A 
ATOM      9  C   UNL     1       0.186  10.218  21.930  0.00  0.00    +0.000 A 
ATOM     10  C   UNL     1       0.012   9.948  20.549  0.00  0.00    +0.000 A 
ATOM     11  C   UNL     1      -0.994  10.642  19.844  0.00  0.00    +0.000 A 
ATOM     12  C   UNL     1      -1.855  11.562  20.492  0.00  0.00    +0.000 A 
ENDROOT
BRANCH  10  13
ATOM     13  N   UNL     1       0.838   8.991  19.961  0.00  0.00    +0.000 N 
ATOM     14  C   UNL     1       1.679   8.100  20.765  0.00  0.00    +0.000 C 
ATOM     15  C   UNL     1       1.930   6.808  19.957  0.00  0.00    +0.000 C 
ATOM     16  N   UNL     1       2.450   7.083  18.601  0.00  0.00    +0.000 N 
ATOM     17  C   UNL     1       3.452   6.330  18.010  0.00  0.00    +0.000 C 
ATOM     18  N   UNL     1       4.140   6.771  16.990  0.00  0.00    +0.000 NA
ATOM     19  C   UNL     1       5.284   6.013  16.625  0.00  0.00    +0.000 A 
ATOM     20  C   UNL     1       5.500   5.707  15.286  0.00  0.00    +0.000 A 
ATOM     21  C   UNL     1       6.547   4.851  14.927  0.00  0.00    +0.000 A 
ATOM     22  C   UNL     1       7.460   4.401  15.885  0.00  0.00    +0.000 A 
ATOM     23  C   UNL     1       7.284   4.719  17.226  0.00  0.00    +0.000 A 
ATOM     24  C   UNL     1       6.148   5.437  17.593  0.00  0.00    +0.000 A 
ATOM     25  S   UNL     1       5.491   5.149  19.249  0.00  0.00    +0.000 S 
ATOM     26  C   UNL     1       3.802   4.957  18.600  0.00  0.00    +0.000 C 
ATOM     27  C   UNL     1       1.723   8.117  17.843  0.00  0.00    +0.000 C 
ATOM     28  C   UNL     1       1.506   9.385  18.696  0.00  0.00    +0.000 C 
ENDBRANCH  10  13
BRANCH   9  29
ATOM     29  N   UNL     1       1.320   9.737  22.618  0.00  0.00    +0.000 N 
ATOM     30  H   UNL     1       2.146  10.314  22.516  0.00  0.00    +0.000 HD
ATOM     31  H   UNL     1       1.095   9.479  23.570  0.00  0.00    +0.000 HD
ENDBRANCH   9  29
BRANCH   4  32
ATOM     32  C   UNL     1      -4.602  14.248  22.550  0.00  0.00    +0.000 C 
ATOM     33  O   UNL     1      -4.909  15.346  22.108  0.00  0.00    +0.000 OA
BRANCH  32  34
ATOM     34  O   UNL     1      -5.137  13.758  23.690  0.00  0.00    +0.000 OA
ATOM     35  H   UNL     1      -4.626  13.984  24.507  0.00  0.00    +0.000 HD
ENDBRANCH  32  34
ENDBRANCH   4  32
TORSDOF 4
ENDMDL
MODEL 6
REMARK VINA RESULT:      -6.9      5.128     10.440
REMARK  Name = 
REMARK  5 active torsions:
REMARK  status: ('A' for Active; 'I' for Inactive)
REMARK    1  A    between atoms: C_1  and  N_2
REMARK    2  A    between atoms: C_4  and  C_5
REMARK    3  A    between atoms: C_5  and  O_7
REMARK    4  A    between atoms: C_12  and  N_13
REMARK    5  A    between atoms: C_14  and  N_15
REMARK                            x       y       z     vdW  Elec       q    Type
REMARK                         _______ _______ _______ _____ _____    ______ ____
ROOT
ATOM      1  C   UNL     1      -4.238  12.749  21.243  0.00  0.00    +0.000 C 
ATOM      2  N   UNL     1      -3.325  13.859  20.952  0.00  0.00    +0.000 N 
ATOM      3  C   UNL     1      -3.727  15.179  21.087  0.00  0.00    +0.000 A 
ATOM      4  C   UNL     1      -2.989  16.270  20.821  0.00  0.00    +0.000 A 
ATOM      5  C   UNL     1      -1.626  16.041  20.319  0.00  0.00    +0.000 A 
ATOM      6  O   UNL     1      -0.911  16.993  20.028  0.00  0.00    +0.000 OA
ATOM      7  C   UNL     1      -1.149  14.648  20.209  0.00  0.00    +0.000 A 
ATOM      8  C   UNL     1       0.160  14.451  19.766  0.00  0.00    +0.000 A 
ATOM      9  C   UNL     1       0.672  13.158  19.686  0.00  0.00    +0.000 A 
ATOM     10  C   UNL     1      -0.139  12.043  20.016  0.00  0.00    +0.000 A 
ATOM     11  C   UNL     1      -1.475  12.268  20.410  0.00  0.00    +0.000 A 
ATOM     12  C   UNL     1      -2.005  13.578  20.524  0.00  0.00    +0.000 A 
ENDROOT
BRANCH  10  13
ATOM     13  N   UNL     1       0.436  10.774  19.950  0.00  0.00    +0.000 N 
ATOM     14  C   UNL     1       0.622  10.077  18.675  0.00  0.00    +0.000 C 
ATOM     15  C   UNL     1       1.800   9.090  18.826  0.00  0.00    +0.000 C 
ATOM     16  N   UNL     1       1.644   8.200  19.995  0.00  0.00    +0.000 N 
ATOM     17  C   UNL     1       1.964   6.852  19.964  0.00  0.00    +0.000 C 
ATOM     18  N   UNL     1       1.509   6.011  20.856  0.00  0.00    +0.000 NA
ATOM     19  C   UNL     1       1.715   4.632  20.586  0.00  0.00    +0.000 A 
ATOM     20  C   UNL     1       2.191   3.803  21.595  0.00  0.00    +0.000 A 
ATOM     21  C   UNL     1       2.524   2.475  21.308  0.00  0.00    +0.000 A 
ATOM     22  C   UNL     1       2.262   1.932  20.047  0.00  0.00    +0.000 A 
ATOM     23  C   UNL     1       1.757   2.731  19.029  0.00  0.00    +0.000 A 
ATOM     24  C   UNL     1       1.581   4.090  19.280  0.00  0.00    +0.000 A 
ATOM     25  S   UNL     1       1.742   5.214  17.877  0.00  0.00    +0.000 S 
ATOM     26  C   UNL     1       2.838   6.317  18.821  0.00  0.00    +0.000 C 
ATOM     27  C   UNL     1       1.272   8.868  21.255  0.00  0.00    +0.000 C 
ATOM     28  C   UNL     1       0.088   9.836  21.046  0.00  0.00    +0.000 C 
ENDBRANCH  10  13
BRANCH   9  29
ATOM     29  N   UNL     1       1.923  12.975  19.061  0.00  0.00    +0.000 N 
ATOM     30  H   UNL     1       1.888  12.435  18.204  0.00  0.00    +0.000 HD
ATOM     31  H   UNL     1       2.436  13.845  18.995  0.00  0.00    +0.000 HD
ENDBRANCH   9  29
BRANCH   4  32
ATOM     32  C   UNL     1      -3.547  17.621  21.038  0.00  0.00    +0.000 C 
ATOM     33  O   UNL     1      -4.182  17.932  22.036  0.00  0.00    +0.000 OA
BRANCH  32  34
ATOM     34  O   UNL     1      -3.297  18.501  20.044  0.00  0.00    +0.000 OA
ATOM     35  H   UNL     1      -4.021  19.159  19.893  0.00  0.00    +0.000 HD
ENDBRANCH  32  34
ENDBRANCH   4  32
TORSDOF 4
ENDMDL
MODEL 7
REMARK VINA RESULT:      -6.8      3.645      4.572
REMARK  Name = 
REMARK  5 active torsions:
REMARK  status: ('A' for Active; 'I' for Inactive)
REMARK    1  A    between atoms: C_1  and  N_2
REMARK    2  A    between atoms: C_4  and  C_5
REMARK    3  A    between atoms: C_5  and  O_7
REMARK    4  A    between atoms: C_12  and  N_13
REMARK    5  A    between atoms: C_14  and  N_15
REMARK                            x       y       z     vdW  Elec       q    Type
REMARK                         _______ _______ _______ _____ _____    ______ ____
ROOT
ATOM      1  C   UNL     1       4.307   6.787  17.085  0.00  0.00    +0.000 C 
ATOM      2  N   UNL     1       3.728   5.953  18.143  0.00  0.00    +0.000 N 
ATOM      3  C   UNL     1       4.095   4.625  18.298  0.00  0.00    +0.000 A 
ATOM      4  C   UNL     1       3.612   3.763  19.208  0.00  0.00    +0.000 A 
ATOM      5  C   UNL     1       2.577   4.275  20.120  0.00  0.00    +0.000 A 
ATOM      6  O   UNL     1       2.073   3.532  20.954  0.00  0.00    +0.000 OA
ATOM      7  C   UNL     1       2.198   5.698  20.015  0.00  0.00    +0.000 A 
ATOM      8  C   UNL     1       1.242   6.176  20.912  0.00  0.00    +0.000 A 
ATOM      9  C   UNL     1       0.881   7.520  20.882  0.00  0.00    +0.000 A 
ATOM     10  C   UNL     1       1.451   8.396  19.924  0.00  0.00    +0.000 A 
ATOM     11  C   UNL     1       2.376   7.874  18.995  0.00  0.00    +0.000 A 
ATOM     12  C   UNL     1       2.776   6.515  19.027  0.00  0.00    +0.000 A 
ENDROOT
BRANCH  10  13
ATOM     13  N   UNL     1       1.079   9.739  19.963  0.00  0.00    +0.000 N 
ATOM     14  C   UNL     1       1.385  10.655  18.862  0.00  0.00    +0.000 C 
ATOM     15  C   UNL     1       0.343  11.795  18.872  0.00  0.00    +0.000 C 
ATOM     16  N   UNL     1       0.231  12.444  20.196  0.00  0.00    +0.000 N 
ATOM     17  C   UNL     1       0.098  13.814  20.356  0.00  0.00    +0.000 C 
ATOM     18  N   UNL     1       0.348  14.406  21.494  0.00  0.00    +0.000 NA
ATOM     19  C   UNL     1       0.401  15.825  21.469  0.00  0.00    +0.000 A 
ATOM     20  C   UNL     1      -0.265  16.550  22.450  0.00  0.00    +0.000 A 
ATOM     21  C   UNL     1      -0.333  17.944  22.363  0.00  0.00    +0.000 A 
ATOM     22  C   UNL     1       0.372  18.630  21.369  0.00  0.00    +0.000 A 
ATOM     23  C   UNL     1       1.072  17.930  20.394  0.00  0.00    +0.000 A 
ATOM     24  C   UNL     1       0.999  16.539  20.397  0.00  0.00    +0.000 A 
ATOM     25  S   UNL     1       1.152  15.703  18.805  0.00  0.00    +0.000 S 
ATOM     26  C   UNL     1      -0.307  14.672  19.149  0.00  0.00    +0.000 C 
ATOM     27  C   UNL     1       0.109  11.525  21.342  0.00  0.00    +0.000 C 
ATOM     28  C   UNL     1       1.176  10.412  21.282  0.00  0.00    +0.000 C 
ENDBRANCH  10  13
BRANCH   9  29
ATOM     29  N   UNL     1      -0.216   7.933  21.667  0.00  0.00    +0.000 N 
ATOM     30  H   UNL     1      -0.941   7.233  21.774  0.00  0.00    +0.000 HD
ATOM     31  H   UNL     1       0.087   8.368  22.530  0.00  0.00    +0.000 HD
ENDBRANCH   9  29
BRANCH   4  32
ATOM     32  C   UNL     1       4.119   2.377  19.269  0.00  0.00    +0.000 C 
ATOM     33  O   UNL     1       3.630   1.455  18.633  0.00  0.00    +0.000 OA
BRANCH  32  34
ATOM     34  O   UNL     1       5.180   2.201  20.087  0.00  0.00    +0.000 OA
ATOM     35  H   UNL     1       5.975   1.812  19.642  0.00  0.00    +0.000 HD
ENDBRANCH  32  34
ENDBRANCH   4  32
TORSDOF 4
ENDMDL
MODEL 8
REMARK VINA RESULT:      -6.8      5.196     10.595
REMARK  Name = 
REMARK  5 active torsions:
REMARK  status: ('A' for Active; 'I' for Inactive)
REMARK    1  A    between atoms: C_1  and  N_2
REMARK    2  A    between atoms: C_4  and  C_5
REMARK    3  A    between atoms: C_5  and  O_7
REMARK    4  A    between atoms: C_12  and  N_13
REMARK    5  A    between atoms: C_14  and  N_15
REMARK                            x       y       z     vdW  Elec       q    Type
REMARK                         _______ _______ _______ _____ _____    ______ ____
ROOT
ATOM      1  C   UNL     1      -4.942  12.296  19.923  0.00  0.00    +0.000 C 
ATOM      2  N   UNL     1      -4.126  13.436  20.353  0.00  0.00    +0.000 N 
ATOM      3  C   UNL     1      -4.697  14.668  20.632  0.00  0.00    +0.000 A 
ATOM      4  C   UNL     1      -4.048  15.784  21.004  0.00  0.00    +0.000 A 
ATOM      5  C   UNL     1      -2.584  15.694  21.108  0.00  0.00    +0.000 A 
ATOM      6  O   UNL     1      -1.928  16.683  21.413  0.00  0.00    +0.000 OA
ATOM      7  C   UNL     1      -1.947  14.384  20.865  0.00  0.00    +0.000 A 
ATOM      8  C   UNL     1      -0.561  14.308  21.004  0.00  0.00    +0.000 A 
ATOM      9  C   UNL     1       0.083  13.085  20.827  0.00  0.00    +0.000 A 
ATOM     10  C   UNL     1      -0.656  11.929  20.473  0.00  0.00    +0.000 A 
ATOM     11  C   UNL     1      -2.051  12.046  20.287  0.00  0.00    +0.000 A 
ATOM     12  C   UNL     1      -2.726  13.275  20.489  0.00  0.00    +0.000 A 
ENDROOT
BRANCH  10  13
ATOM     13  N   UNL     1       0.035  10.725  20.343  0.00  0.00    +0.000 N 
ATOM     14  C   UNL     1       0.361  10.161  19.031  0.00  0.00    +0.000 C 
ATOM     15  C   UNL     1       1.613   9.270  19.181  0.00  0.00    +0.000 C 
ATOM     16  N   UNL     1       1.467   8.270  20.259  0.00  0.00    +0.000 N 
ATOM     17  C   UNL     1       1.910   6.962  20.140  0.00  0.00    +0.000 C 
ATOM     18  N   UNL     1       1.480   6.010  20.926  0.00  0.00    +0.000 NA
ATOM     19  C   UNL     1       1.827   4.683  20.558  0.00  0.00    +0.000 A 
ATOM     20  C   UNL     1       2.314   3.813  21.526  0.00  0.00    +0.000 A 
ATOM     21  C   UNL     1       2.784   2.548  21.155  0.00  0.00    +0.000 A 
ATOM     22  C   UNL     1       2.650   2.097  19.838  0.00  0.00    +0.000 A 
ATOM     23  C   UNL     1       2.137   2.937  18.858  0.00  0.00    +0.000 A 
ATOM     24  C   UNL     1       1.823   4.248  19.206  0.00  0.00    +0.000 A 
ATOM     25  S   UNL     1       1.967   5.501  17.915  0.00  0.00    +0.000 S 
ATOM     26  C   UNL     1       2.898   6.606  19.020  0.00  0.00    +0.000 C 
ATOM     27  C   UNL     1       0.960   8.790  21.541  0.00  0.00    +0.000 C 
ATOM     28  C   UNL     1      -0.293   9.668  21.331  0.00  0.00    +0.000 C 
ENDBRANCH  10  13
BRANCH   9  29
ATOM     29  N   UNL     1       1.493  13.075  20.788  0.00  0.00    +0.000 N 
ATOM     30  H   UNL     1       1.908  13.929  20.436  0.00  0.00    +0.000 HD
ATOM     31  H   UNL     1       1.886  12.737  21.658  0.00  0.00    +0.000 HD
ENDBRANCH   9  29
BRANCH   4  32
ATOM     32  C   UNL     1      -4.797  17.024  21.293  0.00  0.00    +0.000 C 
ATOM     33  O   UNL     1      -5.708  17.437  20.590  0.00  0.00    +0.000 OA
BRANCH  32  34
ATOM     34  O   UNL     1      -4.401  17.675  22.409  0.00  0.00    +0.000 OA
ATOM     35  H   UNL     1      -3.710  17.196  22.933  0.00  0.00    +0.000 HD
ENDBRANCH  32  34
ENDBRANCH   4  32
TORSDOF 4
ENDMDL
MODEL 9
REMARK VINA RESULT:      -6.7      3.346      4.105
REMARK  Name = 
REMARK  5 active torsions:
REMARK  status: ('A' for Active; 'I' for Inactive)
REMARK    1  A    between atoms: C_1  and  N_2
REMARK    2  A    between atoms: C_4  and  C_5
REMARK    3  A    between atoms: C_5  and  O_7
REMARK    4  A    between atoms: C_12  and  N_13
REMARK    5  A    between atoms: C_14  and  N_15
REMARK                            x       y       z     vdW  Elec       q    Type
REMARK                         _______ _______ _______ _____ _____    ______ ____
ROOT
ATOM      1  C   UNL     1       4.424   6.670  17.021  0.00  0.00    +0.000 C 
ATOM      2  N   UNL     1       3.783   5.868  18.068  0.00  0.00    +0.000 N 
ATOM      3  C   UNL     1       4.042   4.512  18.198  0.00  0.00    +0.000 A 
ATOM      4  C   UNL     1       3.494   3.676  19.096  0.00  0.00    +0.000 A 
ATOM      5  C   UNL     1       2.506   4.253  20.020  0.00  0.00    +0.000 A 
ATOM      6  O   UNL     1       1.945   3.540  20.844  0.00  0.00    +0.000 OA
ATOM      7  C   UNL     1       2.242   5.704  19.940  0.00  0.00    +0.000 A 
ATOM      8  C   UNL     1       1.329   6.241  20.849  0.00  0.00    +0.000 A 
ATOM      9  C   UNL     1       1.077   7.611  20.843  0.00  0.00    +0.000 A 
ATOM     10  C   UNL     1       1.713   8.454  19.898  0.00  0.00    +0.000 A 
ATOM     11  C   UNL     1       2.591   7.876  18.956  0.00  0.00    +0.000 A 
ATOM     12  C   UNL     1       2.881   6.489  18.964  0.00  0.00    +0.000 A 
ENDROOT
BRANCH  10  13
ATOM     13  N   UNL     1       1.450   9.822  19.960  0.00  0.00    +0.000 N 
ATOM     14  C   UNL     1       0.727  10.417  21.087  0.00  0.00    +0.000 C 
ATOM     15  C   UNL     1       1.152  11.896  21.213  0.00  0.00    +0.000 C 
ATOM     16  N   UNL     1       1.015  12.633  19.939  0.00  0.00    +0.000 N 
ATOM     17  C   UNL     1       0.530  13.929  19.865  0.00  0.00    +0.000 C 
ATOM     18  N   UNL     1       0.087  14.441  18.748  0.00  0.00    +0.000 NA
ATOM     19  C   UNL     1      -0.592  15.684  18.848  0.00  0.00    +0.000 A 
ATOM     20  C   UNL     1      -0.281  16.705  17.958  0.00  0.00    +0.000 A 
ATOM     21  C   UNL     1      -0.844  17.974  18.128  0.00  0.00    +0.000 A 
ATOM     22  C   UNL     1      -1.818  18.196  19.106  0.00  0.00    +0.000 A 
ATOM     23  C   UNL     1      -2.170  17.182  19.988  0.00  0.00    +0.000 A 
ATOM     24  C   UNL     1      -1.486  15.972  19.913  0.00  0.00    +0.000 A 
ATOM     25  S   UNL     1      -1.312  15.027  21.441  0.00  0.00    +0.000 S 
ATOM     26  C   UNL     1       0.465  14.776  21.144  0.00  0.00    +0.000 C 
ATOM     27  C   UNL     1       1.577  11.959  18.755  0.00  0.00    +0.000 C 
ATOM     28  C   UNL     1       1.114  10.488  18.678  0.00  0.00    +0.000 C 
ENDBRANCH  10  13
BRANCH   9  29
ATOM     29  N   UNL     1       0.018   8.097  21.639  0.00  0.00    +0.000 N 
ATOM     30  H   UNL     1      -0.905   7.853  21.301  0.00  0.00    +0.000 HD
ATOM     31  H   UNL     1       0.176   7.908  22.621  0.00  0.00    +0.000 HD
ENDBRANCH   9  29
BRANCH   4  32
ATOM     32  C   UNL     1       3.889   2.253  19.132  0.00  0.00    +0.000 C 
ATOM     33  O   UNL     1       3.269   1.370  18.555  0.00  0.00    +0.000 OA
BRANCH  32  34
ATOM     34  O   UNL     1       5.001   1.995  19.854  0.00  0.00    +0.000 OA
ATOM     35  H   UNL     1       4.927   1.202  20.443  0.00  0.00    +0.000 HD
ENDBRANCH  32  34
ENDBRANCH   4  32
TORSDOF 4
ENDMDL
