MODEL 1
REMARK VINA RESULT:      -7.6      0.000      0.000
REMARK  Name = 
REMARK  4 active torsions:
REMARK  status: ('A' for Active; 'I' for Inactive)
REMARK    1  A    between atoms: C_1  and  S_2
REMARK    2  A    between atoms: S_2  and  C_3
REMARK    3  A    between atoms: C_7  and  N_8
REMARK    4  A    between atoms: C_9  and  C_11
REMARK                            x       y       z     vdW  Elec       q    Type
REMARK                         _______ _______ _______ _____ _____    ______ ____
ROOT
ATOM      1  N   UNL     1       2.590   7.098  18.421  0.00  0.00    +0.000 N 
ATOM      2  C   UNL     1       2.089   7.271  19.696  0.00  0.00    +0.000 C 
ATOM      3  O   UNL     1       2.220   6.454  20.609  0.00  0.00    +0.000 OA
ATOM      4  H   UNL     1       2.585   7.901  17.791  0.00  0.00    +0.000 HD
ENDROOT
BRANCH   2   5
ATOM      5  C   UNL     1       1.372   8.554  19.984  0.00  0.00    +0.000 A 
ATOM      6  C   UNL     1       0.795   8.627  21.196  0.00  0.00    +0.000 A 
ATOM      7  C   UNL     1       0.010   9.779  21.585  0.00  0.00    +0.000 A 
ATOM      8  C   UNL     1      -0.508   9.914  22.874  0.00  0.00    +0.000 A 
ATOM      9  C   UNL     1      -1.322  11.004  23.184  0.00  0.00    +0.000 A 
ATOM     10  C   UNL     1      -1.637  11.944  22.201  0.00  0.00    +0.000 A 
ATOM     11  C   UNL     1      -1.108  11.820  20.914  0.00  0.00    +0.000 A 
ATOM     12  C   UNL     1      -0.270  10.746  20.628  0.00  0.00    +0.000 A 
ATOM     13  O   UNL     1       0.327  10.677  19.353  0.00  0.00    +0.000 OA
ATOM     14  C   UNL     1       1.254   9.680  19.039  0.00  0.00    +0.000 A 
ATOM     15  O   UNL     1       1.928   9.728  18.013  0.00  0.00    +0.000 OA
ENDBRANCH   2   5
BRANCH   1  20
ATOM     16  C   UNL     1       5.275   4.745  17.362  0.00  0.00    +0.000 A 
ATOM     17  C   UNL     1       4.542   3.580  17.110  0.00  0.00    +0.000 A 
ATOM     18  C   UNL     1       3.162   3.577  17.271  0.00  0.00    +0.000 A 
ATOM     19  C   UNL     1       2.510   4.735  17.693  0.00  0.00    +0.000 A 
ATOM     20  C   UNL     1       3.221   5.912  17.958  0.00  0.00    +0.000 A 
ATOM     21  C   UNL     1       4.606   5.918  17.752  0.00  0.00    +0.000 A 
BRANCH  16  23
ATOM     22  C   UNL     1       7.531   5.646  18.684  0.00  0.00    +0.000 C 
ATOM     23  S   UNL     1       7.051   4.762  17.171  0.00  0.00    +0.000 S 
ENDBRANCH  16  23
ENDBRANCH   1  20
TORSDOF 3
ENDMDL
MODEL 2
REMARK VINA RESULT:      -7.6      3.989      8.777
REMARK  Name = 
REMARK  4 active torsions:
REMARK  status: ('A' for Active; 'I' for Inactive)
REMARK    1  A    between atoms: C_1  and  S_2
REMARK    2  A    between atoms: S_2  and  C_3
REMARK    3  A    between atoms: C_7  and  N_8
REMARK    4  A    between atoms: C_9  and  C_11
REMARK                            x       y       z     vdW  Elec       q    Type
REMARK                         _______ _______ _______ _____ _____    ______ ____
ROOT
ATOM      1  N   UNL     1       3.716   5.744  17.663  0.00  0.00    +0.000 N 
ATOM      2  C   UNL     1       5.039   5.348  17.670  0.00  0.00    +0.000 C 
ATOM      3  O   UNL     1       5.666   5.044  18.686  0.00  0.00    +0.000 OA
ATOM      4  H   UNL     1       3.238   5.802  16.763  0.00  0.00    +0.000 HD
ENDROOT
BRANCH   2   5
ATOM      5  C   UNL     1       5.735   5.255  16.347  0.00  0.00    +0.000 A 
ATOM      6  C   UNL     1       5.121   4.486  15.431  0.00  0.00    +0.000 A 
ATOM      7  C   UNL     1       5.713   4.249  14.132  0.00  0.00    +0.000 A 
ATOM      8  C   UNL     1       5.039   3.540  13.135  0.00  0.00    +0.000 A 
ATOM      9  C   UNL     1       5.677   3.269  11.924  0.00  0.00    +0.000 A 
ATOM     10  C   UNL     1       6.994   3.687  11.719  0.00  0.00    +0.000 A 
ATOM     11  C   UNL     1       7.666   4.410  12.708  0.00  0.00    +0.000 A 
ATOM     12  C   UNL     1       7.004   4.702  13.898  0.00  0.00    +0.000 A 
ATOM     13  O   UNL     1       7.659   5.505  14.854  0.00  0.00    +0.000 OA
ATOM     14  C   UNL     1       7.013   5.915  16.022  0.00  0.00    +0.000 A 
ATOM     15  O   UNL     1       7.495   6.774  16.757  0.00  0.00    +0.000 OA
ENDBRANCH   2   5
BRANCH   1  20
ATOM     16  C   UNL     1       1.671   7.506  20.227  0.00  0.00    +0.000 A 
ATOM     17  C   UNL     1       1.325   6.453  21.081  0.00  0.00    +0.000 A 
ATOM     18  C   UNL     1       1.783   5.167  20.821  0.00  0.00    +0.000 A 
ATOM     19  C   UNL     1       2.580   4.927  19.703  0.00  0.00    +0.000 A 
ATOM     20  C   UNL     1       2.934   5.962  18.829  0.00  0.00    +0.000 A 
ATOM     21  C   UNL     1       2.504   7.262  19.122  0.00  0.00    +0.000 A 
BRANCH  16  23
ATOM     22  C   UNL     1      -0.233   8.816  21.747  0.00  0.00    +0.000 C 
ATOM     23  S   UNL     1       1.081   9.163  20.541  0.00  0.00    +0.000 S 
ENDBRANCH  16  23
ENDBRANCH   1  20
TORSDOF 3
ENDMDL
MODEL 3
REMARK VINA RESULT:      -7.4      4.112      8.742
REMARK  Name = 
REMARK  4 active torsions:
REMARK  status: ('A' for Active; 'I' for Inactive)
REMARK    1  A    between atoms: C_1  and  S_2
REMARK    2  A    between atoms: S_2  and  C_3
REMARK    3  A    between atoms: C_7  and  N_8
REMARK    4  A    between atoms: C_9  and  C_11
REMARK                            x       y       z     vdW  Elec       q    Type
REMARK                         _______ _______ _______ _____ _____    ______ ____
ROOT
ATOM      1  N   UNL     1       3.762   5.538  17.520  0.00  0.00    +0.000 N 
ATOM      2  C   UNL     1       5.103   5.208  17.518  0.00  0.00    +0.000 C 
ATOM      3  O   UNL     1       5.749   4.924  18.528  0.00  0.00    +0.000 OA
ATOM      4  H   UNL     1       3.278   5.582  16.623  0.00  0.00    +0.000 HD
ENDROOT
BRANCH   2   5
ATOM      5  C   UNL     1       5.797   5.163  16.191  0.00  0.00    +0.000 A 
ATOM      6  C   UNL     1       5.203   4.395  15.261  0.00  0.00    +0.000 A 
ATOM      7  C   UNL     1       5.797   4.203  13.955  0.00  0.00    +0.000 A 
ATOM      8  C   UNL     1       5.142   3.495  12.946  0.00  0.00    +0.000 A 
ATOM      9  C   UNL     1       5.783   3.269  11.728  0.00  0.00    +0.000 A 
ATOM     10  C   UNL     1       7.086   3.730  11.527  0.00  0.00    +0.000 A 
ATOM     11  C   UNL     1       7.739   4.453  12.529  0.00  0.00    +0.000 A 
ATOM     12  C   UNL     1       7.074   4.699  13.727  0.00  0.00    +0.000 A 
ATOM     13  O   UNL     1       7.708   5.502  14.697  0.00  0.00    +0.000 OA
ATOM     14  C   UNL     1       7.053   5.868  15.876  0.00  0.00    +0.000 A 
ATOM     15  O   UNL     1       7.512   6.725  16.627  0.00  0.00    +0.000 OA
ENDBRANCH   2   5
BRANCH   1  20
ATOM     16  C   UNL     1       1.904   4.707  20.638  0.00  0.00    +0.000 A 
ATOM     17  C   UNL     1       1.482   5.974  21.057  0.00  0.00    +0.000 A 
ATOM     18  C   UNL     1       1.794   7.097  20.301  0.00  0.00    +0.000 A 
ATOM     19  C   UNL     1       2.536   6.961  19.129  0.00  0.00    +0.000 A 
ATOM     20  C   UNL     1       2.976   5.706  18.691  0.00  0.00    +0.000 A 
ATOM     21  C   UNL     1       2.622   4.575  19.436  0.00  0.00    +0.000 A 
BRANCH  16  23
ATOM     22  C   UNL     1       3.021   2.269  21.315  0.00  0.00    +0.000 C 
ATOM     23  S   UNL     1       1.522   3.254  21.604  0.00  0.00    +0.000 S 
ENDBRANCH  16  23
ENDBRANCH   1  20
TORSDOF 3
ENDMDL
MODEL 4
REMARK VINA RESULT:      -7.4      2.874      7.965
REMARK  Name = 
REMARK  4 active torsions:
REMARK  status: ('A' for Active; 'I' for Inactive)
REMARK    1  A    between atoms: C_1  and  S_2
REMARK    2  A    between atoms: S_2  and  C_3
REMARK    3  A    between atoms: C_7  and  N_8
REMARK    4  A    between atoms: C_9  and  C_11
REMARK                            x       y       z     vdW  Elec       q    Type
REMARK                         _______ _______ _______ _____ _____    ______ ____
ROOT
ATOM      1  N   UNL     1       1.624   8.368  20.820  0.00  0.00    +0.000 N 
ATOM      2  C   UNL     1       1.764   8.232  19.453  0.00  0.00    +0.000 C 
ATOM      3  O   UNL     1       1.297   9.019  18.627  0.00  0.00    +0.000 OA
ATOM      4  H   UNL     1       2.192   7.770  21.421  0.00  0.00    +0.000 HD
ENDROOT
BRANCH   2   5
ATOM      5  C   UNL     1       2.564   7.068  18.957  0.00  0.00    +0.000 A 
ATOM      6  C   UNL     1       3.337   7.320  17.885  0.00  0.00    +0.000 A 
ATOM      7  C   UNL     1       4.112   6.273  17.256  0.00  0.00    +0.000 A 
ATOM      8  C   UNL     1       4.997   6.541  16.209  0.00  0.00    +0.000 A 
ATOM      9  C   UNL     1       5.668   5.490  15.582  0.00  0.00    +0.000 A 
ATOM     10  C   UNL     1       5.437   4.173  15.984  0.00  0.00    +0.000 A 
ATOM     11  C   UNL     1       4.564   3.903  17.041  0.00  0.00    +0.000 A 
ATOM     12  C   UNL     1       3.928   4.963  17.679  0.00  0.00    +0.000 A 
ATOM     13  O   UNL     1       3.116   4.687  18.799  0.00  0.00    +0.000 OA
ATOM     14  C   UNL     1       2.532   5.715  19.543  0.00  0.00    +0.000 A 
ATOM     15  O   UNL     1       1.997   5.501  20.628  0.00  0.00    +0.000 OA
ENDBRANCH   2   5
BRANCH   1  20
ATOM     16  C   UNL     1       0.068  11.675  21.532  0.00  0.00    +0.000 A 
ATOM     17  C   UNL     1      -0.760  11.366  22.617  0.00  0.00    +0.000 A 
ATOM     18  C   UNL     1      -0.790  10.072  23.124  0.00  0.00    +0.000 A 
ATOM     19  C   UNL     1       0.001   9.081  22.544  0.00  0.00    +0.000 A 
ATOM     20  C   UNL     1       0.833   9.363  21.454  0.00  0.00    +0.000 A 
ATOM     21  C   UNL     1       0.888  10.678  20.976  0.00  0.00    +0.000 A 
BRANCH  16  23
ATOM     22  C   UNL     1      -0.029  12.963  19.087  0.00  0.00    +0.000 C 
ATOM     23  S   UNL     1       0.109  13.330  20.861  0.00  0.00    +0.000 S 
ENDBRANCH  16  23
ENDBRANCH   1  20
TORSDOF 3
ENDMDL
MODEL 5
REMARK VINA RESULT:      -7.3      3.303      8.133
REMARK  Name = 
REMARK  4 active torsions:
REMARK  status: ('A' for Active; 'I' for Inactive)
REMARK    1  A    between atoms: C_1  and  S_2
REMARK    2  A    between atoms: S_2  and  C_3
REMARK    3  A    between atoms: C_7  and  N_8
REMARK    4  A    between atoms: C_9  and  C_11
REMARK                            x       y       z     vdW  Elec       q    Type
REMARK                         _______ _______ _______ _____ _____    ______ ____
ROOT
ATOM      1  N   UNL     1       0.534   9.214  19.220  0.00  0.00    +0.000 N 
ATOM      2  C   UNL     1       1.634   9.175  18.385  0.00  0.00    +0.000 C 
ATOM      3  O   UNL     1       1.971  10.095  17.639  0.00  0.00    +0.000 OA
ATOM      4  H   UNL     1       0.440   8.482  19.924  0.00  0.00    +0.000 HD
ENDROOT
BRANCH   2   5
ATOM      5  C   UNL     1       2.481   7.940  18.424  0.00  0.00    +0.000 A 
ATOM      6  C   UNL     1       3.327   7.795  17.390  0.00  0.00    +0.000 A 
ATOM      7  C   UNL     1       4.158   6.617  17.260  0.00  0.00    +0.000 A 
ATOM      8  C   UNL     1       5.115   6.500  16.250  0.00  0.00    +0.000 A 
ATOM      9  C   UNL     1       5.841   5.316  16.115  0.00  0.00    +0.000 A 
ATOM     10  C   UNL     1       5.594   4.243  16.974  0.00  0.00    +0.000 A 
ATOM     11  C   UNL     1       4.648   4.362  17.995  0.00  0.00    +0.000 A 
ATOM     12  C   UNL     1       3.956   5.561  18.138  0.00  0.00    +0.000 A 
ATOM     13  O   UNL     1       3.067   5.701  19.224  0.00  0.00    +0.000 OA
ATOM     14  C   UNL     1       2.419   6.912  19.479  0.00  0.00    +0.000 A 
ATOM     15  O   UNL     1       1.808   7.106  20.527  0.00  0.00    +0.000 OA
ENDBRANCH   2   5
BRANCH   1  20
ATOM     16  C   UNL     1      -2.414  11.296  18.306  0.00  0.00    +0.000 A 
ATOM     17  C   UNL     1      -2.372  12.289  19.291  0.00  0.00    +0.000 A 
ATOM     18  C   UNL     1      -1.360  12.282  20.243  0.00  0.00    +0.000 A 
ATOM     19  C   UNL     1      -0.392  11.278  20.220  0.00  0.00    +0.000 A 
ATOM     20  C   UNL     1      -0.417  10.269  19.249  0.00  0.00    +0.000 A 
ATOM     21  C   UNL     1      -1.415  10.308  18.269  0.00  0.00    +0.000 A 
BRANCH  16  23
ATOM     22  C   UNL     1      -2.781  10.742  15.621  0.00  0.00    +0.000 C 
ATOM     23  S   UNL     1      -3.716  11.284  17.082  0.00  0.00    +0.000 S 
ENDBRANCH  16  23
ENDBRANCH   1  20
TORSDOF 3
ENDMDL
MODEL 6
REMARK VINA RESULT:      -7.3      1.339      2.125
REMARK  Name = 
REMARK  4 active torsions:
REMARK  status: ('A' for Active; 'I' for Inactive)
REMARK    1  A    between atoms: C_1  and  S_2
REMARK    2  A    between atoms: S_2  and  C_3
REMARK    3  A    between atoms: C_7  and  N_8
REMARK    4  A    between atoms: C_9  and  C_11
REMARK                            x       y       z     vdW  Elec       q    Type
REMARK                         _______ _______ _______ _____ _____    ______ ____
ROOT
ATOM      1  N   UNL     1       2.648   7.313  18.285  0.00  0.00    +0.000 N 
ATOM      2  C   UNL     1       2.135   7.435  19.562  0.00  0.00    +0.000 C 
ATOM      3  O   UNL     1       2.293   6.601  20.455  0.00  0.00    +0.000 OA
ATOM      4  H   UNL     1       2.615   8.130  17.676  0.00  0.00    +0.000 HD
ENDROOT
BRANCH   2   5
ATOM      5  C   UNL     1       1.369   8.682  19.877  0.00  0.00    +0.000 A 
ATOM      6  C   UNL     1       0.831   8.726  21.109  0.00  0.00    +0.000 A 
ATOM      7  C   UNL     1       0.006   9.840  21.528  0.00  0.00    +0.000 A 
ATOM      8  C   UNL     1      -0.472   9.949  22.835  0.00  0.00    +0.000 A 
ATOM      9  C   UNL     1      -1.326  10.999  23.176  0.00  0.00    +0.000 A 
ATOM     10  C   UNL     1      -1.718  11.925  22.206  0.00  0.00    +0.000 A 
ATOM     11  C   UNL     1      -1.229  11.827  20.901  0.00  0.00    +0.000 A 
ATOM     12  C   UNL     1      -0.352  10.794  20.584  0.00  0.00    +0.000 A 
ATOM     13  O   UNL     1       0.203  10.754  19.289  0.00  0.00    +0.000 OA
ATOM     14  C   UNL     1       1.165   9.802  18.940  0.00  0.00    +0.000 A 
ATOM     15  O   UNL     1       1.799   9.883  17.891  0.00  0.00    +0.000 OA
ENDBRANCH   2   5
BRANCH   1  20
ATOM     16  C   UNL     1       3.378   3.746  17.507  0.00  0.00    +0.000 A 
ATOM     17  C   UNL     1       4.578   3.855  16.795  0.00  0.00    +0.000 A 
ATOM     18  C   UNL     1       5.154   5.103  16.589  0.00  0.00    +0.000 A 
ATOM     19  C   UNL     1       4.529   6.246  17.086  0.00  0.00    +0.000 A 
ATOM     20  C   UNL     1       3.325   6.164  17.796  0.00  0.00    +0.000 A 
ATOM     21  C   UNL     1       2.774   4.899  18.035  0.00  0.00    +0.000 A 
BRANCH  16  23
ATOM     22  C   UNL     1       1.188   2.636  18.780  0.00  0.00    +0.000 C 
ATOM     23  S   UNL     1       2.619   2.150  17.770  0.00  0.00    +0.000 S 
ENDBRANCH  16  23
ENDBRANCH   1  20
TORSDOF 3
ENDMDL
MODEL 7
REMARK VINA RESULT:      -7.3      1.149      1.196
REMARK  Name = 
REMARK  4 active torsions:
REMARK  status: ('A' for Active; 'I' for Inactive)
REMARK    1  A    between atoms: C_1  and  S_2
REMARK    2  A    between atoms: S_2  and  C_3
REMARK    3  A    between atoms: C_7  and  N_8
REMARK    4  A    between atoms: C_9  and  C_11
REMARK                            x       y       z     vdW  Elec       q    Type
REMARK                         _______ _______ _______ _____ _____    ______ ____
ROOT
ATOM      1  N   UNL     1       2.500   6.990  18.940  0.00  0.00    +0.000 N 
ATOM      2  C   UNL     1       2.220   8.201  18.338  0.00  0.00    +0.000 C 
ATOM      3  O   UNL     1       2.416   8.444  17.146  0.00  0.00    +0.000 OA
ATOM      4  H   UNL     1       2.140   6.828  19.881  0.00  0.00    +0.000 HD
ENDROOT
BRANCH   2   5
ATOM      5  C   UNL     1       1.608   9.267  19.193  0.00  0.00    +0.000 A 
ATOM      6  C   UNL     1       1.041   8.831  20.332  0.00  0.00    +0.000 A 
ATOM      7  C   UNL     1       0.351   9.740  21.222  0.00  0.00    +0.000 A 
ATOM      8  C   UNL     1      -0.152   9.321  22.456  0.00  0.00    +0.000 A 
ATOM      9  C   UNL     1      -0.876  10.212  23.249  0.00  0.00    +0.000 A 
ATOM     10  C   UNL     1      -1.117  11.512  22.799  0.00  0.00    +0.000 A 
ATOM     11  C   UNL     1      -0.602  11.940  21.572  0.00  0.00    +0.000 A 
ATOM     12  C   UNL     1       0.147  11.050  20.808  0.00  0.00    +0.000 A 
ATOM     13  O   UNL     1       0.734  11.516  19.613  0.00  0.00    +0.000 OA
ATOM     14  C   UNL     1       1.578  10.702  18.854  0.00  0.00    +0.000 A 
ATOM     15  O   UNL     1       2.252  11.155  17.932  0.00  0.00    +0.000 OA
ENDBRANCH   2   5
BRANCH   1  20
ATOM     16  C   UNL     1       5.232   4.862  17.571  0.00  0.00    +0.000 A 
ATOM     17  C   UNL     1       4.516   3.756  17.102  0.00  0.00    +0.000 A 
ATOM     18  C   UNL     1       3.132   3.721  17.220  0.00  0.00    +0.000 A 
ATOM     19  C   UNL     1       2.459   4.787  17.815  0.00  0.00    +0.000 A 
ATOM     20  C   UNL     1       3.153   5.903  18.299  0.00  0.00    +0.000 A 
ATOM     21  C   UNL     1       4.543   5.949  18.138  0.00  0.00    +0.000 A 
BRANCH  16  23
ATOM     22  C   UNL     1       7.303   6.690  17.712  0.00  0.00    +0.000 C 
ATOM     23  S   UNL     1       7.013   4.917  17.438  0.00  0.00    +0.000 S 
ENDBRANCH  16  23
ENDBRANCH   1  20
TORSDOF 3
ENDMDL
MODEL 8
REMARK VINA RESULT:      -7.2      3.564      8.151
REMARK  Name = 
REMARK  4 active torsions:
REMARK  status: ('A' for Active; 'I' for Inactive)
REMARK    1  A    between atoms: C_1  and  S_2
REMARK    2  A    between atoms: S_2  and  C_3
REMARK    3  A    between atoms: C_7  and  N_8
REMARK    4  A    between atoms: C_9  and  C_11
REMARK                            x       y       z     vdW  Elec       q    Type
REMARK                         _______ _______ _______ _____ _____    ______ ____
ROOT
ATOM      1  N   UNL     1       1.323   8.974  18.093  0.00  0.00    +0.000 N 
ATOM      2  C   UNL     1       1.886   8.195  19.085  0.00  0.00    +0.000 C 
ATOM      3  O   UNL     1       1.738   8.394  20.292  0.00  0.00    +0.000 OA
ATOM      4  H   UNL     1       1.356   8.627  17.134  0.00  0.00    +0.000 HD
ENDROOT
BRANCH   2   5
ATOM      5  C   UNL     1       2.699   7.014  18.651  0.00  0.00    +0.000 A 
ATOM      6  C   UNL     1       3.518   7.236  17.608  0.00  0.00    +0.000 A 
ATOM      7  C   UNL     1       4.312   6.169  17.037  0.00  0.00    +0.000 A 
ATOM      8  C   UNL     1       5.243   6.406  16.024  0.00  0.00    +0.000 A 
ATOM      9  C   UNL     1       5.932   5.338  15.450  0.00  0.00    +0.000 A 
ATOM     10  C   UNL     1       5.674   4.032  15.873  0.00  0.00    +0.000 A 
ATOM     11  C   UNL     1       4.755   3.792  16.897  0.00  0.00    +0.000 A 
ATOM     12  C   UNL     1       4.100   4.871  17.483  0.00  0.00    +0.000 A 
ATOM     13  O   UNL     1       3.240   4.627  18.573  0.00  0.00    +0.000 OA
ATOM     14  C   UNL     1       2.632   5.676  19.267  0.00  0.00    +0.000 A 
ATOM     15  O   UNL     1       2.050   5.490  20.333  0.00  0.00    +0.000 OA
ENDBRANCH   2   5
BRANCH   1  20
ATOM     16  C   UNL     1      -1.530  11.361  18.259  0.00  0.00    +0.000 A 
ATOM     17  C   UNL     1      -0.921  12.485  18.826  0.00  0.00    +0.000 A 
ATOM     18  C   UNL     1       0.434  12.462  19.135  0.00  0.00    +0.000 A 
ATOM     19  C   UNL     1       1.182  11.312  18.887  0.00  0.00    +0.000 A 
ATOM     20  C   UNL     1       0.595  10.171  18.327  0.00  0.00    +0.000 A 
ATOM     21  C   UNL     1      -0.761  10.218  17.979  0.00  0.00    +0.000 A 
BRANCH  16  23
ATOM     22  C   UNL     1      -3.212  10.898  16.112  0.00  0.00    +0.000 C 
ATOM     23  S   UNL     1      -3.273  11.371  17.866  0.00  0.00    +0.000 S 
ENDBRANCH  16  23
ENDBRANCH   1  20
TORSDOF 3
ENDMDL
MODEL 9
REMARK VINA RESULT:      -7.1      1.817      2.497
REMARK  Name = 
REMARK  4 active torsions:
REMARK  status: ('A' for Active; 'I' for Inactive)
REMARK    1  A    between atoms: C_1  and  S_2
REMARK    2  A    between atoms: S_2  and  C_3
REMARK    3  A    between atoms: C_7  and  N_8
REMARK    4  A    between atoms: C_9  and  C_11
REMARK                            x       y       z     vdW  Elec       q    Type
REMARK                         _______ _______ _______ _____ _____    ______ ____
ROOT
ATOM      1  N   UNL     1       2.437   7.436  18.951  0.00  0.00    +0.000 N 
ATOM      2  C   UNL     1       2.003   8.604  18.356  0.00  0.00    +0.000 C 
ATOM      3  O   UNL     1       2.033   8.817  17.143  0.00  0.00    +0.000 OA
ATOM      4  H   UNL     1       2.209   7.286  19.934  0.00  0.00    +0.000 HD
ENDROOT
BRANCH   2   5
ATOM      5  C   UNL     1       1.431   9.659  19.252  0.00  0.00    +0.000 A 
ATOM      6  C   UNL     1       0.795   9.198  20.343  0.00  0.00    +0.000 A 
ATOM      7  C   UNL     1       0.133  10.100  21.263  0.00  0.00    +0.000 A 
ATOM      8  C   UNL     1      -0.440   9.647  22.452  0.00  0.00    +0.000 A 
ATOM      9  C   UNL     1      -1.134  10.538  23.272  0.00  0.00    +0.000 A 
ATOM     10  C   UNL     1      -1.274  11.874  22.891  0.00  0.00    +0.000 A 
ATOM     11  C   UNL     1      -0.688  12.335  21.710  0.00  0.00    +0.000 A 
ATOM     12  C   UNL     1       0.030  11.441  20.919  0.00  0.00    +0.000 A 
ATOM     13  O   UNL     1       0.688  11.934  19.774  0.00  0.00    +0.000 OA
ATOM     14  C   UNL     1       1.506  11.110  18.996  0.00  0.00    +0.000 A 
ATOM     15  O   UNL     1       2.240  11.569  18.124  0.00  0.00    +0.000 OA
ENDBRANCH   2   5
BRANCH   1  20
ATOM     16  C   UNL     1       3.132   4.009  17.672  0.00  0.00    +0.000 A 
ATOM     17  C   UNL     1       4.257   4.232  16.871  0.00  0.00    +0.000 A 
ATOM     18  C   UNL     1       4.797   5.509  16.769  0.00  0.00    +0.000 A 
ATOM     19  C   UNL     1       4.210   6.568  17.460  0.00  0.00    +0.000 A 
ATOM     20  C   UNL     1       3.079   6.372  18.263  0.00  0.00    +0.000 A 
ATOM     21  C   UNL     1       2.567   5.075  18.393  0.00  0.00    +0.000 A 
BRANCH  16  23
ATOM     22  C   UNL     1       1.093   2.698  19.006  0.00  0.00    +0.000 C 
ATOM     23  S   UNL     1       2.418   2.376  17.804  0.00  0.00    +0.000 S 
ENDBRANCH  16  23
ENDBRANCH   1  20
TORSDOF 3
ENDMDL
