MODEL 1
REMARK VINA RESULT:      -8.5      0.000      0.000
REMARK  Name = 
REMARK  12 active torsions:
REMARK  status: ('A' for Active; 'I' for Inactive)
REMARK    1  A    between atoms: C_1  and  C_2
REMARK    2  A    between atoms: C_2  and  C_3
REMARK    3  A    between atoms: C_3  and  C_4
REMARK    4  A    between atoms: C_3  and  C_31
REMARK    5  A    between atoms: C_4  and  N_5
REMARK    6  A    between atoms: C_8  and  C_9
REMARK    7  A    between atoms: C_9  and  N_10
REMARK    8  A    between atoms: C_11  and  C_13
REMARK    9  A    between atoms: C_24  and  C_25
REMARK   10  A    between atoms: C_25  and  C_26
REMARK   11  A    between atoms: C_26  and  C_27
REMARK   12  A    between atoms: C_27  and  N_28
REMARK                            x       y       z     vdW  Elec       q    Type
REMARK                         _______ _______ _______ _____ _____    ______ ____
ROOT
ATOM      1  N   UNL     1       1.519   8.793  19.227  0.00  0.00    +0.000 N 
ATOM      2  C   UNL     1       1.522   8.236  20.572  0.00  0.00    +0.000 C 
ATOM      3  C   UNL     1       0.358   8.600  21.485  0.00  0.00    +0.000 C 
ATOM      4  C   UNL     1       0.277  10.099  21.788  0.00  0.00    +0.000 C 
ATOM      5  N   UNL     1      -0.402  10.908  20.764  0.00  0.00    +0.000 NA
ATOM      6  C   UNL     1      -0.181  10.592  19.344  0.00  0.00    +0.000 C 
ATOM      7  C   UNL     1       1.237  10.132  18.966  0.00  0.00    +0.000 C 
ATOM      8  O   UNL     1       1.956  10.833  18.251  0.00  0.00    +0.000 OA
ATOM      9  H   UNL     1      -0.110  11.879  20.918  0.00  0.00    +0.000 HD
ENDROOT
BRANCH   1  10
ATOM     10  C   UNL     1       2.047   7.994  18.121  0.00  0.00    +0.000 C 
BRANCH  10  11
ATOM     11  C   UNL     1       3.212   7.011  18.376  0.00  0.00    +0.000 C 
BRANCH  11  12
ATOM     12  C   UNL     1       2.605   5.644  18.742  0.00  0.00    +0.000 A 
ATOM     13  C   UNL     1       1.916   4.883  17.787  0.00  0.00    +0.000 A 
ATOM     14  C   UNL     1       1.350   3.650  18.135  0.00  0.00    +0.000 A 
ATOM     15  C   UNL     1       1.467   3.160  19.434  0.00  0.00    +0.000 A 
ATOM     16  C   UNL     1       2.159   3.899  20.389  0.00  0.00    +0.000 A 
ATOM     17  C   UNL     1       2.730   5.125  20.045  0.00  0.00    +0.000 A 
ENDBRANCH  11  12
BRANCH  11  19
ATOM     18  C   UNL     1       5.495   6.097  17.537  0.00  0.00    +0.000 C 
ATOM     19  C   UNL     1       4.197   6.812  17.204  0.00  0.00    +0.000 C 
ENDBRANCH  11  19
ENDBRANCH  10  11
ENDBRANCH   1  10
BRANCH   4  20
ATOM     20  C   UNL     1      -0.466  10.280  23.137  0.00  0.00    +0.000 C 
BRANCH  20  21
ATOM     21  N   UNL     1      -1.649  11.113  23.041  0.00  0.00    +0.000 N 
ATOM     22  C   UNL     1      -1.572  12.480  23.189  0.00  0.00    +0.000 C 
ATOM     23  O   UNL     1      -0.515  13.077  23.362  0.00  0.00    +0.000 OA
ATOM     24  H   UNL     1      -2.493  10.683  22.688  0.00  0.00    +0.000 HD
BRANCH  22  25
ATOM     25  C   UNL     1      -2.854  13.229  23.109  0.00  0.00    +0.000 A 
ATOM     26  C   UNL     1      -2.956  14.454  22.442  0.00  0.00    +0.000 A 
ATOM     27  C   UNL     1      -4.187  15.111  22.373  0.00  0.00    +0.000 A 
ATOM     28  C   UNL     1      -5.334  14.548  22.958  0.00  0.00    +0.000 A 
ATOM     29  C   UNL     1      -6.580  15.190  22.891  0.00  0.00    +0.000 A 
ATOM     30  C   UNL     1      -7.712  14.612  23.471  0.00  0.00    +0.000 A 
ATOM     31  C   UNL     1      -7.609  13.391  24.124  0.00  0.00    +0.000 A 
ATOM     32  C   UNL     1      -6.380  12.736  24.199  0.00  0.00    +0.000 A 
ATOM     33  C   UNL     1      -5.234  13.303  23.621  0.00  0.00    +0.000 A 
ATOM     34  C   UNL     1      -3.993  12.653  23.685  0.00  0.00    +0.000 A 
ENDBRANCH  22  25
ENDBRANCH  20  21
ENDBRANCH   4  20
BRANCH   6  35
ATOM     35  C   UNL     1      -1.196   9.617  18.712  0.00  0.00    +0.000 C 
BRANCH  35  36
ATOM     36  C   UNL     1      -1.911  10.155  17.477  0.00  0.00    +0.000 C 
BRANCH  36  37
ATOM     37  C   UNL     1      -2.302  11.613  17.713  0.00  0.00    +0.000 C 
BRANCH  37  38
ATOM     38  N   UNL     1      -1.338  12.512  17.092  0.00  0.00    +0.000 NA
ATOM     39  H   UNL     1      -1.803  13.064  16.372  0.00  0.00    +0.000 HD
ATOM     40  H   UNL     1      -0.627  11.961  16.614  0.00  0.00    +0.000 HD
ENDBRANCH  37  38
ENDBRANCH  36  37
ENDBRANCH  35  36
ENDBRANCH   6  35
TORSDOF 11
ENDMDL
MODEL 2
REMARK VINA RESULT:      -8.4      1.834      2.240
REMARK  Name = 
REMARK  12 active torsions:
REMARK  status: ('A' for Active; 'I' for Inactive)
REMARK    1  A    between atoms: C_1  and  C_2
REMARK    2  A    between atoms: C_2  and  C_3
REMARK    3  A    between atoms: C_3  and  C_4
REMARK    4  A    between atoms: C_3  and  C_31
REMARK    5  A    between atoms: C_4  and  N_5
REMARK    6  A    between atoms: C_8  and  C_9
REMARK    7  A    between atoms: C_9  and  N_10
REMARK    8  A    between atoms: C_11  and  C_13
REMARK    9  A    between atoms: C_24  and  C_25
REMARK   10  A    between atoms: C_25  and  C_26
REMARK   11  A    between atoms: C_26  and  C_27
REMARK   12  A    between atoms: C_27  and  N_28
REMARK                            x       y       z     vdW  Elec       q    Type
REMARK                         _______ _______ _______ _____ _____    ______ ____
ROOT
ATOM      1  N   UNL     1       1.677   8.629  18.952  0.00  0.00    +0.000 N 
ATOM      2  C   UNL     1       1.422   8.448  20.373  0.00  0.00    +0.000 C 
ATOM      3  C   UNL     1       0.288   9.254  20.993  0.00  0.00    +0.000 C 
ATOM      4  C   UNL     1       0.520  10.766  20.927  0.00  0.00    +0.000 C 
ATOM      5  N   UNL     1       0.145  11.402  19.654  0.00  0.00    +0.000 NA
ATOM      6  C   UNL     1       0.427  10.694  18.395  0.00  0.00    +0.000 C 
ATOM      7  C   UNL     1       1.733   9.885  18.351  0.00  0.00    +0.000 C 
ATOM      8  O   UNL     1       2.659  10.224  17.611  0.00  0.00    +0.000 OA
ATOM      9  H   UNL     1       0.633  12.303  19.623  0.00  0.00    +0.000 HD
ENDROOT
BRANCH   1  10
ATOM     10  C   UNL     1       2.116   7.486  18.151  0.00  0.00    +0.000 C 
BRANCH  10  11
ATOM     11  C   UNL     1       3.092   6.455  18.762  0.00  0.00    +0.000 C 
BRANCH  11  12
ATOM     12  C   UNL     1       2.300   5.166  19.046  0.00  0.00    +0.000 A 
ATOM     13  C   UNL     1       1.816   4.886  20.332  0.00  0.00    +0.000 A 
ATOM     14  C   UNL     1       1.114   3.701  20.585  0.00  0.00    +0.000 A 
ATOM     15  C   UNL     1       0.885   2.783  19.562  0.00  0.00    +0.000 A 
ATOM     16  C   UNL     1       1.349   3.053  18.279  0.00  0.00    +0.000 A 
ATOM     17  C   UNL     1       2.043   4.236  18.021  0.00  0.00    +0.000 A 
ENDBRANCH  11  12
BRANCH  11  19
ATOM     18  C   UNL     1       5.573   5.689  18.660  0.00  0.00    +0.000 C 
ATOM     19  C   UNL     1       4.322   6.095  17.901  0.00  0.00    +0.000 C 
ENDBRANCH  11  19
ENDBRANCH  10  11
ENDBRANCH   1  10
BRANCH   4  20
ATOM     20  C   UNL     1      -0.292  11.429  22.071  0.00  0.00    +0.000 C 
BRANCH  20  21
ATOM     21  N   UNL     1      -1.635  11.813  21.683  0.00  0.00    +0.000 N 
ATOM     22  C   UNL     1      -2.282  12.862  22.298  0.00  0.00    +0.000 C 
ATOM     23  O   UNL     1      -1.760  13.557  23.162  0.00  0.00    +0.000 OA
ATOM     24  H   UNL     1      -2.009  11.406  20.837  0.00  0.00    +0.000 HD
BRANCH  22  25
ATOM     25  C   UNL     1      -3.670  13.141  21.846  0.00  0.00    +0.000 A 
ATOM     26  C   UNL     1      -4.598  13.795  22.663  0.00  0.00    +0.000 A 
ATOM     27  C   UNL     1      -5.886  14.056  22.187  0.00  0.00    +0.000 A 
ATOM     28  C   UNL     1      -6.259  13.679  20.886  0.00  0.00    +0.000 A 
ATOM     29  C   UNL     1      -7.545  13.941  20.390  0.00  0.00    +0.000 A 
ATOM     30  C   UNL     1      -7.898  13.565  19.091  0.00  0.00    +0.000 A 
ATOM     31  C   UNL     1      -6.971  12.925  18.279  0.00  0.00    +0.000 A 
ATOM     32  C   UNL     1      -5.687  12.658  18.754  0.00  0.00    +0.000 A 
ATOM     33  C   UNL     1      -5.317  13.029  20.055  0.00  0.00    +0.000 A 
ATOM     34  C   UNL     1      -4.029  12.771  20.544  0.00  0.00    +0.000 A 
ENDBRANCH  22  25
ENDBRANCH  20  21
ENDBRANCH   4  20
BRANCH   6  35
ATOM     35  C   UNL     1      -0.716   9.808  17.859  0.00  0.00    +0.000 C 
BRANCH  35  36
ATOM     36  C   UNL     1      -2.119  10.322  18.166  0.00  0.00    +0.000 C 
BRANCH  36  37
ATOM     37  C   UNL     1      -2.349  11.640  17.426  0.00  0.00    +0.000 C 
BRANCH  37  38
ATOM     38  N   UNL     1      -2.541  11.406  16.002  0.00  0.00    +0.000 NA
ATOM     39  H   UNL     1      -2.714  12.293  15.532  0.00  0.00    +0.000 HD
ATOM     40  H   UNL     1      -3.379  10.842  15.866  0.00  0.00    +0.000 HD
ENDBRANCH  37  38
ENDBRANCH  36  37
ENDBRANCH  35  36
ENDBRANCH   6  35
TORSDOF 11
ENDMDL
MODEL 3
REMARK VINA RESULT:      -8.4      3.238      6.624
REMARK  Name = 
REMARK  12 active torsions:
REMARK  status: ('A' for Active; 'I' for Inactive)
REMARK    1  A    between atoms: C_1  and  C_2
REMARK    2  A    between atoms: C_2  and  C_3
REMARK    3  A    between atoms: C_3  and  C_4
REMARK    4  A    between atoms: C_3  and  C_31
REMARK    5  A    between atoms: C_4  and  N_5
REMARK    6  A    between atoms: C_8  and  C_9
REMARK    7  A    between atoms: C_9  and  N_10
REMARK    8  A    between atoms: C_11  and  C_13
REMARK    9  A    between atoms: C_24  and  C_25
REMARK   10  A    between atoms: C_25  and  C_26
REMARK   11  A    between atoms: C_26  and  C_27
REMARK   12  A    between atoms: C_27  and  N_28
REMARK                            x       y       z     vdW  Elec       q    Type
REMARK                         _______ _______ _______ _____ _____    ______ ____
ROOT
ATOM      1  N   UNL     1       4.140   4.929  16.900  0.00  0.00    +0.000 N 
ATOM      2  C   UNL     1       4.482   6.298  16.543  0.00  0.00    +0.000 C 
ATOM      3  C   UNL     1       4.107   7.396  17.530  0.00  0.00    +0.000 C 
ATOM      4  C   UNL     1       2.596   7.517  17.748  0.00  0.00    +0.000 C 
ATOM      5  N   UNL     1       2.027   6.579  18.727  0.00  0.00    +0.000 NA
ATOM      6  C   UNL     1       2.531   5.197  18.765  0.00  0.00    +0.000 C 
ATOM      7  C   UNL     1       2.893   4.571  17.408  0.00  0.00    +0.000 C 
ATOM      8  O   UNL     1       2.239   3.630  16.955  0.00  0.00    +0.000 OA
ATOM      9  H   UNL     1       1.020   6.540  18.544  0.00  0.00    +0.000 HD
ENDROOT
BRANCH   1  10
ATOM     10  C   UNL     1       5.039   3.842  16.511  0.00  0.00    +0.000 C 
BRANCH  10  11
ATOM     11  C   UNL     1       6.532   4.142  16.250  0.00  0.00    +0.000 C 
BRANCH  11  12
ATOM     12  C   UNL     1       6.733   4.255  14.728  0.00  0.00    +0.000 A 
ATOM     13  C   UNL     1       7.684   5.134  14.190  0.00  0.00    +0.000 A 
ATOM     14  C   UNL     1       7.845   5.245  12.804  0.00  0.00    +0.000 A 
ATOM     15  C   UNL     1       7.065   4.481  11.938  0.00  0.00    +0.000 A 
ATOM     16  C   UNL     1       6.126   3.596  12.458  0.00  0.00    +0.000 A 
ATOM     17  C   UNL     1       5.967   3.478  13.839  0.00  0.00    +0.000 A 
ENDBRANCH  11  12
BRANCH  11  19
ATOM     18  C   UNL     1       7.497   5.288  18.372  0.00  0.00    +0.000 C 
ATOM     19  C   UNL     1       7.091   5.418  16.915  0.00  0.00    +0.000 C 
ENDBRANCH  11  19
ENDBRANCH  10  11
ENDBRANCH   1  10
BRANCH   4  20
ATOM     20  C   UNL     1       2.289   8.965  18.212  0.00  0.00    +0.000 C 
BRANCH  20  21
ATOM     21  N   UNL     1       0.963   9.425  17.846  0.00  0.00    +0.000 N 
ATOM     22  C   UNL     1       0.153  10.063  18.759  0.00  0.00    +0.000 C 
ATOM     23  O   UNL     1       0.508  10.320  19.904  0.00  0.00    +0.000 OA
ATOM     24  H   UNL     1       0.726   9.423  16.864  0.00  0.00    +0.000 HD
BRANCH  22  25
ATOM     25  C   UNL     1      -1.199  10.456  18.284  0.00  0.00    +0.000 A 
ATOM     26  C   UNL     1      -1.716  10.005  17.065  0.00  0.00    +0.000 A 
ATOM     27  C   UNL     1      -3.002  10.383  16.670  0.00  0.00    +0.000 A 
ATOM     28  C   UNL     1      -3.792  11.204  17.491  0.00  0.00    +0.000 A 
ATOM     29  C   UNL     1      -5.088  11.585  17.113  0.00  0.00    +0.000 A 
ATOM     30  C   UNL     1      -5.864  12.397  17.945  0.00  0.00    +0.000 A 
ATOM     31  C   UNL     1      -5.352  12.834  19.160  0.00  0.00    +0.000 A 
ATOM     32  C   UNL     1      -4.066  12.464  19.553  0.00  0.00    +0.000 A 
ATOM     33  C   UNL     1      -3.275  11.649  18.729  0.00  0.00    +0.000 A 
ATOM     34  C   UNL     1      -1.983  11.265  19.115  0.00  0.00    +0.000 A 
ENDBRANCH  22  25
ENDBRANCH  20  21
ENDBRANCH   4  20
BRANCH   6  35
ATOM     35  C   UNL     1       3.691   4.937  19.749  0.00  0.00    +0.000 C 
BRANCH  35  36
ATOM     36  C   UNL     1       3.979   3.464  20.020  0.00  0.00    +0.000 C 
BRANCH  36  37
ATOM     37  C   UNL     1       2.743   2.812  20.638  0.00  0.00    +0.000 C 
BRANCH  37  38
ATOM     38  N   UNL     1       2.346   3.507  21.855  0.00  0.00    +0.000 NA
ATOM     39  H   UNL     1       1.347   3.706  21.824  0.00  0.00    +0.000 HD
ATOM     40  H   UNL     1       2.816   4.411  21.892  0.00  0.00    +0.000 HD
ENDBRANCH  37  38
ENDBRANCH  36  37
ENDBRANCH  35  36
ENDBRANCH   6  35
TORSDOF 11
ENDMDL
MODEL 4
REMARK VINA RESULT:      -8.3      3.218      6.322
REMARK  Name = 
REMARK  12 active torsions:
REMARK  status: ('A' for Active; 'I' for Inactive)
REMARK    1  A    between atoms: C_1  and  C_2
REMARK    2  A    between atoms: C_2  and  C_3
REMARK    3  A    between atoms: C_3  and  C_4
REMARK    4  A    between atoms: C_3  and  C_31
REMARK    5  A    between atoms: C_4  and  N_5
REMARK    6  A    between atoms: C_8  and  C_9
REMARK    7  A    between atoms: C_9  and  N_10
REMARK    8  A    between atoms: C_11  and  C_13
REMARK    9  A    between atoms: C_24  and  C_25
REMARK   10  A    between atoms: C_25  and  C_26
REMARK   11  A    between atoms: C_26  and  C_27
REMARK   12  A    between atoms: C_27  and  N_28
REMARK                            x       y       z     vdW  Elec       q    Type
REMARK                         _______ _______ _______ _____ _____    ______ ____
ROOT
ATOM      1  N   UNL     1       3.582   5.017  17.256  0.00  0.00    +0.000 N 
ATOM      2  C   UNL     1       3.764   6.455  17.390  0.00  0.00    +0.000 C 
ATOM      3  C   UNL     1       3.558   7.064  18.770  0.00  0.00    +0.000 C 
ATOM      4  C   UNL     1       2.128   6.900  19.291  0.00  0.00    +0.000 C 
ATOM      5  N   UNL     1       1.838   5.605  19.927  0.00  0.00    +0.000 NA
ATOM      6  C   UNL     1       2.410   4.382  19.344  0.00  0.00    +0.000 C 
ATOM      7  C   UNL     1       2.498   4.340  17.810  0.00  0.00    +0.000 C 
ATOM      8  O   UNL     1       1.810   3.549  17.161  0.00  0.00    +0.000 OA
ATOM      9  H   UNL     1       0.818   5.503  19.932  0.00  0.00    +0.000 HD
ENDROOT
BRANCH   1  10
ATOM     10  C   UNL     1       4.429   4.271  16.325  0.00  0.00    +0.000 C 
BRANCH  10  11
ATOM     11  C   UNL     1       5.639   4.970  15.665  0.00  0.00    +0.000 C 
BRANCH  11  12
ATOM     12  C   UNL     1       6.517   5.555  16.786  0.00  0.00    +0.000 A 
ATOM     13  C   UNL     1       6.884   6.908  16.782  0.00  0.00    +0.000 A 
ATOM     14  C   UNL     1       7.700   7.426  17.796  0.00  0.00    +0.000 A 
ATOM     15  C   UNL     1       8.155   6.604  18.825  0.00  0.00    +0.000 A 
ATOM     16  C   UNL     1       7.788   5.263  18.849  0.00  0.00    +0.000 A 
ATOM     17  C   UNL     1       6.971   4.744  17.844  0.00  0.00    +0.000 A 
ENDBRANCH  11  12
BRANCH  11  19
ATOM     18  C   UNL     1       5.999   3.824  13.361  0.00  0.00    +0.000 C 
ATOM     19  C   UNL     1       6.523   4.082  14.763  0.00  0.00    +0.000 C 
ENDBRANCH  11  19
ENDBRANCH  10  11
ENDBRANCH   1  10
BRANCH   4  20
ATOM     20  C   UNL     1       1.855   8.029  20.319  0.00  0.00    +0.000 C 
BRANCH  20  21
ATOM     21  N   UNL     1       0.607   8.733  20.093  0.00  0.00    +0.000 N 
ATOM     22  C   UNL     1       0.583   9.951  19.451  0.00  0.00    +0.000 C 
ATOM     23  O   UNL     1       1.587  10.490  18.998  0.00  0.00    +0.000 OA
ATOM     24  H   UNL     1      -0.250   8.224  20.257  0.00  0.00    +0.000 HD
BRANCH  22  25
ATOM     25  C   UNL     1      -0.747  10.598  19.308  0.00  0.00    +0.000 A 
ATOM     26  C   UNL     1      -1.218  11.537  20.231  0.00  0.00    +0.000 A 
ATOM     27  C   UNL     1      -2.466  12.136  20.043  0.00  0.00    +0.000 A 
ATOM     28  C   UNL     1      -3.254  11.815  18.925  0.00  0.00    +0.000 A 
ATOM     29  C   UNL     1      -4.506  12.414  18.717  0.00  0.00    +0.000 A 
ATOM     30  C   UNL     1      -5.274  12.088  17.595  0.00  0.00    +0.000 A 
ATOM     31  C   UNL     1      -4.799  11.163  16.675  0.00  0.00    +0.000 A 
ATOM     32  C   UNL     1      -3.557  10.559  16.864  0.00  0.00    +0.000 A 
ATOM     33  C   UNL     1      -2.773  10.876  17.985  0.00  0.00    +0.000 A 
ATOM     34  C   UNL     1      -1.520  10.280  18.184  0.00  0.00    +0.000 A 
ENDBRANCH  22  25
ENDBRANCH  20  21
ENDBRANCH   4  20
BRANCH   6  35
ATOM     35  C   UNL     1       3.769   3.939  19.924  0.00  0.00    +0.000 C 
BRANCH  35  36
ATOM     36  C   UNL     1       3.797   2.515  20.470  0.00  0.00    +0.000 C 
BRANCH  36  37
ATOM     37  C   UNL     1       2.484   2.227  21.198  0.00  0.00    +0.000 C 
BRANCH  37  38
ATOM     38  N   UNL     1       2.302   3.144  22.316  0.00  0.00    +0.000 NA
ATOM     39  H   UNL     1       2.943   3.930  22.219  0.00  0.00    +0.000 HD
ATOM     40  H   UNL     1       2.559   2.670  23.181  0.00  0.00    +0.000 HD
ENDBRANCH  37  38
ENDBRANCH  36  37
ENDBRANCH  35  36
ENDBRANCH   6  35
TORSDOF 11
ENDMDL
MODEL 5
REMARK VINA RESULT:      -8.2      1.787      2.183
REMARK  Name = 
REMARK  12 active torsions:
REMARK  status: ('A' for Active; 'I' for Inactive)
REMARK    1  A    between atoms: C_1  and  C_2
REMARK    2  A    between atoms: C_2  and  C_3
REMARK    3  A    between atoms: C_3  and  C_4
REMARK    4  A    between atoms: C_3  and  C_31
REMARK    5  A    between atoms: C_4  and  N_5
REMARK    6  A    between atoms: C_8  and  C_9
REMARK    7  A    between atoms: C_9  and  N_10
REMARK    8  A    between atoms: C_11  and  C_13
REMARK    9  A    between atoms: C_24  and  C_25
REMARK   10  A    between atoms: C_25  and  C_26
REMARK   11  A    between atoms: C_26  and  C_27
REMARK   12  A    between atoms: C_27  and  N_28
REMARK                            x       y       z     vdW  Elec       q    Type
REMARK                         _______ _______ _______ _____ _____    ______ ____
ROOT
ATOM      1  N   UNL     1       1.703   8.203  19.255  0.00  0.00    +0.000 N 
ATOM      2  C   UNL     1       1.516   8.568  20.652  0.00  0.00    +0.000 C 
ATOM      3  C   UNL     1       0.561   9.714  20.957  0.00  0.00    +0.000 C 
ATOM      4  C   UNL     1       1.016  11.050  20.362  0.00  0.00    +0.000 C 
ATOM      5  N   UNL     1       0.662  11.261  18.950  0.00  0.00    +0.000 NA
ATOM      6  C   UNL     1       0.749  10.126  18.018  0.00  0.00    +0.000 C 
ATOM      7  C   UNL     1       1.911   9.146  18.251  0.00  0.00    +0.000 C 
ATOM      8  O   UNL     1       2.828   9.050  17.432  0.00  0.00    +0.000 OA
ATOM      9  H   UNL     1       1.278  12.001  18.601  0.00  0.00    +0.000 HD
ENDROOT
BRANCH   1  10
ATOM     10  C   UNL     1       1.910   6.798  18.904  0.00  0.00    +0.000 C 
BRANCH  10  11
ATOM     11  C   UNL     1       3.038   5.996  19.590  0.00  0.00    +0.000 C 
BRANCH  11  12
ATOM     12  C   UNL     1       2.436   4.676  20.103  0.00  0.00    +0.000 A 
ATOM     13  C   UNL     1       3.060   3.949  21.127  0.00  0.00    +0.000 A 
ATOM     14  C   UNL     1       2.516   2.738  21.572  0.00  0.00    +0.000 A 
ATOM     15  C   UNL     1       1.344   2.239  21.006  0.00  0.00    +0.000 A 
ATOM     16  C   UNL     1       0.707   2.956  19.998  0.00  0.00    +0.000 A 
ATOM     17  C   UNL     1       1.244   4.166  19.555  0.00  0.00    +0.000 A 
ENDBRANCH  11  12
BRANCH  11  19
ATOM     18  C   UNL     1       3.976   4.944  17.407  0.00  0.00    +0.000 C 
ATOM     19  C   UNL     1       4.265   5.667  18.711  0.00  0.00    +0.000 C 
ENDBRANCH  11  19
ENDBRANCH  10  11
ENDBRANCH   1  10
BRANCH   4  20
ATOM     20  C   UNL     1       0.392  12.193  21.206  0.00  0.00    +0.000 C 
BRANCH  20  21
ATOM     21  N   UNL     1      -1.050  12.101  21.332  0.00  0.00    +0.000 N 
ATOM     22  C   UNL     1      -1.883  12.904  20.585  0.00  0.00    +0.000 C 
ATOM     23  O   UNL     1      -1.472  13.700  19.748  0.00  0.00    +0.000 OA
ATOM     24  H   UNL     1      -1.422  11.315  21.846  0.00  0.00    +0.000 HD
BRANCH  22  25
ATOM     25  C   UNL     1      -3.342  12.749  20.824  0.00  0.00    +0.000 A 
ATOM     26  C   UNL     1      -4.235  12.457  19.788  0.00  0.00    +0.000 A 
ATOM     27  C   UNL     1      -5.596  12.299  20.065  0.00  0.00    +0.000 A 
ATOM     28  C   UNL     1      -6.079  12.418  21.378  0.00  0.00    +0.000 A 
ATOM     29  C   UNL     1      -7.441  12.254  21.674  0.00  0.00    +0.000 A 
ATOM     30  C   UNL     1      -7.904  12.369  22.988  0.00  0.00    +0.000 A 
ATOM     31  C   UNL     1      -7.012  12.650  24.015  0.00  0.00    +0.000 A 
ATOM     32  C   UNL     1      -5.655  12.814  23.741  0.00  0.00    +0.000 A 
ATOM     33  C   UNL     1      -5.174  12.701  22.427  0.00  0.00    +0.000 A 
ATOM     34  C   UNL     1      -3.811  12.859  22.138  0.00  0.00    +0.000 A 
ENDBRANCH  22  25
ENDBRANCH  20  21
ENDBRANCH   4  20
BRANCH   6  35
ATOM     35  C   UNL     1      -0.548   9.311  17.835  0.00  0.00    +0.000 C 
BRANCH  35  36
ATOM     36  C   UNL     1      -1.828  10.065  18.181  0.00  0.00    +0.000 C 
BRANCH  36  37
ATOM     37  C   UNL     1      -2.274  10.888  16.973  0.00  0.00    +0.000 C 
BRANCH  37  38
ATOM     38  N   UNL     1      -1.817  12.266  17.091  0.00  0.00    +0.000 NA
ATOM     39  H   UNL     1      -0.978  12.395  16.527  0.00  0.00    +0.000 HD
ATOM     40  H   UNL     1      -1.543  12.446  18.056  0.00  0.00    +0.000 HD
ENDBRANCH  37  38
ENDBRANCH  36  37
ENDBRANCH  35  36
ENDBRANCH   6  35
TORSDOF 11
ENDMDL
MODEL 6
REMARK VINA RESULT:      -8.1      3.408      6.659
REMARK  Name = 
REMARK  12 active torsions:
REMARK  status: ('A' for Active; 'I' for Inactive)
REMARK    1  A    between atoms: C_1  and  C_2
REMARK    2  A    between atoms: C_2  and  C_3
REMARK    3  A    between atoms: C_3  and  C_4
REMARK    4  A    between atoms: C_3  and  C_31
REMARK    5  A    between atoms: C_4  and  N_5
REMARK    6  A    between atoms: C_8  and  C_9
REMARK    7  A    between atoms: C_9  and  N_10
REMARK    8  A    between atoms: C_11  and  C_13
REMARK    9  A    between atoms: C_24  and  C_25
REMARK   10  A    between atoms: C_25  and  C_26
REMARK   11  A    between atoms: C_26  and  C_27
REMARK   12  A    between atoms: C_27  and  N_28
REMARK                            x       y       z     vdW  Elec       q    Type
REMARK                         _______ _______ _______ _____ _____    ______ ____
ROOT
ATOM      1  N   UNL     1       3.761   4.934  17.181  0.00  0.00    +0.000 N 
ATOM      2  C   UNL     1       3.711   6.354  17.497  0.00  0.00    +0.000 C 
ATOM      3  C   UNL     1       3.448   6.742  18.946  0.00  0.00    +0.000 C 
ATOM      4  C   UNL     1       2.079   6.280  19.453  0.00  0.00    +0.000 C 
ATOM      5  N   UNL     1       2.021   4.886  19.919  0.00  0.00    +0.000 NA
ATOM      6  C   UNL     1       2.768   3.857  19.178  0.00  0.00    +0.000 C 
ATOM      7  C   UNL     1       2.818   4.023  17.651  0.00  0.00    +0.000 C 
ATOM      8  O   UNL     1       2.249   3.218  16.911  0.00  0.00    +0.000 OA
ATOM      9  H   UNL     1       1.033   4.617  19.917  0.00  0.00    +0.000 HD
ENDROOT
BRANCH   1  10
ATOM     10  C   UNL     1       4.691   4.462  16.155  0.00  0.00    +0.000 C 
BRANCH  10  11
ATOM     11  C   UNL     1       5.779   5.416  15.611  0.00  0.00    +0.000 C 
BRANCH  11  12
ATOM     12  C   UNL     1       6.644   5.873  16.799  0.00  0.00    +0.000 A 
ATOM     13  C   UNL     1       7.018   7.216  16.944  0.00  0.00    +0.000 A 
ATOM     14  C   UNL     1       7.822   7.619  18.017  0.00  0.00    +0.000 A 
ATOM     15  C   UNL     1       8.260   6.690  18.959  0.00  0.00    +0.000 A 
ATOM     16  C   UNL     1       7.887   5.356  18.835  0.00  0.00    +0.000 A 
ATOM     17  C   UNL     1       7.081   4.951  17.770  0.00  0.00    +0.000 A 
ENDBRANCH  11  12
BRANCH  11  19
ATOM     18  C   UNL     1       6.070   3.844  13.563  0.00  0.00    +0.000 C 
ATOM     19  C   UNL     1       6.707   4.832  14.524  0.00  0.00    +0.000 C 
ENDBRANCH  11  19
ENDBRANCH  10  11
ENDBRANCH   1  10
BRANCH   4  20
ATOM     20  C   UNL     1       1.655   7.211  20.620  0.00  0.00    +0.000 C 
BRANCH  20  21
ATOM     21  N   UNL     1       1.524   8.602  20.235  0.00  0.00    +0.000 N 
ATOM     22  C   UNL     1       0.460   9.363  20.665  0.00  0.00    +0.000 C 
ATOM     23  O   UNL     1      -0.404   8.938  21.424  0.00  0.00    +0.000 OA
ATOM     24  H   UNL     1       2.322   9.040  19.794  0.00  0.00    +0.000 HD
BRANCH  22  25
ATOM     25  C   UNL     1       0.409  10.767  20.178  0.00  0.00    +0.000 A 
ATOM     26  C   UNL     1       1.139  11.190  19.063  0.00  0.00    +0.000 A 
ATOM     27  C   UNL     1       1.042  12.515  18.627  0.00  0.00    +0.000 A 
ATOM     28  C   UNL     1       0.206  13.428  19.291  0.00  0.00    +0.000 A 
ATOM     29  C   UNL     1       0.090  14.759  18.861  0.00  0.00    +0.000 A 
ATOM     30  C   UNL     1      -0.752  15.653  19.528  0.00  0.00    +0.000 A 
ATOM     31  C   UNL     1      -1.483  15.226  20.629  0.00  0.00    +0.000 A 
ATOM     32  C   UNL     1      -1.383  13.906  21.069  0.00  0.00    +0.000 A 
ATOM     33  C   UNL     1      -0.542  12.996  20.410  0.00  0.00    +0.000 A 
ATOM     34  C   UNL     1      -0.436  11.666  20.839  0.00  0.00    +0.000 A 
ENDBRANCH  22  25
ENDBRANCH  20  21
ENDBRANCH   4  20
BRANCH   6  35
ATOM     35  C   UNL     1       4.198   3.575  19.686  0.00  0.00    +0.000 C 
BRANCH  35  36
ATOM     36  C   UNL     1       4.458   2.126  20.085  0.00  0.00    +0.000 C 
BRANCH  36  37
ATOM     37  C   UNL     1       3.521   1.208  19.300  0.00  0.00    +0.000 C 
BRANCH  37  38
ATOM     38  N   UNL     1       4.143   0.779  18.055  0.00  0.00    +0.000 NA
ATOM     39  H   UNL     1       4.931   1.388  17.840  0.00  0.00    +0.000 HD
ATOM     40  H   UNL     1       3.476   0.893  17.293  0.00  0.00    +0.000 HD
ENDBRANCH  37  38
ENDBRANCH  36  37
ENDBRANCH  35  36
ENDBRANCH   6  35
TORSDOF 11
ENDMDL
MODEL 7
REMARK VINA RESULT:      -8.1      1.838      9.760
REMARK  Name = 
REMARK  12 active torsions:
REMARK  status: ('A' for Active; 'I' for Inactive)
REMARK    1  A    between atoms: C_1  and  C_2
REMARK    2  A    between atoms: C_2  and  C_3
REMARK    3  A    between atoms: C_3  and  C_4
REMARK    4  A    between atoms: C_3  and  C_31
REMARK    5  A    between atoms: C_4  and  N_5
REMARK    6  A    between atoms: C_8  and  C_9
REMARK    7  A    between atoms: C_9  and  N_10
REMARK    8  A    between atoms: C_11  and  C_13
REMARK    9  A    between atoms: C_24  and  C_25
REMARK   10  A    between atoms: C_25  and  C_26
REMARK   11  A    between atoms: C_26  and  C_27
REMARK   12  A    between atoms: C_27  and  N_28
REMARK                            x       y       z     vdW  Elec       q    Type
REMARK                         _______ _______ _______ _____ _____    ______ ____
ROOT
ATOM      1  N   UNL     1      -1.962  12.938  19.806  0.00  0.00    +0.000 N 
ATOM      2  C   UNL     1      -1.752  12.237  18.548  0.00  0.00    +0.000 C 
ATOM      3  C   UNL     1      -0.732  11.106  18.535  0.00  0.00    +0.000 C 
ATOM      4  C   UNL     1       0.691  11.576  18.849  0.00  0.00    +0.000 C 
ATOM      5  N   UNL     1       1.004  11.710  20.280  0.00  0.00    +0.000 NA
ATOM      6  C   UNL     1      -0.022  12.250  21.186  0.00  0.00    +0.000 C 
ATOM      7  C   UNL     1      -0.911  13.367  20.614  0.00  0.00    +0.000 C 
ATOM      8  O   UNL     1      -0.843  14.515  21.058  0.00  0.00    +0.000 OA
ATOM      9  H   UNL     1       1.828  12.316  20.344  0.00  0.00    +0.000 HD
ENDROOT
BRANCH   1  10
ATOM     10  C   UNL     1      -3.301  13.419  20.143  0.00  0.00    +0.000 C 
BRANCH  10  11
ATOM     11  C   UNL     1      -4.466  12.410  20.270  0.00  0.00    +0.000 C 
BRANCH  11  12
ATOM     12  C   UNL     1      -5.105  12.598  21.658  0.00  0.00    +0.000 A 
ATOM     13  C   UNL     1      -6.498  12.622  21.812  0.00  0.00    +0.000 A 
ATOM     14  C   UNL     1      -7.070  12.815  23.076  0.00  0.00    +0.000 A 
ATOM     15  C   UNL     1      -6.263  12.981  24.199  0.00  0.00    +0.000 A 
ATOM     16  C   UNL     1      -4.879  12.947  24.063  0.00  0.00    +0.000 A 
ATOM     17  C   UNL     1      -4.305  12.750  22.806  0.00  0.00    +0.000 A 
ENDBRANCH  11  12
BRANCH  11  19
ATOM     18  C   UNL     1      -5.256  11.913  17.846  0.00  0.00    +0.000 C 
ATOM     19  C   UNL     1      -5.574  12.520  19.201  0.00  0.00    +0.000 C 
ENDBRANCH  11  19
ENDBRANCH  10  11
ENDBRANCH   1  10
BRANCH   4  20
ATOM     20  C   UNL     1       1.685  10.567  18.216  0.00  0.00    +0.000 C 
BRANCH  20  21
ATOM     21  N   UNL     1       1.578   9.227  18.761  0.00  0.00    +0.000 N 
ATOM     22  C   UNL     1       2.435   8.226  18.361  0.00  0.00    +0.000 C 
ATOM     23  O   UNL     1       3.354   8.407  17.571  0.00  0.00    +0.000 OA
ATOM     24  H   UNL     1       0.979   9.099  19.564  0.00  0.00    +0.000 HD
BRANCH  22  25
ATOM     25  C   UNL     1       2.209   6.883  18.958  0.00  0.00    +0.000 A 
ATOM     26  C   UNL     1       1.950   6.713  20.322  0.00  0.00    +0.000 A 
ATOM     27  C   UNL     1       1.721   5.433  20.834  0.00  0.00    +0.000 A 
ATOM     28  C   UNL     1       1.735   4.310  19.990  0.00  0.00    +0.000 A 
ATOM     29  C   UNL     1       1.499   3.019  20.486  0.00  0.00    +0.000 A 
ATOM     30  C   UNL     1       1.509   1.913  19.632  0.00  0.00    +0.000 A 
ATOM     31  C   UNL     1       1.757   2.088  18.277  0.00  0.00    +0.000 A 
ATOM     32  C   UNL     1       1.992   3.363  17.764  0.00  0.00    +0.000 A 
ATOM     33  C   UNL     1       1.984   4.484  18.609  0.00  0.00    +0.000 A 
ATOM     34  C   UNL     1       2.214   5.772  18.106  0.00  0.00    +0.000 A 
ENDBRANCH  22  25
ENDBRANCH  20  21
ENDBRANCH   4  20
BRANCH   6  35
ATOM     35  C   UNL     1      -0.929  11.203  21.865  0.00  0.00    +0.000 C 
BRANCH  35  36
ATOM     36  C   UNL     1      -0.240  10.360  22.933  0.00  0.00    +0.000 C 
BRANCH  36  37
ATOM     37  C   UNL     1      -0.400   8.879  22.591  0.00  0.00    +0.000 C 
BRANCH  37  38
ATOM     38  N   UNL     1      -0.327   8.672  21.151  0.00  0.00    +0.000 NA
ATOM     39  H   UNL     1       0.459   9.197  20.771  0.00  0.00    +0.000 HD
ATOM     40  H   UNL     1      -1.165   9.056  20.715  0.00  0.00    +0.000 HD
ENDBRANCH  37  38
ENDBRANCH  36  37
ENDBRANCH  35  36
ENDBRANCH   6  35
TORSDOF 11
ENDMDL
MODEL 8
REMARK VINA RESULT:      -8.1      2.544     10.141
REMARK  Name = 
REMARK  12 active torsions:
REMARK  status: ('A' for Active; 'I' for Inactive)
REMARK    1  A    between atoms: C_1  and  C_2
REMARK    2  A    between atoms: C_2  and  C_3
REMARK    3  A    between atoms: C_3  and  C_4
REMARK    4  A    between atoms: C_3  and  C_31
REMARK    5  A    between atoms: C_4  and  N_5
REMARK    6  A    between atoms: C_8  and  C_9
REMARK    7  A    between atoms: C_9  and  N_10
REMARK    8  A    between atoms: C_11  and  C_13
REMARK    9  A    between atoms: C_24  and  C_25
REMARK   10  A    between atoms: C_25  and  C_26
REMARK   11  A    between atoms: C_26  and  C_27
REMARK   12  A    between atoms: C_27  and  N_28
REMARK                            x       y       z     vdW  Elec       q    Type
REMARK                         _______ _______ _______ _____ _____    ______ ____
ROOT
ATOM      1  N   UNL     1      -1.358  11.508  19.120  0.00  0.00    +0.000 N 
ATOM      2  C   UNL     1      -1.110  10.099  18.852  0.00  0.00    +0.000 C 
ATOM      3  C   UNL     1      -0.543   9.256  19.987  0.00  0.00    +0.000 C 
ATOM      4  C   UNL     1       0.845   9.717  20.442  0.00  0.00    +0.000 C 
ATOM      5  N   UNL     1       0.852  10.835  21.399  0.00  0.00    +0.000 NA
ATOM      6  C   UNL     1      -0.118  11.927  21.224  0.00  0.00    +0.000 C 
ATOM      7  C   UNL     1      -0.437  12.324  19.773  0.00  0.00    +0.000 C 
ATOM      8  O   UNL     1      -0.099  13.425  19.333  0.00  0.00    +0.000 OA
ATOM      9  H   UNL     1       1.791  11.241  21.367  0.00  0.00    +0.000 HD
ENDROOT
BRANCH   1  10
ATOM     10  C   UNL     1      -2.505  12.165  18.494  0.00  0.00    +0.000 C 
BRANCH  10  11
ATOM     11  C   UNL     1      -3.568  11.313  17.764  0.00  0.00    +0.000 C 
BRANCH  11  12
ATOM     12  C   UNL     1      -4.956  11.860  18.146  0.00  0.00    +0.000 A 
ATOM     13  C   UNL     1      -5.848  12.312  17.164  0.00  0.00    +0.000 A 
ATOM     14  C   UNL     1      -7.100  12.826  17.523  0.00  0.00    +0.000 A 
ATOM     15  C   UNL     1      -7.478  12.893  18.863  0.00  0.00    +0.000 A 
ATOM     16  C   UNL     1      -6.608  12.436  19.847  0.00  0.00    +0.000 A 
ATOM     17  C   UNL     1      -5.362  11.918  19.493  0.00  0.00    +0.000 A 
ENDBRANCH  11  12
BRANCH  11  19
ATOM     18  C   UNL     1      -2.909   9.997  15.623  0.00  0.00    +0.000 C 
ATOM     19  C   UNL     1      -3.463  11.277  16.224  0.00  0.00    +0.000 C 
ENDBRANCH  11  19
ENDBRANCH  10  11
ENDBRANCH   1  10
BRANCH   4  20
ATOM     20  C   UNL     1       1.569   8.507  21.088  0.00  0.00    +0.000 C 
BRANCH  20  21
ATOM     21  N   UNL     1       2.278   7.676  20.134  0.00  0.00    +0.000 N 
ATOM     22  C   UNL     1       2.111   6.309  20.116  0.00  0.00    +0.000 C 
ATOM     23  O   UNL     1       1.333   5.720  20.859  0.00  0.00    +0.000 OA
ATOM     24  H   UNL     1       2.754   8.144  19.375  0.00  0.00    +0.000 HD
BRANCH  22  25
ATOM     25  C   UNL     1       2.917   5.556  19.120  0.00  0.00    +0.000 A 
ATOM     26  C   UNL     1       2.979   4.158  19.123  0.00  0.00    +0.000 A 
ATOM     27  C   UNL     1       3.732   3.492  18.153  0.00  0.00    +0.000 A 
ATOM     28  C   UNL     1       4.421   4.210  17.162  0.00  0.00    +0.000 A 
ATOM     29  C   UNL     1       5.175   3.556  16.175  0.00  0.00    +0.000 A 
ATOM     30  C   UNL     1       5.849   4.286  15.192  0.00  0.00    +0.000 A 
ATOM     31  C   UNL     1       5.776   5.672  15.187  0.00  0.00    +0.000 A 
ATOM     32  C   UNL     1       5.031   6.340  16.158  0.00  0.00    +0.000 A 
ATOM     33  C   UNL     1       4.348   5.622  17.151  0.00  0.00    +0.000 A 
ATOM     34  C   UNL     1       3.591   6.281  18.131  0.00  0.00    +0.000 A 
ENDBRANCH  22  25
ENDBRANCH  20  21
ENDBRANCH   4  20
BRANCH   6  35
ATOM     35  C   UNL     1      -1.448  11.768  21.990  0.00  0.00    +0.000 C 
BRANCH  35  36
ATOM     36  C   UNL     1      -1.535  12.566  23.287  0.00  0.00    +0.000 C 
BRANCH  36  37
ATOM     37  C   UNL     1      -1.016  13.983  23.046  0.00  0.00    +0.000 C 
BRANCH  37  38
ATOM     38  N   UNL     1      -2.051  14.817  22.451  0.00  0.00    +0.000 NA
ATOM     39  H   UNL     1      -2.403  14.371  21.605  0.00  0.00    +0.000 HD
ATOM     40  H   UNL     1      -1.639  15.702  22.157  0.00  0.00    +0.000 HD
ENDBRANCH  37  38
ENDBRANCH  36  37
ENDBRANCH  35  36
ENDBRANCH   6  35
TORSDOF 11
ENDMDL
MODEL 9
REMARK VINA RESULT:      -7.9      1.029      1.082
REMARK  Name = 
REMARK  12 active torsions:
REMARK  status: ('A' for Active; 'I' for Inactive)
REMARK    1  A    between atoms: C_1  and  C_2
REMARK    2  A    between atoms: C_2  and  C_3
REMARK    3  A    between atoms: C_3  and  C_4
REMARK    4  A    between atoms: C_3  and  C_31
REMARK    5  A    between atoms: C_4  and  N_5
REMARK    6  A    between atoms: C_8  and  C_9
REMARK    7  A    between atoms: C_9  and  N_10
REMARK    8  A    between atoms: C_11  and  C_13
REMARK    9  A    between atoms: C_24  and  C_25
REMARK   10  A    between atoms: C_25  and  C_26
REMARK   11  A    between atoms: C_26  and  C_27
REMARK   12  A    between atoms: C_27  and  N_28
REMARK                            x       y       z     vdW  Elec       q    Type
REMARK                         _______ _______ _______ _____ _____    ______ ____
ROOT
ATOM      1  N   UNL     1       1.539   8.735  19.173  0.00  0.00    +0.000 N 
ATOM      2  C   UNL     1       1.434   8.180  20.515  0.00  0.00    +0.000 C 
ATOM      3  C   UNL     1       0.284   8.664  21.388  0.00  0.00    +0.000 C 
ATOM      4  C   UNL     1       0.353  10.162  21.695  0.00  0.00    +0.000 C 
ATOM      5  N   UNL     1      -0.199  11.041  20.652  0.00  0.00    +0.000 NA
ATOM      6  C   UNL     1       0.037  10.704  19.239  0.00  0.00    +0.000 C 
ATOM      7  C   UNL     1       1.410  10.096  18.909  0.00  0.00    +0.000 C 
ATOM      8  O   UNL     1       2.225  10.718  18.223  0.00  0.00    +0.000 OA
ATOM      9  H   UNL     1       0.188  11.974  20.821  0.00  0.00    +0.000 HD
ENDROOT
BRANCH   1  10
ATOM     10  C   UNL     1       2.018   7.886  18.082  0.00  0.00    +0.000 C 
BRANCH  10  11
ATOM     11  C   UNL     1       3.144   6.862  18.349  0.00  0.00    +0.000 C 
BRANCH  11  12
ATOM     12  C   UNL     1       2.487   5.534  18.769  0.00  0.00    +0.000 A 
ATOM     13  C   UNL     1       1.861   4.710  17.823  0.00  0.00    +0.000 A 
ATOM     14  C   UNL     1       1.248   3.514  18.217  0.00  0.00    +0.000 A 
ATOM     15  C   UNL     1       1.254   3.125  19.556  0.00  0.00    +0.000 A 
ATOM     16  C   UNL     1       1.881   3.927  20.503  0.00  0.00    +0.000 A 
ATOM     17  C   UNL     1       2.498   5.117  20.113  0.00  0.00    +0.000 A 
ENDBRANCH  11  12
BRANCH  11  19
ATOM     18  C   UNL     1       5.568   6.880  17.413  0.00  0.00    +0.000 C 
ATOM     19  C   UNL     1       4.098   6.584  17.167  0.00  0.00    +0.000 C 
ENDBRANCH  11  19
ENDBRANCH  10  11
ENDBRANCH   1  10
BRANCH   4  20
ATOM     20  C   UNL     1      -0.415  10.420  23.018  0.00  0.00    +0.000 C 
BRANCH  20  21
ATOM     21  N   UNL     1      -1.599  11.242  22.853  0.00  0.00    +0.000 N 
ATOM     22  C   UNL     1      -1.569  12.594  23.112  0.00  0.00    +0.000 C 
ATOM     23  O   UNL     1      -0.552  13.189  23.449  0.00  0.00    +0.000 OA
ATOM     24  H   UNL     1      -2.387  10.829  22.375  0.00  0.00    +0.000 HD
BRANCH  22  25
ATOM     25  C   UNL     1      -2.851  13.328  22.945  0.00  0.00    +0.000 A 
ATOM     26  C   UNL     1      -2.975  14.684  23.269  0.00  0.00    +0.000 A 
ATOM     27  C   UNL     1      -4.194  15.339  23.073  0.00  0.00    +0.000 A 
ATOM     28  C   UNL     1      -5.299  14.653  22.542  0.00  0.00    +0.000 A 
ATOM     29  C   UNL     1      -6.528  15.298  22.331  0.00  0.00    +0.000 A 
ATOM     30  C   UNL     1      -7.615  14.603  21.795  0.00  0.00    +0.000 A 
ATOM     31  C   UNL     1      -7.485  13.260  21.466  0.00  0.00    +0.000 A 
ATOM     32  C   UNL     1      -6.271  12.603  21.666  0.00  0.00    +0.000 A 
ATOM     33  C   UNL     1      -5.170  13.287  22.203  0.00  0.00    +0.000 A 
ATOM     34  C   UNL     1      -3.943  12.639  22.404  0.00  0.00    +0.000 A 
ENDBRANCH  22  25
ENDBRANCH  20  21
ENDBRANCH   4  20
BRANCH   6  35
ATOM     35  C   UNL     1      -1.053   9.844  18.567  0.00  0.00    +0.000 C 
BRANCH  35  36
ATOM     36  C   UNL     1      -1.705  10.482  17.345  0.00  0.00    +0.000 C 
BRANCH  36  37
ATOM     37  C   UNL     1      -2.898   9.634  16.906  0.00  0.00    +0.000 C 
BRANCH  37  38
ATOM     38  N   UNL     1      -3.065   9.686  15.460  0.00  0.00    +0.000 NA
ATOM     39  H   UNL     1      -3.727  10.423  15.221  0.00  0.00    +0.000 HD
ATOM     40  H   UNL     1      -3.480   8.813  15.140  0.00  0.00    +0.000 HD
ENDBRANCH  37  38
ENDBRANCH  36  37
ENDBRANCH  35  36
ENDBRANCH   6  35
TORSDOF 11
ENDMDL
