MODEL 1
REMARK VINA RESULT:      -7.3      0.000      0.000
REMARK  Name = 
REMARK  8 active torsions:
REMARK  status: ('A' for Active; 'I' for Inactive)
REMARK    1  A    between atoms: C_1  and  C_2
REMARK    2  A    between atoms: C_2  and  C_3
REMARK    3  A    between atoms: C_3  and  C_4
REMARK    4  A    between atoms: C_4  and  C_5
REMARK    5  A    between atoms: C_5  and  C_6
REMARK    6  A    between atoms: C_6  and  C_7
REMARK    7  A    between atoms: C_8  and  O_9
REMARK    8  A    between atoms: O_9  and  C_10
REMARK                            x       y       z     vdW  Elec       q    Type
REMARK                         _______ _______ _______ _____ _____    ______ ____
ROOT
ATOM      1  C   UNL     1       3.883   5.865  17.466  0.00  0.00    +0.000 C 
ATOM      2  C   UNL     1       3.255   6.760  18.259  0.00  0.00    +0.000 C 
ATOM      3  C   UNL     1       2.414   6.304  19.423  0.00  0.00    +0.000 C 
ATOM      4  O   UNL     1       1.934   7.075  20.249  0.00  0.00    +0.000 OA
ATOM      5  C   UNL     1       2.150   4.862  19.571  0.00  0.00    +0.000 A 
ATOM      6  C   UNL     1       1.278   4.395  20.561  0.00  0.00    +0.000 A 
ATOM      7  C   UNL     1       1.019   3.025  20.688  0.00  0.00    +0.000 A 
ATOM      8  C   UNL     1       1.625   2.117  19.824  0.00  0.00    +0.000 A 
ATOM      9  C   UNL     1       2.500   2.576  18.847  0.00  0.00    +0.000 A 
ATOM     10  C   UNL     1       2.763   3.951  18.729  0.00  0.00    +0.000 A 
ATOM     11  C   UNL     1       3.715   4.401  17.717  0.00  0.00    +0.000 C 
ATOM     12  O   UNL     1       4.327   3.527  17.116  0.00  0.00    +0.000 OA
ENDROOT
BRANCH   2  13
ATOM     13  O   UNL     1       3.376   8.109  17.929  0.00  0.00    +0.000 OA
ATOM     14  C   UNL     1       2.189   8.853  17.681  0.00  0.00    +0.000 C 
ENDBRANCH   2  13
BRANCH   1  15
ATOM     15  C   UNL     1       4.771   6.343  16.316  0.00  0.00    +0.000 C 
BRANCH  15  16
ATOM     16  C   UNL     1       6.271   6.370  16.597  0.00  0.00    +0.000 C 
BRANCH  16  17
ATOM     17  C   UNL     1       6.684   6.170  18.047  0.00  0.00    +0.000 C 
BRANCH  17  18
ATOM     18  C   UNL     1       7.949   7.004  18.287  0.00  0.00    +0.000 C 
BRANCH  18  20
ATOM     19  C   UNL     1       8.560   9.428  18.436  0.00  0.00    +0.000 C 
ATOM     20  C   UNL     1       7.888   8.356  17.592  0.00  0.00    +0.000 C 
ENDBRANCH  18  20
ENDBRANCH  17  18
ENDBRANCH  16  17
ENDBRANCH  15  16
ENDBRANCH   1  15
TORSDOF 6
ENDMDL
MODEL 2
REMARK VINA RESULT:      -7.2      1.511      2.624
REMARK  Name = 
REMARK  8 active torsions:
REMARK  status: ('A' for Active; 'I' for Inactive)
REMARK    1  A    between atoms: C_1  and  C_2
REMARK    2  A    between atoms: C_2  and  C_3
REMARK    3  A    between atoms: C_3  and  C_4
REMARK    4  A    between atoms: C_4  and  C_5
REMARK    5  A    between atoms: C_5  and  C_6
REMARK    6  A    between atoms: C_6  and  C_7
REMARK    7  A    between atoms: C_8  and  O_9
REMARK    8  A    between atoms: O_9  and  C_10
REMARK                            x       y       z     vdW  Elec       q    Type
REMARK                         _______ _______ _______ _____ _____    ______ ____
ROOT
ATOM      1  C   UNL     1       3.897   5.817  17.496  0.00  0.00    +0.000 C 
ATOM      2  C   UNL     1       3.272   6.710  18.294  0.00  0.00    +0.000 C 
ATOM      3  C   UNL     1       2.417   6.249  19.446  0.00  0.00    +0.000 C 
ATOM      4  O   UNL     1       1.938   7.015  20.276  0.00  0.00    +0.000 OA
ATOM      5  C   UNL     1       2.137   4.809  19.574  0.00  0.00    +0.000 A 
ATOM      6  C   UNL     1       1.252   4.340  20.552  0.00  0.00    +0.000 A 
ATOM      7  C   UNL     1       0.978   2.971  20.662  0.00  0.00    +0.000 A 
ATOM      8  C   UNL     1       1.582   2.067  19.792  0.00  0.00    +0.000 A 
ATOM      9  C   UNL     1       2.469   2.527  18.828  0.00  0.00    +0.000 A 
ATOM     10  C   UNL     1       2.747   3.901  18.727  0.00  0.00    +0.000 A 
ATOM     11  C   UNL     1       3.712   4.353  17.728  0.00  0.00    +0.000 C 
ATOM     12  O   UNL     1       4.320   3.479  17.122  0.00  0.00    +0.000 OA
ENDROOT
BRANCH   2  13
ATOM     13  O   UNL     1       3.410   8.062  17.980  0.00  0.00    +0.000 OA
ATOM     14  C   UNL     1       2.236   8.807  17.677  0.00  0.00    +0.000 C 
ENDBRANCH   2  13
BRANCH   1  15
ATOM     15  C   UNL     1       4.799   6.299  16.358  0.00  0.00    +0.000 C 
BRANCH  15  16
ATOM     16  C   UNL     1       6.301   6.256  16.632  0.00  0.00    +0.000 C 
BRANCH  16  17
ATOM     17  C   UNL     1       7.072   5.135  15.955  0.00  0.00    +0.000 C 
BRANCH  17  18
ATOM     18  C   UNL     1       6.611   5.072  14.494  0.00  0.00    +0.000 C 
BRANCH  18  20
ATOM     19  C   UNL     1       6.074   3.519  12.604  0.00  0.00    +0.000 C 
ATOM     20  C   UNL     1       6.081   3.698  14.115  0.00  0.00    +0.000 C 
ENDBRANCH  18  20
ENDBRANCH  17  18
ENDBRANCH  16  17
ENDBRANCH  15  16
ENDBRANCH   1  15
TORSDOF 6
ENDMDL
MODEL 3
REMARK VINA RESULT:      -7.0      2.768      4.165
REMARK  Name = 
REMARK  8 active torsions:
REMARK  status: ('A' for Active; 'I' for Inactive)
REMARK    1  A    between atoms: C_1  and  C_2
REMARK    2  A    between atoms: C_2  and  C_3
REMARK    3  A    between atoms: C_3  and  C_4
REMARK    4  A    between atoms: C_4  and  C_5
REMARK    5  A    between atoms: C_5  and  C_6
REMARK    6  A    between atoms: C_6  and  C_7
REMARK    7  A    between atoms: C_8  and  O_9
REMARK    8  A    between atoms: O_9  and  C_10
REMARK                            x       y       z     vdW  Elec       q    Type
REMARK                         _______ _______ _______ _____ _____    ______ ____
ROOT
ATOM      1  C   UNL     1       4.738   4.279  16.882  0.00  0.00    +0.000 C 
ATOM      2  C   UNL     1       4.504   5.549  17.276  0.00  0.00    +0.000 C 
ATOM      3  C   UNL     1       3.496   5.850  18.356  0.00  0.00    +0.000 C 
ATOM      4  O   UNL     1       3.343   6.967  18.840  0.00  0.00    +0.000 OA
ATOM      5  C   UNL     1       2.651   4.748  18.847  0.00  0.00    +0.000 A 
ATOM      6  C   UNL     1       1.620   4.995  19.761  0.00  0.00    +0.000 A 
ATOM      7  C   UNL     1       0.810   3.946  20.215  0.00  0.00    +0.000 A 
ATOM      8  C   UNL     1       1.023   2.650  19.754  0.00  0.00    +0.000 A 
ATOM      9  C   UNL     1       2.053   2.399  18.856  0.00  0.00    +0.000 A 
ATOM     10  C   UNL     1       2.868   3.454  18.410  0.00  0.00    +0.000 A 
ATOM     11  C   UNL     1       3.967   3.155  17.495  0.00  0.00    +0.000 C 
ATOM     12  O   UNL     1       4.188   1.971  17.274  0.00  0.00    +0.000 OA
ENDROOT
BRANCH   2  13
ATOM     13  O   UNL     1       5.189   6.567  16.612  0.00  0.00    +0.000 OA
ATOM     14  C   UNL     1       6.367   7.090  17.212  0.00  0.00    +0.000 C 
ENDBRANCH   2  13
BRANCH   1  15
ATOM     15  C   UNL     1       5.796   3.984  15.818  0.00  0.00    +0.000 C 
BRANCH  15  16
ATOM     16  C   UNL     1       5.318   4.035  14.368  0.00  0.00    +0.000 C 
BRANCH  16  17
ATOM     17  C   UNL     1       6.387   3.840  13.304  0.00  0.00    +0.000 C 
BRANCH  17  18
ATOM     18  C   UNL     1       5.721   3.166  12.098  0.00  0.00    +0.000 C 
BRANCH  18  20
ATOM     19  C   UNL     1       3.708   3.185  10.609  0.00  0.00    +0.000 C 
ATOM     20  C   UNL     1       4.239   3.492  12.001  0.00  0.00    +0.000 C 
ENDBRANCH  18  20
ENDBRANCH  17  18
ENDBRANCH  16  17
ENDBRANCH  15  16
ENDBRANCH   1  15
TORSDOF 6
ENDMDL
MODEL 4
REMARK VINA RESULT:      -7.0      1.723      3.631
REMARK  Name = 
REMARK  8 active torsions:
REMARK  status: ('A' for Active; 'I' for Inactive)
REMARK    1  A    between atoms: C_1  and  C_2
REMARK    2  A    between atoms: C_2  and  C_3
REMARK    3  A    between atoms: C_3  and  C_4
REMARK    4  A    between atoms: C_4  and  C_5
REMARK    5  A    between atoms: C_5  and  C_6
REMARK    6  A    between atoms: C_6  and  C_7
REMARK    7  A    between atoms: C_8  and  O_9
REMARK    8  A    between atoms: O_9  and  C_10
REMARK                            x       y       z     vdW  Elec       q    Type
REMARK                         _______ _______ _______ _____ _____    ______ ____
ROOT
ATOM      1  C   UNL     1       4.719   5.019  18.028  0.00  0.00    +0.000 C 
ATOM      2  C   UNL     1       4.262   4.538  19.204  0.00  0.00    +0.000 C 
ATOM      3  C   UNL     1       3.157   5.242  19.950  0.00  0.00    +0.000 C 
ATOM      4  O   UNL     1       2.619   4.776  20.949  0.00  0.00    +0.000 OA
ATOM      5  C   UNL     1       2.710   6.555  19.457  0.00  0.00    +0.000 A 
ATOM      6  C   UNL     1       1.774   7.306  20.178  0.00  0.00    +0.000 A 
ATOM      7  C   UNL     1       1.362   8.560  19.713  0.00  0.00    +0.000 A 
ATOM      8  C   UNL     1       1.887   9.073  18.529  0.00  0.00    +0.000 A 
ATOM      9  C   UNL     1       2.807   8.326  17.804  0.00  0.00    +0.000 A 
ATOM     10  C   UNL     1       3.212   7.064  18.272  0.00  0.00    +0.000 A 
ATOM     11  C   UNL     1       4.153   6.285  17.471  0.00  0.00    +0.000 C 
ATOM     12  O   UNL     1       4.432   6.734  16.366  0.00  0.00    +0.000 OA
ENDROOT
BRANCH   2  13
ATOM     13  O   UNL     1       4.884   3.402  19.721  0.00  0.00    +0.000 OA
ATOM     14  C   UNL     1       4.254   2.141  19.529  0.00  0.00    +0.000 C 
ENDBRANCH   2  13
BRANCH   1  15
ATOM     15  C   UNL     1       5.808   4.270  17.260  0.00  0.00    +0.000 C 
BRANCH  15  16
ATOM     16  C   UNL     1       7.144   4.996  17.114  0.00  0.00    +0.000 C 
BRANCH  16  17
ATOM     17  C   UNL     1       7.959   5.157  18.387  0.00  0.00    +0.000 C 
BRANCH  17  18
ATOM     18  C   UNL     1       7.871   6.629  18.811  0.00  0.00    +0.000 C 
BRANCH  18  20
ATOM     19  C   UNL     1       8.225   8.952  17.948  0.00  0.00    +0.000 C 
ATOM     20  C   UNL     1       7.704   7.561  17.621  0.00  0.00    +0.000 C 
ENDBRANCH  18  20
ENDBRANCH  17  18
ENDBRANCH  16  17
ENDBRANCH  15  16
ENDBRANCH   1  15
TORSDOF 6
ENDMDL
MODEL 5
REMARK VINA RESULT:      -7.0      0.750      1.339
REMARK  Name = 
REMARK  8 active torsions:
REMARK  status: ('A' for Active; 'I' for Inactive)
REMARK    1  A    between atoms: C_1  and  C_2
REMARK    2  A    between atoms: C_2  and  C_3
REMARK    3  A    between atoms: C_3  and  C_4
REMARK    4  A    between atoms: C_4  and  C_5
REMARK    5  A    between atoms: C_5  and  C_6
REMARK    6  A    between atoms: C_6  and  C_7
REMARK    7  A    between atoms: C_8  and  O_9
REMARK    8  A    between atoms: O_9  and  C_10
REMARK                            x       y       z     vdW  Elec       q    Type
REMARK                         _______ _______ _______ _____ _____    ______ ____
ROOT
ATOM      1  C   UNL     1       3.857   6.016  17.349  0.00  0.00    +0.000 C 
ATOM      2  C   UNL     1       3.233   6.822  18.234  0.00  0.00    +0.000 C 
ATOM      3  C   UNL     1       2.404   6.246  19.353  0.00  0.00    +0.000 C 
ATOM      4  O   UNL     1       1.928   6.927  20.255  0.00  0.00    +0.000 OA
ATOM      5  C   UNL     1       2.148   4.796  19.356  0.00  0.00    +0.000 A 
ATOM      6  C   UNL     1       1.287   4.226  20.301  0.00  0.00    +0.000 A 
ATOM      7  C   UNL     1       1.036   2.849  20.291  0.00  0.00    +0.000 A 
ATOM      8  C   UNL     1       1.639   2.036  19.335  0.00  0.00    +0.000 A 
ATOM      9  C   UNL     1       2.503   2.596  18.402  0.00  0.00    +0.000 A 
ATOM     10  C   UNL     1       2.758   3.978  18.421  0.00  0.00    +0.000 A 
ATOM     11  C   UNL     1       3.699   4.533  17.452  0.00  0.00    +0.000 C 
ATOM     12  O   UNL     1       4.310   3.728  16.760  0.00  0.00    +0.000 OA
ENDROOT
BRANCH   2  13
ATOM     13  O   UNL     1       3.344   8.199  18.041  0.00  0.00    +0.000 OA
ATOM     14  C   UNL     1       2.172   8.930  17.697  0.00  0.00    +0.000 C 
ENDBRANCH   2  13
BRANCH   1  15
ATOM     15  C   UNL     1       4.732   6.613  16.246  0.00  0.00    +0.000 C 
BRANCH  15  16
ATOM     16  C   UNL     1       6.241   6.505  16.457  0.00  0.00    +0.000 C 
BRANCH  16  17
ATOM     17  C   UNL     1       6.878   7.602  17.296  0.00  0.00    +0.000 C 
BRANCH  17  18
ATOM     18  C   UNL     1       7.883   6.935  18.243  0.00  0.00    +0.000 C 
BRANCH  18  20
ATOM     19  C   UNL     1       6.614   5.243  19.584  0.00  0.00    +0.000 C 
ATOM     20  C   UNL     1       7.595   5.455  18.441  0.00  0.00    +0.000 C 
ENDBRANCH  18  20
ENDBRANCH  17  18
ENDBRANCH  16  17
ENDBRANCH  15  16
ENDBRANCH   1  15
TORSDOF 6
ENDMDL
MODEL 6
REMARK VINA RESULT:      -6.9      2.252      3.963
REMARK  Name = 
REMARK  8 active torsions:
REMARK  status: ('A' for Active; 'I' for Inactive)
REMARK    1  A    between atoms: C_1  and  C_2
REMARK    2  A    between atoms: C_2  and  C_3
REMARK    3  A    between atoms: C_3  and  C_4
REMARK    4  A    between atoms: C_4  and  C_5
REMARK    5  A    between atoms: C_5  and  C_6
REMARK    6  A    between atoms: C_6  and  C_7
REMARK    7  A    between atoms: C_8  and  O_9
REMARK    8  A    between atoms: O_9  and  C_10
REMARK                            x       y       z     vdW  Elec       q    Type
REMARK                         _______ _______ _______ _____ _____    ______ ____
ROOT
ATOM      1  C   UNL     1       4.607   5.426  18.079  0.00  0.00    +0.000 C 
ATOM      2  C   UNL     1       5.387   4.507  18.688  0.00  0.00    +0.000 C 
ATOM      3  C   UNL     1       4.783   3.448  19.575  0.00  0.00    +0.000 C 
ATOM      4  O   UNL     1       5.428   2.515  20.042  0.00  0.00    +0.000 OA
ATOM      5  C   UNL     1       3.350   3.545  19.900  0.00  0.00    +0.000 A 
ATOM      6  C   UNL     1       2.765   2.659  20.813  0.00  0.00    +0.000 A 
ATOM      7  C   UNL     1       1.406   2.764  21.130  0.00  0.00    +0.000 A 
ATOM      8  C   UNL     1       0.626   3.756  20.540  0.00  0.00    +0.000 A 
ATOM      9  C   UNL     1       1.200   4.629  19.625  0.00  0.00    +0.000 A 
ATOM     10  C   UNL     1       2.563   4.515  19.304  0.00  0.00    +0.000 A 
ATOM     11  C   UNL     1       3.131   5.423  18.311  0.00  0.00    +0.000 C 
ATOM     12  O   UNL     1       2.342   6.149  17.720  0.00  0.00    +0.000 OA
ENDROOT
BRANCH   2  13
ATOM     13  O   UNL     1       6.766   4.608  18.505  0.00  0.00    +0.000 OA
ATOM     14  C   UNL     1       7.505   5.437  19.393  0.00  0.00    +0.000 C 
ENDBRANCH   2  13
BRANCH   1  15
ATOM     15  C   UNL     1       5.228   6.466  17.145  0.00  0.00    +0.000 C 
BRANCH  15  16
ATOM     16  C   UNL     1       5.453   6.021  15.702  0.00  0.00    +0.000 C 
BRANCH  16  17
ATOM     17  C   UNL     1       4.993   4.613  15.358  0.00  0.00    +0.000 C 
BRANCH  17  18
ATOM     18  C   UNL     1       6.216   3.838  14.852  0.00  0.00    +0.000 C 
BRANCH  18  20
ATOM     19  C   UNL     1       5.888   3.346  12.419  0.00  0.00    +0.000 C 
ATOM     20  C   UNL     1       6.600   4.228  13.433  0.00  0.00    +0.000 C 
ENDBRANCH  18  20
ENDBRANCH  17  18
ENDBRANCH  16  17
ENDBRANCH  15  16
ENDBRANCH   1  15
TORSDOF 6
ENDMDL
MODEL 7
REMARK VINA RESULT:      -6.8      1.240      3.151
REMARK  Name = 
REMARK  8 active torsions:
REMARK  status: ('A' for Active; 'I' for Inactive)
REMARK    1  A    between atoms: C_1  and  C_2
REMARK    2  A    between atoms: C_2  and  C_3
REMARK    3  A    between atoms: C_3  and  C_4
REMARK    4  A    between atoms: C_4  and  C_5
REMARK    5  A    between atoms: C_5  and  C_6
REMARK    6  A    between atoms: C_6  and  C_7
REMARK    7  A    between atoms: C_8  and  O_9
REMARK    8  A    between atoms: O_9  and  C_10
REMARK                            x       y       z     vdW  Elec       q    Type
REMARK                         _______ _______ _______ _____ _____    ______ ____
ROOT
ATOM      1  C   UNL     1       4.683   5.551  17.538  0.00  0.00    +0.000 C 
ATOM      2  C   UNL     1       4.874   4.256  17.209  0.00  0.00    +0.000 C 
ATOM      3  C   UNL     1       3.937   3.186  17.709  0.00  0.00    +0.000 C 
ATOM      4  O   UNL     1       3.988   2.019  17.334  0.00  0.00    +0.000 OA
ATOM      5  C   UNL     1       2.916   3.561  18.703  0.00  0.00    +0.000 A 
ATOM      6  C   UNL     1       2.101   2.586  19.289  0.00  0.00    +0.000 A 
ATOM      7  C   UNL     1       1.142   2.946  20.244  0.00  0.00    +0.000 A 
ATOM      8  C   UNL     1       0.997   4.279  20.620  0.00  0.00    +0.000 A 
ATOM      9  C   UNL     1       1.796   5.251  20.031  0.00  0.00    +0.000 A 
ATOM     10  C   UNL     1       2.753   4.886  19.068  0.00  0.00    +0.000 A 
ATOM     11  C   UNL     1       3.553   5.933  18.439  0.00  0.00    +0.000 C 
ATOM     12  O   UNL     1       3.246   7.088  18.703  0.00  0.00    +0.000 OA
ENDROOT
BRANCH   2  13
ATOM     13  O   UNL     1       5.992   3.945  16.436  0.00  0.00    +0.000 OA
ATOM     14  C   UNL     1       5.838   3.874  15.024  0.00  0.00    +0.000 C 
ENDBRANCH   2  13
BRANCH   1  15
ATOM     15  C   UNL     1       5.614   6.632  16.986  0.00  0.00    +0.000 C 
BRANCH  15  16
ATOM     16  C   UNL     1       6.930   6.828  17.736  0.00  0.00    +0.000 C 
BRANCH  16  17
ATOM     17  C   UNL     1       7.795   7.991  17.276  0.00  0.00    +0.000 C 
BRANCH  17  18
ATOM     18  C   UNL     1       8.402   8.638  18.527  0.00  0.00    +0.000 C 
BRANCH  18  20
ATOM     19  C   UNL     1       9.662  10.611  19.415  0.00  0.00    +0.000 C 
ATOM     20  C   UNL     1       8.761  10.099  18.302  0.00  0.00    +0.000 C 
ENDBRANCH  18  20
ENDBRANCH  17  18
ENDBRANCH  16  17
ENDBRANCH  15  16
ENDBRANCH   1  15
TORSDOF 6
ENDMDL
MODEL 8
REMARK VINA RESULT:      -6.8      1.735      5.411
REMARK  Name = 
REMARK  8 active torsions:
REMARK  status: ('A' for Active; 'I' for Inactive)
REMARK    1  A    between atoms: C_1  and  C_2
REMARK    2  A    between atoms: C_2  and  C_3
REMARK    3  A    between atoms: C_3  and  C_4
REMARK    4  A    between atoms: C_4  and  C_5
REMARK    5  A    between atoms: C_5  and  C_6
REMARK    6  A    between atoms: C_6  and  C_7
REMARK    7  A    between atoms: C_8  and  O_9
REMARK    8  A    between atoms: O_9  and  C_10
REMARK                            x       y       z     vdW  Elec       q    Type
REMARK                         _______ _______ _______ _____ _____    ______ ____
ROOT
ATOM      1  C   UNL     1       3.160   5.045  20.072  0.00  0.00    +0.000 C 
ATOM      2  C   UNL     1       2.701   6.171  19.485  0.00  0.00    +0.000 C 
ATOM      3  C   UNL     1       3.423   6.777  18.309  0.00  0.00    +0.000 C 
ATOM      4  O   UNL     1       2.977   7.718  17.659  0.00  0.00    +0.000 OA
ATOM      5  C   UNL     1       4.730   6.217  17.928  0.00  0.00    +0.000 A 
ATOM      6  C   UNL     1       5.497   6.817  16.923  0.00  0.00    +0.000 A 
ATOM      7  C   UNL     1       6.746   6.289  16.574  0.00  0.00    +0.000 A 
ATOM      8  C   UNL     1       7.236   5.163  17.230  0.00  0.00    +0.000 A 
ATOM      9  C   UNL     1       6.473   4.557  18.220  0.00  0.00    +0.000 A 
ATOM     10  C   UNL     1       5.216   5.087  18.562  0.00  0.00    +0.000 A 
ATOM     11  C   UNL     1       4.419   4.408  19.580  0.00  0.00    +0.000 C 
ATOM     12  O   UNL     1       4.849   3.334  19.984  0.00  0.00    +0.000 OA
ENDROOT
BRANCH   2  13
ATOM     13  O   UNL     1       1.570   6.771  20.037  0.00  0.00    +0.000 OA
ATOM     14  C   UNL     1       1.725   8.020  20.700  0.00  0.00    +0.000 C 
ENDBRANCH   2  13
BRANCH   1  15
ATOM     15  C   UNL     1       2.393   4.414  21.235  0.00  0.00    +0.000 C 
BRANCH  15  16
ATOM     16  C   UNL     1       1.457   3.263  20.873  0.00  0.00    +0.000 C 
BRANCH  16  17
ATOM     17  C   UNL     1       0.817   3.329  19.496  0.00  0.00    +0.000 C 
BRANCH  17  18
ATOM     18  C   UNL     1       1.115   2.005  18.782  0.00  0.00    +0.000 C 
BRANCH  18  20
ATOM     19  C   UNL     1       2.309   3.348  17.038  0.00  0.00    +0.000 C 
ATOM     20  C   UNL     1       2.348   2.093  17.895  0.00  0.00    +0.000 C 
ENDBRANCH  18  20
ENDBRANCH  17  18
ENDBRANCH  16  17
ENDBRANCH  15  16
ENDBRANCH   1  15
TORSDOF 6
ENDMDL
MODEL 9
REMARK VINA RESULT:      -6.6      2.502      6.220
REMARK  Name = 
REMARK  8 active torsions:
REMARK  status: ('A' for Active; 'I' for Inactive)
REMARK    1  A    between atoms: C_1  and  C_2
REMARK    2  A    between atoms: C_2  and  C_3
REMARK    3  A    between atoms: C_3  and  C_4
REMARK    4  A    between atoms: C_4  and  C_5
REMARK    5  A    between atoms: C_5  and  C_6
REMARK    6  A    between atoms: C_6  and  C_7
REMARK    7  A    between atoms: C_8  and  O_9
REMARK    8  A    between atoms: O_9  and  C_10
REMARK                            x       y       z     vdW  Elec       q    Type
REMARK                         _______ _______ _______ _____ _____    ______ ____
ROOT
ATOM      1  C   UNL     1       5.293   4.682  17.866  0.00  0.00    +0.000 C 
ATOM      2  C   UNL     1       6.330   5.547  17.845  0.00  0.00    +0.000 C 
ATOM      3  C   UNL     1       7.025   5.887  16.552  0.00  0.00    +0.000 C 
ATOM      4  O   UNL     1       7.880   6.762  16.458  0.00  0.00    +0.000 OA
ATOM      5  C   UNL     1       6.664   5.124  15.344  0.00  0.00    +0.000 A 
ATOM      6  C   UNL     1       7.363   5.315  14.146  0.00  0.00    +0.000 A 
ATOM      7  C   UNL     1       7.025   4.578  13.005  0.00  0.00    +0.000 A 
ATOM      8  C   UNL     1       5.994   3.644  13.056  0.00  0.00    +0.000 A 
ATOM      9  C   UNL     1       5.291   3.460  14.240  0.00  0.00    +0.000 A 
ATOM     10  C   UNL     1       5.628   4.208  15.382  0.00  0.00    +0.000 A 
ATOM     11  C   UNL     1       4.848   4.021  16.602  0.00  0.00    +0.000 C 
ATOM     12  O   UNL     1       3.856   3.308  16.513  0.00  0.00    +0.000 OA
ENDROOT
BRANCH   2  13
ATOM     13  O   UNL     1       6.759   6.069  19.064  0.00  0.00    +0.000 OA
ATOM     14  C   UNL     1       8.002   5.622  19.591  0.00  0.00    +0.000 C 
ENDBRANCH   2  13
BRANCH   1  15
ATOM     15  C   UNL     1       4.567   4.381  19.178  0.00  0.00    +0.000 C 
BRANCH  15  16
ATOM     16  C   UNL     1       3.475   5.370  19.580  0.00  0.00    +0.000 C 
BRANCH  16  17
ATOM     17  C   UNL     1       2.209   5.347  18.737  0.00  0.00    +0.000 C 
BRANCH  17  18
ATOM     18  C   UNL     1       1.449   4.060  19.077  0.00  0.00    +0.000 C 
BRANCH  18  20
ATOM     19  C   UNL     1       1.464   2.711  21.186  0.00  0.00    +0.000 C 
ATOM     20  C   UNL     1       1.020   4.012  20.535  0.00  0.00    +0.000 C 
ENDBRANCH  18  20
ENDBRANCH  17  18
ENDBRANCH  16  17
ENDBRANCH  15  16
ENDBRANCH   1  15
TORSDOF 6
ENDMDL
