MODEL 1
REMARK VINA RESULT:      -8.0      0.000      0.000
REMARK  Name = 
REMARK  9 active torsions:
REMARK  status: ('A' for Active; 'I' for Inactive)
REMARK    1  A    between atoms: C_1  and  O_2
REMARK    2  A    between atoms: O_2  and  C_3
REMARK    3  A    between atoms: C_8  and  N_9
REMARK    4  A    between atoms: C_10  and  C_11
REMARK    5  A    between atoms: C_14  and  S_15
REMARK    6  A    between atoms: S_15  and  C_16
REMARK    7  A    between atoms: C_16  and  C_17
REMARK    8  A    between atoms: N_19  and  C_20
REMARK    9  A    between atoms: C_20  and  C_21
REMARK                            x       y       z     vdW  Elec       q    Type
REMARK                         _______ _______ _______ _____ _____    ______ ____
ROOT
ATOM      1  N   UNL     1       3.919   4.433  18.480  0.00  0.00    +0.000 N 
ATOM      2  C   UNL     1       3.501   3.430  19.363  0.00  0.00    +0.000 A 
ATOM      3  C   UNL     1       4.006   2.038  19.462  0.00  0.00    +0.000 C 
ATOM      4  N   UNL     1       2.459   3.846  20.056  0.00  0.00    +0.000 NA
ATOM      5  N   UNL     1       2.134   5.101  19.646  0.00  0.00    +0.000 NA
ATOM      6  C   UNL     1       2.986   5.455  18.710  0.00  0.00    +0.000 A 
ENDROOT
BRANCH   1  12
ATOM      7  C   UNL     1       6.352   4.606  17.873  0.00  0.00    +0.000 A 
ATOM      8  C   UNL     1       7.324   4.646  16.854  0.00  0.00    +0.000 A 
ATOM      9  C   UNL     1       6.978   4.474  15.516  0.00  0.00    +0.000 A 
ATOM     10  C   UNL     1       5.659   4.229  15.175  0.00  0.00    +0.000 A 
ATOM     11  C   UNL     1       4.683   4.176  16.172  0.00  0.00    +0.000 A 
ATOM     12  C   UNL     1       4.997   4.406  17.527  0.00  0.00    +0.000 A 
BRANCH   7  14
ATOM     13  C   UNL     1       7.804   5.764  19.352  0.00  0.00    +0.000 C 
ATOM     14  O   UNL     1       6.696   4.876  19.174  0.00  0.00    +0.000 OA
ENDBRANCH   7  14
ENDBRANCH   1  12
BRANCH   6  15
ATOM     15  S   UNL     1       3.001   7.056  18.015  0.00  0.00    +0.000 S 
BRANCH  15  16
ATOM     16  C   UNL     1       2.006   8.010  19.209  0.00  0.00    +0.000 C 
BRANCH  16  17
ATOM     17  C   UNL     1       1.534   9.328  18.591  0.00  0.00    +0.000 C 
ATOM     18  O   UNL     1       1.971   9.778  17.532  0.00  0.00    +0.000 OA
ATOM     19  N   UNL     1       0.537   9.969  19.304  0.00  0.00    +0.000 N 
ATOM     20  H   UNL     1       0.053   9.477  20.041  0.00  0.00    +0.000 HD
BRANCH  19  21
ATOM     21  C   UNL     1      -0.061  11.207  18.833  0.00  0.00    +0.000 C 
BRANCH  21  22
ATOM     22  C   UNL     1      -1.466  10.984  18.323  0.00  0.00    +0.000 A 
ATOM     23  C   UNL     1      -2.523  11.772  18.807  0.00  0.00    +0.000 A 
ATOM     24  C   UNL     1      -3.820  11.598  18.333  0.00  0.00    +0.000 A 
ATOM     25  C   UNL     1      -4.081  10.635  17.359  0.00  0.00    +0.000 A 
ATOM     26  C   UNL     1      -3.045   9.849  16.860  0.00  0.00    +0.000 A 
ATOM     27  C   UNL     1      -1.742  10.022  17.338  0.00  0.00    +0.000 A 
ENDBRANCH  21  22
ENDBRANCH  19  21
ENDBRANCH  16  17
ENDBRANCH  15  16
ENDBRANCH   6  15
TORSDOF 7
ENDMDL
MODEL 2
REMARK VINA RESULT:      -7.7      4.304      7.954
REMARK  Name = 
REMARK  9 active torsions:
REMARK  status: ('A' for Active; 'I' for Inactive)
REMARK    1  A    between atoms: C_1  and  O_2
REMARK    2  A    between atoms: O_2  and  C_3
REMARK    3  A    between atoms: C_8  and  N_9
REMARK    4  A    between atoms: C_10  and  C_11
REMARK    5  A    between atoms: C_14  and  S_15
REMARK    6  A    between atoms: S_15  and  C_16
REMARK    7  A    between atoms: C_16  and  C_17
REMARK    8  A    between atoms: N_19  and  C_20
REMARK    9  A    between atoms: C_20  and  C_21
REMARK                            x       y       z     vdW  Elec       q    Type
REMARK                         _______ _______ _______ _____ _____    ______ ____
ROOT
ATOM      1  N   UNL     1       5.526   4.599  16.558  0.00  0.00    +0.000 N 
ATOM      2  C   UNL     1       6.000   4.364  15.262  0.00  0.00    +0.000 A 
ATOM      3  C   UNL     1       5.243   3.841  14.098  0.00  0.00    +0.000 C 
ATOM      4  N   UNL     1       7.306   4.554  15.219  0.00  0.00    +0.000 NA
ATOM      5  N   UNL     1       7.740   4.883  16.464  0.00  0.00    +0.000 NA
ATOM      6  C   UNL     1       6.699   4.906  17.265  0.00  0.00    +0.000 A 
ENDROOT
BRANCH   1  12
ATOM      7  C   UNL     1       3.399   5.605  17.442  0.00  0.00    +0.000 A 
ATOM      8  C   UNL     1       2.125   5.391  18.003  0.00  0.00    +0.000 A 
ATOM      9  C   UNL     1       1.616   4.106  18.174  0.00  0.00    +0.000 A 
ATOM     10  C   UNL     1       2.358   3.014  17.758  0.00  0.00    +0.000 A 
ATOM     11  C   UNL     1       3.619   3.207  17.190  0.00  0.00    +0.000 A 
ATOM     12  C   UNL     1       4.182   4.493  17.061  0.00  0.00    +0.000 A 
BRANCH   7  14
ATOM     13  C   UNL     1       3.061   7.927  17.802  0.00  0.00    +0.000 C 
ATOM     14  O   UNL     1       3.926   6.870  17.372  0.00  0.00    +0.000 OA
ENDBRANCH   7  14
ENDBRANCH   1  12
BRANCH   6  15
ATOM     15  S   UNL     1       6.809   5.423  18.928  0.00  0.00    +0.000 S 
BRANCH  15  16
ATOM     16  C   UNL     1       8.256   6.532  18.898  0.00  0.00    +0.000 C 
BRANCH  16  17
ATOM     17  C   UNL     1       7.940   7.815  18.125  0.00  0.00    +0.000 C 
ATOM     18  O   UNL     1       7.109   7.877  17.219  0.00  0.00    +0.000 OA
ATOM     19  N   UNL     1       8.642   8.927  18.552  0.00  0.00    +0.000 N 
ATOM     20  H   UNL     1       9.147   8.895  19.426  0.00  0.00    +0.000 HD
BRANCH  19  21
ATOM     21  C   UNL     1       8.428  10.237  17.961  0.00  0.00    +0.000 C 
BRANCH  21  22
ATOM     22  C   UNL     1       9.346  11.274  18.567  0.00  0.00    +0.000 A 
ATOM     23  C   UNL     1       9.325  12.595  18.090  0.00  0.00    +0.000 A 
ATOM     24  C   UNL     1      10.146  13.570  18.649  0.00  0.00    +0.000 A 
ATOM     25  C   UNL     1      10.998  13.241  19.703  0.00  0.00    +0.000 A 
ATOM     26  C   UNL     1      11.027  11.938  20.195  0.00  0.00    +0.000 A 
ATOM     27  C   UNL     1      10.204  10.957  19.631  0.00  0.00    +0.000 A 
ENDBRANCH  21  22
ENDBRANCH  19  21
ENDBRANCH  16  17
ENDBRANCH  15  16
ENDBRANCH   6  15
TORSDOF 7
ENDMDL
MODEL 3
REMARK VINA RESULT:      -7.7      3.984      8.161
REMARK  Name = 
REMARK  9 active torsions:
REMARK  status: ('A' for Active; 'I' for Inactive)
REMARK    1  A    between atoms: C_1  and  O_2
REMARK    2  A    between atoms: O_2  and  C_3
REMARK    3  A    between atoms: C_8  and  N_9
REMARK    4  A    between atoms: C_10  and  C_11
REMARK    5  A    between atoms: C_14  and  S_15
REMARK    6  A    between atoms: S_15  and  C_16
REMARK    7  A    between atoms: C_16  and  C_17
REMARK    8  A    between atoms: N_19  and  C_20
REMARK    9  A    between atoms: C_20  and  C_21
REMARK                            x       y       z     vdW  Elec       q    Type
REMARK                         _______ _______ _______ _____ _____    ______ ____
ROOT
ATOM      1  N   UNL     1       4.432   4.189  18.203  0.00  0.00    +0.000 N 
ATOM      2  C   UNL     1       4.180   3.800  16.883  0.00  0.00    +0.000 A 
ATOM      3  C   UNL     1       3.005   3.057  16.363  0.00  0.00    +0.000 C 
ATOM      4  N   UNL     1       5.224   4.074  16.124  0.00  0.00    +0.000 NA
ATOM      5  N   UNL     1       6.199   4.614  16.903  0.00  0.00    +0.000 NA
ATOM      6  C   UNL     1       5.745   4.681  18.134  0.00  0.00    +0.000 A 
ENDROOT
BRANCH   1  12
ATOM      7  C   UNL     1       2.826   5.126  19.894  0.00  0.00    +0.000 A 
ATOM      8  C   UNL     1       2.095   4.923  21.081  0.00  0.00    +0.000 A 
ATOM      9  C   UNL     1       2.093   3.689  21.728  0.00  0.00    +0.000 A 
ATOM     10  C   UNL     1       2.796   2.629  21.183  0.00  0.00    +0.000 A 
ATOM     11  C   UNL     1       3.518   2.809  20.001  0.00  0.00    +0.000 A 
ATOM     12  C   UNL     1       3.586   4.062  19.360  0.00  0.00    +0.000 A 
BRANCH   7  14
ATOM     13  C   UNL     1       2.068   7.376  19.922  0.00  0.00    +0.000 C 
ATOM     14  O   UNL     1       2.897   6.373  19.325  0.00  0.00    +0.000 OA
ENDBRANCH   7  14
ENDBRANCH   1  12
BRANCH   6  15
ATOM     15  S   UNL     1       6.641   5.445  19.422  0.00  0.00    +0.000 S 
BRANCH  15  16
ATOM     16  C   UNL     1       8.114   6.075  18.553  0.00  0.00    +0.000 C 
BRANCH  16  17
ATOM     17  C   UNL     1       7.863   7.484  18.011  0.00  0.00    +0.000 C 
ATOM     18  O   UNL     1       7.066   7.734  17.107  0.00  0.00    +0.000 OA
ATOM     19  N   UNL     1       8.582   8.479  18.648  0.00  0.00    +0.000 N 
ATOM     20  H   UNL     1       9.056   8.276  19.516  0.00  0.00    +0.000 HD
BRANCH  19  21
ATOM     21  C   UNL     1       8.427   9.879  18.292  0.00  0.00    +0.000 C 
BRANCH  21  22
ATOM     22  C   UNL     1       9.565  10.717  18.831  0.00  0.00    +0.000 A 
ATOM     23  C   UNL     1      10.541  11.220  17.956  0.00  0.00    +0.000 A 
ATOM     24  C   UNL     1      11.584  12.012  18.429  0.00  0.00    +0.000 A 
ATOM     25  C   UNL     1      11.663  12.321  19.787  0.00  0.00    +0.000 A 
ATOM     26  C   UNL     1      10.699  11.837  20.668  0.00  0.00    +0.000 A 
ATOM     27  C   UNL     1       9.653  11.039  20.195  0.00  0.00    +0.000 A 
ENDBRANCH  21  22
ENDBRANCH  19  21
ENDBRANCH  16  17
ENDBRANCH  15  16
ENDBRANCH   6  15
TORSDOF 7
ENDMDL
MODEL 4
REMARK VINA RESULT:      -7.7      1.570      2.419
REMARK  Name = 
REMARK  9 active torsions:
REMARK  status: ('A' for Active; 'I' for Inactive)
REMARK    1  A    between atoms: C_1  and  O_2
REMARK    2  A    between atoms: O_2  and  C_3
REMARK    3  A    between atoms: C_8  and  N_9
REMARK    4  A    between atoms: C_10  and  C_11
REMARK    5  A    between atoms: C_14  and  S_15
REMARK    6  A    between atoms: S_15  and  C_16
REMARK    7  A    between atoms: C_16  and  C_17
REMARK    8  A    between atoms: N_19  and  C_20
REMARK    9  A    between atoms: C_20  and  C_21
REMARK                            x       y       z     vdW  Elec       q    Type
REMARK                         _______ _______ _______ _____ _____    ______ ____
ROOT
ATOM      1  N   UNL     1       3.522   4.365  18.009  0.00  0.00    +0.000 N 
ATOM      2  C   UNL     1       2.940   3.094  17.947  0.00  0.00    +0.000 A 
ATOM      3  C   UNL     1       3.624   1.788  17.780  0.00  0.00    +0.000 C 
ATOM      4  N   UNL     1       1.625   3.201  17.927  0.00  0.00    +0.000 NA
ATOM      5  N   UNL     1       1.294   4.519  17.943  0.00  0.00    +0.000 NA
ATOM      6  C   UNL     1       2.406   5.216  17.984  0.00  0.00    +0.000 A 
ENDROOT
BRANCH   1  12
ATOM      7  C   UNL     1       5.757   4.655  16.896  0.00  0.00    +0.000 A 
ATOM      8  C   UNL     1       7.129   4.942  17.039  0.00  0.00    +0.000 A 
ATOM      9  C   UNL     1       7.668   5.307  18.270  0.00  0.00    +0.000 A 
ATOM     10  C   UNL     1       6.840   5.420  19.374  0.00  0.00    +0.000 A 
ATOM     11  C   UNL     1       5.476   5.149  19.250  0.00  0.00    +0.000 A 
ATOM     12  C   UNL     1       4.916   4.720  18.029  0.00  0.00    +0.000 A 
BRANCH   7  14
ATOM     13  C   UNL     1       6.236   3.932  14.686  0.00  0.00    +0.000 C 
ATOM     14  O   UNL     1       5.262   4.202  15.699  0.00  0.00    +0.000 OA
ENDBRANCH   7  14
ENDBRANCH   1  12
BRANCH   6  15
ATOM     15  S   UNL     1       2.417   6.953  18.157  0.00  0.00    +0.000 S 
BRANCH  15  16
ATOM     16  C   UNL     1       2.180   7.169  19.952  0.00  0.00    +0.000 C 
BRANCH  16  17
ATOM     17  C   UNL     1       1.504   8.509  20.252  0.00  0.00    +0.000 C 
ATOM     18  O   UNL     1       1.185   8.872  21.383  0.00  0.00    +0.000 OA
ATOM     19  N   UNL     1       1.307   9.311  19.142  0.00  0.00    +0.000 N 
ATOM     20  H   UNL     1       1.768   9.084  18.272  0.00  0.00    +0.000 HD
BRANCH  19  21
ATOM     21  C   UNL     1       0.722  10.637  19.254  0.00  0.00    +0.000 C 
BRANCH  21  22
ATOM     22  C   UNL     1      -0.657  10.686  18.638  0.00  0.00    +0.000 A 
ATOM     23  C   UNL     1      -0.992   9.808  17.594  0.00  0.00    +0.000 A 
ATOM     24  C   UNL     1      -2.264   9.821  17.029  0.00  0.00    +0.000 A 
ATOM     25  C   UNL     1      -3.227  10.711  17.505  0.00  0.00    +0.000 A 
ATOM     26  C   UNL     1      -2.916  11.585  18.544  0.00  0.00    +0.000 A 
ATOM     27  C   UNL     1      -1.637  11.573  19.111  0.00  0.00    +0.000 A 
ENDBRANCH  21  22
ENDBRANCH  19  21
ENDBRANCH  16  17
ENDBRANCH  15  16
ENDBRANCH   6  15
TORSDOF 7
ENDMDL
MODEL 5
REMARK VINA RESULT:      -7.5      1.917      2.560
REMARK  Name = 
REMARK  9 active torsions:
REMARK  status: ('A' for Active; 'I' for Inactive)
REMARK    1  A    between atoms: C_1  and  O_2
REMARK    2  A    between atoms: O_2  and  C_3
REMARK    3  A    between atoms: C_8  and  N_9
REMARK    4  A    between atoms: C_10  and  C_11
REMARK    5  A    between atoms: C_14  and  S_15
REMARK    6  A    between atoms: S_15  and  C_16
REMARK    7  A    between atoms: C_16  and  C_17
REMARK    8  A    between atoms: N_19  and  C_20
REMARK    9  A    between atoms: C_20  and  C_21
REMARK                            x       y       z     vdW  Elec       q    Type
REMARK                         _______ _______ _______ _____ _____    ______ ____
ROOT
ATOM      1  N   UNL     1       3.922   4.029  18.394  0.00  0.00    +0.000 N 
ATOM      2  C   UNL     1       3.315   2.859  18.864  0.00  0.00    +0.000 A 
ATOM      3  C   UNL     1       3.582   1.463  18.440  0.00  0.00    +0.000 C 
ATOM      4  N   UNL     1       2.330   3.163  19.688  0.00  0.00    +0.000 NA
ATOM      5  N   UNL     1       2.229   4.516  19.769  0.00  0.00    +0.000 NA
ATOM      6  C   UNL     1       3.160   5.039  19.004  0.00  0.00    +0.000 A 
ENDROOT
BRANCH   1  12
ATOM      7  C   UNL     1       6.335   4.486  17.860  0.00  0.00    +0.000 A 
ATOM      8  C   UNL     1       7.317   4.688  16.870  0.00  0.00    +0.000 A 
ATOM      9  C   UNL     1       7.016   4.565  15.515  0.00  0.00    +0.000 A 
ATOM     10  C   UNL     1       5.735   4.209  15.128  0.00  0.00    +0.000 A 
ATOM     11  C   UNL     1       4.751   3.995  16.095  0.00  0.00    +0.000 A 
ATOM     12  C   UNL     1       5.015   4.171  17.469  0.00  0.00    +0.000 A 
BRANCH   7  14
ATOM     13  C   UNL     1       7.618   5.705  19.442  0.00  0.00    +0.000 C 
ATOM     14  O   UNL     1       6.624   4.708  19.183  0.00  0.00    +0.000 OA
ENDBRANCH   7  14
ENDBRANCH   1  12
BRANCH   6  15
ATOM     15  S   UNL     1       3.461   6.756  18.935  0.00  0.00    +0.000 S 
BRANCH  15  16
ATOM     16  C   UNL     1       2.094   7.350  17.884  0.00  0.00    +0.000 C 
BRANCH  16  17
ATOM     17  C   UNL     1       1.870   8.852  18.084  0.00  0.00    +0.000 C 
ATOM     18  O   UNL     1       2.408   9.718  17.396  0.00  0.00    +0.000 OA
ATOM     19  N   UNL     1       0.974   9.167  19.090  0.00  0.00    +0.000 N 
ATOM     20  H   UNL     1       0.392   8.443  19.486  0.00  0.00    +0.000 HD
BRANCH  19  21
ATOM     21  C   UNL     1       0.608  10.543  19.380  0.00  0.00    +0.000 C 
BRANCH  21  22
ATOM     22  C   UNL     1      -0.070  10.662  20.727  0.00  0.00    +0.000 A 
ATOM     23  C   UNL     1       0.088   9.647  21.684  0.00  0.00    +0.000 A 
ATOM     24  C   UNL     1      -0.509   9.748  22.938  0.00  0.00    +0.000 A 
ATOM     25  C   UNL     1      -1.268  10.873  23.258  0.00  0.00    +0.000 A 
ATOM     26  C   UNL     1      -1.429  11.894  22.324  0.00  0.00    +0.000 A 
ATOM     27  C   UNL     1      -0.832  11.792  21.063  0.00  0.00    +0.000 A 
ENDBRANCH  21  22
ENDBRANCH  19  21
ENDBRANCH  16  17
ENDBRANCH  15  16
ENDBRANCH   6  15
TORSDOF 7
ENDMDL
MODEL 6
REMARK VINA RESULT:      -7.5      3.088      9.045
REMARK  Name = 
REMARK  9 active torsions:
REMARK  status: ('A' for Active; 'I' for Inactive)
REMARK    1  A    between atoms: C_1  and  O_2
REMARK    2  A    between atoms: O_2  and  C_3
REMARK    3  A    between atoms: C_8  and  N_9
REMARK    4  A    between atoms: C_10  and  C_11
REMARK    5  A    between atoms: C_14  and  S_15
REMARK    6  A    between atoms: S_15  and  C_16
REMARK    7  A    between atoms: C_16  and  C_17
REMARK    8  A    between atoms: N_19  and  C_20
REMARK    9  A    between atoms: C_20  and  C_21
REMARK                            x       y       z     vdW  Elec       q    Type
REMARK                         _______ _______ _______ _____ _____    ______ ____
ROOT
ATOM      1  N   UNL     1      -0.352  11.826  19.787  0.00  0.00    +0.000 N 
ATOM      2  C   UNL     1       0.364  13.029  19.748  0.00  0.00    +0.000 A 
ATOM      3  C   UNL     1       0.309  14.085  18.708  0.00  0.00    +0.000 C 
ATOM      4  N   UNL     1       1.238  13.065  20.736  0.00  0.00    +0.000 NA
ATOM      5  N   UNL     1       1.160  11.900  21.431  0.00  0.00    +0.000 NA
ATOM      6  C   UNL     1       0.229  11.157  20.877  0.00  0.00    +0.000 A 
ENDROOT
BRANCH   1  12
ATOM      7  C   UNL     1      -2.731  11.770  18.980  0.00  0.00    +0.000 A 
ATOM      8  C   UNL     1      -3.681  11.189  18.117  0.00  0.00    +0.000 A 
ATOM      9  C   UNL     1      -3.314  10.231  17.175  0.00  0.00    +0.000 A 
ATOM     10  C   UNL     1      -1.986   9.860  17.057  0.00  0.00    +0.000 A 
ATOM     11  C   UNL     1      -1.028  10.432  17.897  0.00  0.00    +0.000 A 
ATOM     12  C   UNL     1      -1.382  11.359  18.899  0.00  0.00    +0.000 A 
BRANCH   7  14
ATOM     13  C   UNL     1      -4.539  12.796  20.126  0.00  0.00    +0.000 C 
ATOM     14  O   UNL     1      -3.126  12.637  19.967  0.00  0.00    +0.000 OA
ENDBRANCH   7  14
ENDBRANCH   1  12
BRANCH   6  15
ATOM     15  S   UNL     1      -0.283   9.634  21.556  0.00  0.00    +0.000 S 
BRANCH  15  16
ATOM     16  C   UNL     1       1.289   8.721  21.696  0.00  0.00    +0.000 C 
BRANCH  16  17
ATOM     17  C   UNL     1       1.714   8.161  20.335  0.00  0.00    +0.000 C 
ATOM     18  O   UNL     1       1.613   8.786  19.281  0.00  0.00    +0.000 OA
ATOM     19  N   UNL     1       2.263   6.892  20.386  0.00  0.00    +0.000 N 
ATOM     20  H   UNL     1       2.530   6.497  21.276  0.00  0.00    +0.000 HD
BRANCH  19  21
ATOM     21  C   UNL     1       2.764   6.231  19.193  0.00  0.00    +0.000 C 
BRANCH  21  22
ATOM     22  C   UNL     1       2.229   4.822  19.076  0.00  0.00    +0.000 A 
ATOM     23  C   UNL     1       1.350   4.322  20.050  0.00  0.00    +0.000 A 
ATOM     24  C   UNL     1       0.828   3.035  19.949  0.00  0.00    +0.000 A 
ATOM     25  C   UNL     1       1.173   2.228  18.865  0.00  0.00    +0.000 A 
ATOM     26  C   UNL     1       2.038   2.709  17.885  0.00  0.00    +0.000 A 
ATOM     27  C   UNL     1       2.564   4.001  17.987  0.00  0.00    +0.000 A 
ENDBRANCH  21  22
ENDBRANCH  19  21
ENDBRANCH  16  17
ENDBRANCH  15  16
ENDBRANCH   6  15
TORSDOF 7
ENDMDL
MODEL 7
REMARK VINA RESULT:      -7.5      1.266      1.411
REMARK  Name = 
REMARK  9 active torsions:
REMARK  status: ('A' for Active; 'I' for Inactive)
REMARK    1  A    between atoms: C_1  and  O_2
REMARK    2  A    between atoms: O_2  and  C_3
REMARK    3  A    between atoms: C_8  and  N_9
REMARK    4  A    between atoms: C_10  and  C_11
REMARK    5  A    between atoms: C_14  and  S_15
REMARK    6  A    between atoms: S_15  and  C_16
REMARK    7  A    between atoms: C_16  and  C_17
REMARK    8  A    between atoms: N_19  and  C_20
REMARK    9  A    between atoms: C_20  and  C_21
REMARK                            x       y       z     vdW  Elec       q    Type
REMARK                         _______ _______ _______ _____ _____    ______ ____
ROOT
ATOM      1  N   UNL     1       3.840   3.814  18.574  0.00  0.00    +0.000 N 
ATOM      2  C   UNL     1       3.451   2.533  18.982  0.00  0.00    +0.000 A 
ATOM      3  C   UNL     1       3.936   1.229  18.466  0.00  0.00    +0.000 C 
ATOM      4  N   UNL     1       2.454   2.617  19.842  0.00  0.00    +0.000 NA
ATOM      5  N   UNL     1       2.131   3.927  20.008  0.00  0.00    +0.000 NA
ATOM      6  C   UNL     1       2.938   4.643  19.260  0.00  0.00    +0.000 A 
ENDROOT
BRANCH   1  12
ATOM      7  C   UNL     1       6.147   4.648  18.024  0.00  0.00    +0.000 A 
ATOM      8  C   UNL     1       7.052   5.075  17.033  0.00  0.00    +0.000 A 
ATOM      9  C   UNL     1       6.717   5.040  15.682  0.00  0.00    +0.000 A 
ATOM     10  C   UNL     1       5.482   4.549  15.295  0.00  0.00    +0.000 A 
ATOM     11  C   UNL     1       4.575   4.111  16.262  0.00  0.00    +0.000 A 
ATOM     12  C   UNL     1       4.866   4.192  17.639  0.00  0.00    +0.000 A 
BRANCH   7  14
ATOM     13  C   UNL     1       7.595   5.598  19.648  0.00  0.00    +0.000 C 
ATOM     14  O   UNL     1       6.456   4.782  19.354  0.00  0.00    +0.000 OA
ENDBRANCH   7  14
ENDBRANCH   1  12
BRANCH   6  15
ATOM     15  S   UNL     1       2.945   6.388  19.293  0.00  0.00    +0.000 S 
BRANCH  15  16
ATOM     16  C   UNL     1       1.764   6.758  20.632  0.00  0.00    +0.000 C 
BRANCH  16  17
ATOM     17  C   UNL     1       1.468   8.258  20.693  0.00  0.00    +0.000 C 
ATOM     18  O   UNL     1       1.462   8.909  21.738  0.00  0.00    +0.000 OA
ATOM     19  N   UNL     1       1.239   8.847  19.462  0.00  0.00    +0.000 N 
ATOM     20  H   UNL     1       1.461   8.341  18.617  0.00  0.00    +0.000 HD
BRANCH  19  21
ATOM     21  C   UNL     1       0.990  10.273  19.334  0.00  0.00    +0.000 C 
BRANCH  21  22
ATOM     22  C   UNL     1      -0.400  10.546  18.807  0.00  0.00    +0.000 A 
ATOM     23  C   UNL     1      -1.209  11.512  19.428  0.00  0.00    +0.000 A 
ATOM     24  C   UNL     1      -2.483  11.796  18.945  0.00  0.00    +0.000 A 
ATOM     25  C   UNL     1      -2.967  11.121  17.824  0.00  0.00    +0.000 A 
ATOM     26  C   UNL     1      -2.177  10.166  17.190  0.00  0.00    +0.000 A 
ATOM     27  C   UNL     1      -0.898   9.879  17.676  0.00  0.00    +0.000 A 
ENDBRANCH  21  22
ENDBRANCH  19  21
ENDBRANCH  16  17
ENDBRANCH  15  16
ENDBRANCH   6  15
TORSDOF 7
ENDMDL
MODEL 8
REMARK VINA RESULT:      -7.5      1.099      2.149
REMARK  Name = 
REMARK  9 active torsions:
REMARK  status: ('A' for Active; 'I' for Inactive)
REMARK    1  A    between atoms: C_1  and  O_2
REMARK    2  A    between atoms: O_2  and  C_3
REMARK    3  A    between atoms: C_8  and  N_9
REMARK    4  A    between atoms: C_10  and  C_11
REMARK    5  A    between atoms: C_14  and  S_15
REMARK    6  A    between atoms: S_15  and  C_16
REMARK    7  A    between atoms: C_16  and  C_17
REMARK    8  A    between atoms: N_19  and  C_20
REMARK    9  A    between atoms: C_20  and  C_21
REMARK                            x       y       z     vdW  Elec       q    Type
REMARK                         _______ _______ _______ _____ _____    ______ ____
ROOT
ATOM      1  N   UNL     1       3.833   4.620  18.104  0.00  0.00    +0.000 N 
ATOM      2  C   UNL     1       3.077   3.454  18.276  0.00  0.00    +0.000 A 
ATOM      3  C   UNL     1       3.573   2.063  18.417  0.00  0.00    +0.000 C 
ATOM      4  N   UNL     1       1.791   3.731  18.167  0.00  0.00    +0.000 NA
ATOM      5  N   UNL     1       1.651   5.055  17.893  0.00  0.00    +0.000 NA
ATOM      6  C   UNL     1       2.850   5.589  17.847  0.00  0.00    +0.000 A 
ENDROOT
BRANCH   1  12
ATOM      7  C   UNL     1       6.105   4.419  17.047  0.00  0.00    +0.000 A 
ATOM      8  C   UNL     1       7.501   4.537  17.196  0.00  0.00    +0.000 A 
ATOM      9  C   UNL     1       8.065   5.019  18.374  0.00  0.00    +0.000 A 
ATOM     10  C   UNL     1       7.243   5.421  19.413  0.00  0.00    +0.000 A 
ATOM     11  C   UNL     1       5.857   5.321  19.280  0.00  0.00    +0.000 A 
ATOM     12  C   UNL     1       5.263   4.781  18.122  0.00  0.00    +0.000 A 
BRANCH   7  14
ATOM     13  C   UNL     1       5.858   4.522  14.688  0.00  0.00    +0.000 C 
ATOM     14  O   UNL     1       5.570   3.850  15.919  0.00  0.00    +0.000 OA
ENDBRANCH   7  14
ENDBRANCH   1  12
BRANCH   6  15
ATOM     15  S   UNL     1       3.104   7.305  17.658  0.00  0.00    +0.000 S 
BRANCH  15  16
ATOM     16  C   UNL     1       2.016   8.005  18.942  0.00  0.00    +0.000 C 
BRANCH  16  17
ATOM     17  C   UNL     1       1.525   9.398  18.537  0.00  0.00    +0.000 C 
ATOM     18  O   UNL     1       1.982  10.031  17.586  0.00  0.00    +0.000 OA
ATOM     19  N   UNL     1       0.485   9.884  19.309  0.00  0.00    +0.000 N 
ATOM     20  H   UNL     1      -0.008   9.263  19.934  0.00  0.00    +0.000 HD
BRANCH  19  21
ATOM     21  C   UNL     1      -0.134  11.169  19.031  0.00  0.00    +0.000 C 
BRANCH  21  22
ATOM     22  C   UNL     1      -1.501  11.000  18.406  0.00  0.00    +0.000 A 
ATOM     23  C   UNL     1      -1.700  10.037  17.404  0.00  0.00    +0.000 A 
ATOM     24  C   UNL     1      -2.956   9.850  16.833  0.00  0.00    +0.000 A 
ATOM     25  C   UNL     1      -4.037  10.620  17.261  0.00  0.00    +0.000 A 
ATOM     26  C   UNL     1      -3.860  11.575  18.260  0.00  0.00    +0.000 A 
ATOM     27  C   UNL     1      -2.598  11.765  18.833  0.00  0.00    +0.000 A 
ENDBRANCH  21  22
ENDBRANCH  19  21
ENDBRANCH  16  17
ENDBRANCH  15  16
ENDBRANCH   6  15
TORSDOF 7
ENDMDL
MODEL 9
REMARK VINA RESULT:      -7.5      1.145      1.486
REMARK  Name = 
REMARK  9 active torsions:
REMARK  status: ('A' for Active; 'I' for Inactive)
REMARK    1  A    between atoms: C_1  and  O_2
REMARK    2  A    between atoms: O_2  and  C_3
REMARK    3  A    between atoms: C_8  and  N_9
REMARK    4  A    between atoms: C_10  and  C_11
REMARK    5  A    between atoms: C_14  and  S_15
REMARK    6  A    between atoms: S_15  and  C_16
REMARK    7  A    between atoms: C_16  and  C_17
REMARK    8  A    between atoms: N_19  and  C_20
REMARK    9  A    between atoms: C_20  and  C_21
REMARK                            x       y       z     vdW  Elec       q    Type
REMARK                         _______ _______ _______ _____ _____    ______ ____
ROOT
ATOM      1  N   UNL     1       3.846   4.455  19.158  0.00  0.00    +0.000 N 
ATOM      2  C   UNL     1       3.638   3.287  19.901  0.00  0.00    +0.000 A 
ATOM      3  C   UNL     1       4.303   1.972  19.732  0.00  0.00    +0.000 C 
ATOM      4  N   UNL     1       2.633   3.459  20.739  0.00  0.00    +0.000 NA
ATOM      5  N   UNL     1       2.129   4.709  20.565  0.00  0.00    +0.000 NA
ATOM      6  C   UNL     1       2.832   5.304  19.629  0.00  0.00    +0.000 A 
ENDROOT
BRANCH   1  12
ATOM      7  C   UNL     1       6.154   5.074  18.379  0.00  0.00    +0.000 A 
ATOM      8  C   UNL     1       7.002   5.383  17.298  0.00  0.00    +0.000 A 
ATOM      9  C   UNL     1       6.550   5.318  15.982  0.00  0.00    +0.000 A 
ATOM     10  C   UNL     1       5.252   4.912  15.722  0.00  0.00    +0.000 A 
ATOM     11  C   UNL     1       4.400   4.592  16.781  0.00  0.00    +0.000 A 
ATOM     12  C   UNL     1       4.814   4.707  18.124  0.00  0.00    +0.000 A 
BRANCH   7  14
ATOM     13  C   UNL     1       7.950   5.644  19.824  0.00  0.00    +0.000 C 
ATOM     14  O   UNL     1       6.585   5.239  19.672  0.00  0.00    +0.000 OA
ENDBRANCH   7  14
ENDBRANCH   1  12
BRANCH   6  15
ATOM     15  S   UNL     1       2.594   6.979  19.201  0.00  0.00    +0.000 S 
BRANCH  15  16
ATOM     16  C   UNL     1       1.660   7.619  20.630  0.00  0.00    +0.000 C 
BRANCH  16  17
ATOM     17  C   UNL     1       1.161   9.041  20.359  0.00  0.00    +0.000 C 
ATOM     18  O   UNL     1       0.933   9.862  21.246  0.00  0.00    +0.000 OA
ATOM     19  N   UNL     1       1.020   9.351  19.018  0.00  0.00    +0.000 N 
ATOM     20  H   UNL     1       1.416   8.741  18.319  0.00  0.00    +0.000 HD
BRANCH  19  21
ATOM     21  C   UNL     1       0.604  10.674  18.582  0.00  0.00    +0.000 C 
BRANCH  21  22
ATOM     22  C   UNL     1      -0.874  10.713  18.269  0.00  0.00    +0.000 A 
ATOM     23  C   UNL     1      -1.424   9.792  17.362  0.00  0.00    +0.000 A 
ATOM     24  C   UNL     1      -2.786   9.796  17.077  0.00  0.00    +0.000 A 
ATOM     25  C   UNL     1      -3.625  10.719  17.702  0.00  0.00    +0.000 A 
ATOM     26  C   UNL     1      -3.099  11.635  18.610  0.00  0.00    +0.000 A 
ATOM     27  C   UNL     1      -1.730  11.633  18.895  0.00  0.00    +0.000 A 
ENDBRANCH  21  22
ENDBRANCH  19  21
ENDBRANCH  16  17
ENDBRANCH  15  16
ENDBRANCH   6  15
TORSDOF 7
ENDMDL
