MODEL 1
REMARK VINA RESULT:      -8.4      0.000      0.000
REMARK  Name = 
REMARK  9 active torsions:
REMARK  status: ('A' for Active; 'I' for Inactive)
REMARK    1  A    between atoms: C_1  and  C_2
REMARK    2  A    between atoms: C_7  and  C_8
REMARK    3  A    between atoms: C_14  and  C_15
REMARK    4  A    between atoms: C_17  and  C_18
REMARK    5  A    between atoms: C_18  and  C_19
REMARK    6  A    between atoms: C_19  and  C_20
REMARK    7  A    between atoms: C_20  and  C_21
REMARK    8  A    between atoms: C_20  and  C_22
REMARK    9  A    between atoms: C_20  and  O_23
REMARK                            x       y       z     vdW  Elec       q    Type
REMARK                         _______ _______ _______ _____ _____    ______ ____
ROOT
ATOM      1  C   UNL     1       7.055   4.560  14.725  0.00  0.00    +0.000 C 
ATOM      2  C   UNL     1       5.886   4.464  15.661  0.00  0.00    +0.000 A 
ATOM      3  N   UNL     1       5.378   3.305  15.959  0.00  0.00    +0.000 NA
ATOM      4  C   UNL     1       4.265   3.272  16.831  0.00  0.00    +0.000 A 
ATOM      5  C   UNL     1       3.765   2.033  17.211  0.00  0.00    +0.000 A 
ATOM      6  C   UNL     1       2.682   1.957  18.084  0.00  0.00    +0.000 A 
ATOM      7  C   UNL     1       2.076   3.123  18.553  0.00  0.00    +0.000 A 
ATOM      8  N   UNL     1       2.543   4.344  18.179  0.00  0.00    +0.000 NA
ATOM      9  C   UNL     1       3.628   4.405  17.364  0.00  0.00    +0.000 A 
ATOM     10  N   UNL     1       4.243   5.641  17.044  0.00  0.00    +0.000 N 
ATOM     11  C   UNL     1       4.017   6.966  17.395  0.00  0.00    +0.000 A 
ATOM     12  N   UNL     1       4.950   7.699  16.796  0.00  0.00    +0.000 NA
ATOM     13  N   UNL     1       5.770   6.888  16.053  0.00  0.00    +0.000 NA
ATOM     14  C   UNL     1       5.340   5.664  16.223  0.00  0.00    +0.000 A 
ENDROOT
BRANCH  11  15
ATOM     15  C   UNL     1       2.964   7.517  18.262  0.00  0.00    +0.000 A 
ATOM     16  C   UNL     1       2.116   8.523  17.778  0.00  0.00    +0.000 A 
ATOM     17  C   UNL     1       1.180   9.177  18.593  0.00  0.00    +0.000 A 
ATOM     18  C   UNL     1       1.012   8.739  19.906  0.00  0.00    +0.000 A 
ATOM     19  C   UNL     1       1.757   7.660  20.378  0.00  0.00    +0.000 A 
ATOM     20  C   UNL     1       2.736   7.059  19.572  0.00  0.00    +0.000 A 
ATOM     21 CL   UNL     1       3.632   5.767  20.296  0.00  0.00    +0.000 Cl
BRANCH  17  22
ATOM     22  C   UNL     1       0.380  10.331  18.047  0.00  0.00    +0.000 C 
BRANCH  22  23
ATOM     23  C   UNL     1      -1.048  10.470  18.598  0.00  0.00    +0.000 C 
BRANCH  23  24
ATOM     24  C   UNL     1      -2.103  11.044  17.629  0.00  0.00    +0.000 C 
ATOM     25  C   UNL     1      -2.485  10.045  16.539  0.00  0.00    +0.000 C 
ATOM     26  C   UNL     1      -3.348  11.461  18.418  0.00  0.00    +0.000 C 
BRANCH  24  27
ATOM     27  O   UNL     1      -1.638  12.248  17.021  0.00  0.00    +0.000 OA
ATOM     28  H   UNL     1      -2.387  12.699  16.594  0.00  0.00    +0.000 HD
ENDBRANCH  24  27
ENDBRANCH  23  24
ENDBRANCH  22  23
ENDBRANCH  17  22
ENDBRANCH  11  15
BRANCH   7  29
ATOM     29  C   UNL     1       0.936   3.034  19.545  0.00  0.00    +0.000 C 
ATOM     30  C   UNL     1       1.211   2.874  21.023  0.00  0.00    +0.000 C 
ATOM     31  C   UNL     1       0.673   4.173  20.503  0.00  0.00    +0.000 C 
ENDBRANCH   7  29
TORSDOF 6
ENDMDL
MODEL 2
REMARK VINA RESULT:      -8.2      4.862      9.429
REMARK  Name = 
REMARK  9 active torsions:
REMARK  status: ('A' for Active; 'I' for Inactive)
REMARK    1  A    between atoms: C_1  and  C_2
REMARK    2  A    between atoms: C_7  and  C_8
REMARK    3  A    between atoms: C_14  and  C_15
REMARK    4  A    between atoms: C_17  and  C_18
REMARK    5  A    between atoms: C_18  and  C_19
REMARK    6  A    between atoms: C_19  and  C_20
REMARK    7  A    between atoms: C_20  and  C_21
REMARK    8  A    between atoms: C_20  and  C_22
REMARK    9  A    between atoms: C_20  and  O_23
REMARK                            x       y       z     vdW  Elec       q    Type
REMARK                         _______ _______ _______ _____ _____    ______ ____
ROOT
ATOM      1  C   UNL     1      -3.832  13.070  23.605  0.00  0.00    +0.000 C 
ATOM      2  C   UNL     1      -3.462  12.674  22.206  0.00  0.00    +0.000 A 
ATOM      3  N   UNL     1      -4.368  12.642  21.274  0.00  0.00    +0.000 NA
ATOM      4  C   UNL     1      -3.971  12.243  19.976  0.00  0.00    +0.000 A 
ATOM      5  C   UNL     1      -4.917  12.277  18.960  0.00  0.00    +0.000 A 
ATOM      6  C   UNL     1      -4.561  11.912  17.664  0.00  0.00    +0.000 A 
ATOM      7  C   UNL     1      -3.265  11.477  17.388  0.00  0.00    +0.000 A 
ATOM      8  N   UNL     1      -2.330  11.421  18.375  0.00  0.00    +0.000 NA
ATOM      9  C   UNL     1      -2.677  11.825  19.624  0.00  0.00    +0.000 A 
ATOM     10  N   UNL     1      -1.718  11.916  20.664  0.00  0.00    +0.000 N 
ATOM     11  C   UNL     1      -0.350  11.693  20.755  0.00  0.00    +0.000 A 
ATOM     12  N   UNL     1       0.016  11.975  22.002  0.00  0.00    +0.000 NA
ATOM     13  N   UNL     1      -1.081  12.363  22.729  0.00  0.00    +0.000 NA
ATOM     14  C   UNL     1      -2.102  12.333  21.912  0.00  0.00    +0.000 A 
ENDROOT
BRANCH  11  15
ATOM     15  C   UNL     1       0.575  11.234  19.708  0.00  0.00    +0.000 A 
ATOM     16  C   UNL     1       0.695   9.864  19.433  0.00  0.00    +0.000 A 
ATOM     17  C   UNL     1       1.649   9.356  18.538  0.00  0.00    +0.000 A 
ATOM     18  C   UNL     1       2.436  10.251  17.816  0.00  0.00    +0.000 A 
ATOM     19  C   UNL     1       2.254  11.623  17.981  0.00  0.00    +0.000 A 
ATOM     20  C   UNL     1       1.343  12.115  18.926  0.00  0.00    +0.000 A 
ATOM     21 CL   UNL     1       1.254  13.838  19.073  0.00  0.00    +0.000 Cl
BRANCH  17  22
ATOM     22  C   UNL     1       1.810   7.866  18.373  0.00  0.00    +0.000 C 
BRANCH  22  23
ATOM     23  C   UNL     1       3.256   7.363  18.240  0.00  0.00    +0.000 C 
BRANCH  23  24
ATOM     24  C   UNL     1       3.444   5.834  18.153  0.00  0.00    +0.000 C 
ATOM     25  C   UNL     1       2.114   5.101  18.001  0.00  0.00    +0.000 C 
ATOM     26  C   UNL     1       4.365   5.500  16.975  0.00  0.00    +0.000 C 
BRANCH  24  27
ATOM     27  O   UNL     1       4.126   5.336  19.302  0.00  0.00    +0.000 OA
ATOM     28  H   UNL     1       4.519   6.081  19.787  0.00  0.00    +0.000 HD
ENDBRANCH  24  27
ENDBRANCH  23  24
ENDBRANCH  22  23
ENDBRANCH  17  22
ENDBRANCH  11  15
BRANCH   7  29
ATOM     29  C   UNL     1      -2.869  11.134  15.968  0.00  0.00    +0.000 C 
ATOM     30  C   UNL     1      -2.644   9.697  15.555  0.00  0.00    +0.000 C 
ATOM     31  C   UNL     1      -3.849  10.436  15.054  0.00  0.00    +0.000 C 
ENDBRANCH   7  29
TORSDOF 6
ENDMDL
MODEL 3
REMARK VINA RESULT:      -8.2      5.024      9.519
REMARK  Name = 
REMARK  9 active torsions:
REMARK  status: ('A' for Active; 'I' for Inactive)
REMARK    1  A    between atoms: C_1  and  C_2
REMARK    2  A    between atoms: C_7  and  C_8
REMARK    3  A    between atoms: C_14  and  C_15
REMARK    4  A    between atoms: C_17  and  C_18
REMARK    5  A    between atoms: C_18  and  C_19
REMARK    6  A    between atoms: C_19  and  C_20
REMARK    7  A    between atoms: C_20  and  C_21
REMARK    8  A    between atoms: C_20  and  C_22
REMARK    9  A    between atoms: C_20  and  O_23
REMARK                            x       y       z     vdW  Elec       q    Type
REMARK                         _______ _______ _______ _____ _____    ______ ____
ROOT
ATOM      1  C   UNL     1      -4.458  13.154  23.260  0.00  0.00    +0.000 C 
ATOM      2  C   UNL     1      -3.975  12.762  21.895  0.00  0.00    +0.000 A 
ATOM      3  N   UNL     1      -4.823  12.584  20.927  0.00  0.00    +0.000 NA
ATOM      4  C   UNL     1      -4.317  12.196  19.663  0.00  0.00    +0.000 A 
ATOM      5  C   UNL     1      -5.211  12.077  18.607  0.00  0.00    +0.000 A 
ATOM      6  C   UNL     1      -4.750  11.716  17.343  0.00  0.00    +0.000 A 
ATOM      7  C   UNL     1      -3.398  11.440  17.141  0.00  0.00    +0.000 A 
ATOM      8  N   UNL     1      -2.512  11.536  18.169  0.00  0.00    +0.000 NA
ATOM      9  C   UNL     1      -2.966  11.934  19.386  0.00  0.00    +0.000 A 
ATOM     10  N   UNL     1      -2.077  12.180  20.461  0.00  0.00    +0.000 N 
ATOM     11  C   UNL     1      -0.698  12.134  20.621  0.00  0.00    +0.000 A 
ATOM     12  N   UNL     1      -0.431  12.501  21.871  0.00  0.00    +0.000 NA
ATOM     13  N   UNL     1      -1.601  12.772  22.534  0.00  0.00    +0.000 NA
ATOM     14  C   UNL     1      -2.571  12.586  21.674  0.00  0.00    +0.000 A 
ENDROOT
BRANCH  11  15
ATOM     15  C   UNL     1       0.326  11.761  19.634  0.00  0.00    +0.000 A 
ATOM     16  C   UNL     1       0.425  10.432  19.197  0.00  0.00    +0.000 A 
ATOM     17  C   UNL     1       1.458   9.990  18.357  0.00  0.00    +0.000 A 
ATOM     18  C   UNL     1       2.360  10.925  17.852  0.00  0.00    +0.000 A 
ATOM     19  C   UNL     1       2.213  12.274  18.173  0.00  0.00    +0.000 A 
ATOM     20  C   UNL     1       1.215  12.692  19.066  0.00  0.00    +0.000 A 
ATOM     21 CL   UNL     1       1.176  14.385  19.427  0.00  0.00    +0.000 Cl
BRANCH  17  22
ATOM     22  C   UNL     1       1.580   8.527  18.017  0.00  0.00    +0.000 C 
BRANCH  22  23
ATOM     23  C   UNL     1       2.374   7.674  19.019  0.00  0.00    +0.000 C 
BRANCH  23  24
ATOM     24  C   UNL     1       3.047   6.405  18.457  0.00  0.00    +0.000 C 
ATOM     25  C   UNL     1       4.151   6.738  17.456  0.00  0.00    +0.000 C 
ATOM     26  C   UNL     1       3.617   5.575  19.611  0.00  0.00    +0.000 C 
BRANCH  24  27
ATOM     27  O   UNL     1       2.090   5.552  17.833  0.00  0.00    +0.000 OA
ATOM     28  H   UNL     1       2.436   4.643  17.815  0.00  0.00    +0.000 HD
ENDBRANCH  24  27
ENDBRANCH  23  24
ENDBRANCH  22  23
ENDBRANCH  17  22
ENDBRANCH  11  15
BRANCH   7  29
ATOM     29  C   UNL     1      -2.894  11.103  15.754  0.00  0.00    +0.000 C 
ATOM     30  C   UNL     1      -2.548   9.679  15.384  0.00  0.00    +0.000 C 
ATOM     31  C   UNL     1      -3.767  10.325  14.797  0.00  0.00    +0.000 C 
ENDBRANCH   7  29
TORSDOF 6
ENDMDL
MODEL 4
REMARK VINA RESULT:      -8.2      5.088      9.711
REMARK  Name = 
REMARK  9 active torsions:
REMARK  status: ('A' for Active; 'I' for Inactive)
REMARK    1  A    between atoms: C_1  and  C_2
REMARK    2  A    between atoms: C_7  and  C_8
REMARK    3  A    between atoms: C_14  and  C_15
REMARK    4  A    between atoms: C_17  and  C_18
REMARK    5  A    between atoms: C_18  and  C_19
REMARK    6  A    between atoms: C_19  and  C_20
REMARK    7  A    between atoms: C_20  and  C_21
REMARK    8  A    between atoms: C_20  and  C_22
REMARK    9  A    between atoms: C_20  and  O_23
REMARK                            x       y       z     vdW  Elec       q    Type
REMARK                         _______ _______ _______ _____ _____    ______ ____
ROOT
ATOM      1  C   UNL     1      -3.538  14.414  23.826  0.00  0.00    +0.000 C 
ATOM      2  C   UNL     1      -3.368  13.646  22.548  0.00  0.00    +0.000 A 
ATOM      3  N   UNL     1      -4.371  13.495  21.736  0.00  0.00    +0.000 NA
ATOM      4  C   UNL     1      -4.162  12.745  20.554  0.00  0.00    +0.000 A 
ATOM      5  C   UNL     1      -5.209  12.643  19.648  0.00  0.00    +0.000 A 
ATOM      6  C   UNL     1      -5.037  11.931  18.463  0.00  0.00    +0.000 A 
ATOM      7  C   UNL     1      -3.827  11.289  18.198  0.00  0.00    +0.000 A 
ATOM      8  N   UNL     1      -2.797  11.366  19.083  0.00  0.00    +0.000 NA
ATOM      9  C   UNL     1      -2.961  12.102  20.213  0.00  0.00    +0.000 A 
ATOM     10  N   UNL     1      -1.887  12.330  21.109  0.00  0.00    +0.000 N 
ATOM     11  C   UNL     1      -0.545  11.973  21.138  0.00  0.00    +0.000 A 
ATOM     12  N   UNL     1      -0.016  12.506  22.235  0.00  0.00    +0.000 NA
ATOM     13  N   UNL     1      -0.983  13.189  22.929  0.00  0.00    +0.000 NA
ATOM     14  C   UNL     1      -2.088  13.083  22.236  0.00  0.00    +0.000 A 
ENDROOT
BRANCH  11  15
ATOM     15  C   UNL     1       0.209  11.164  20.168  0.00  0.00    +0.000 A 
ATOM     16  C   UNL     1       0.554   9.841  20.480  0.00  0.00    +0.000 A 
ATOM     17  C   UNL     1       1.378   9.062  19.654  0.00  0.00    +0.000 A 
ATOM     18  C   UNL     1       1.785   9.584  18.428  0.00  0.00    +0.000 A 
ATOM     19  C   UNL     1       1.357  10.852  18.037  0.00  0.00    +0.000 A 
ATOM     20  C   UNL     1       0.587  11.644  18.901  0.00  0.00    +0.000 A 
ATOM     21 CL   UNL     1       0.170  13.221  18.321  0.00  0.00    +0.000 Cl
BRANCH  17  22
ATOM     22  C   UNL     1       1.810   7.689  20.099  0.00  0.00    +0.000 C 
BRANCH  22  23
ATOM     23  C   UNL     1       2.500   6.828  19.029  0.00  0.00    +0.000 C 
BRANCH  23  24
ATOM     24  C   UNL     1       2.927   5.409  19.461  0.00  0.00    +0.000 C 
ATOM     25  C   UNL     1       2.209   4.326  18.659  0.00  0.00    +0.000 C 
ATOM     26  C   UNL     1       4.443   5.262  19.304  0.00  0.00    +0.000 C 
BRANCH  24  27
ATOM     27  O   UNL     1       2.683   5.203  20.851  0.00  0.00    +0.000 OA
ATOM     28  H   UNL     1       1.753   5.409  21.046  0.00  0.00    +0.000 HD
ENDBRANCH  24  27
ENDBRANCH  23  24
ENDBRANCH  22  23
ENDBRANCH  17  22
ENDBRANCH  11  15
BRANCH   7  29
ATOM     29  C   UNL     1      -3.628  10.564  16.885  0.00  0.00    +0.000 C 
ATOM     30  C   UNL     1      -2.721  11.135  15.819  0.00  0.00    +0.000 C 
ATOM     31  C   UNL     1      -2.303   9.908  16.574  0.00  0.00    +0.000 C 
ENDBRANCH   7  29
TORSDOF 6
ENDMDL
MODEL 5
REMARK VINA RESULT:      -8.1      4.468      8.953
REMARK  Name = 
REMARK  9 active torsions:
REMARK  status: ('A' for Active; 'I' for Inactive)
REMARK    1  A    between atoms: C_1  and  C_2
REMARK    2  A    between atoms: C_7  and  C_8
REMARK    3  A    between atoms: C_14  and  C_15
REMARK    4  A    between atoms: C_17  and  C_18
REMARK    5  A    between atoms: C_18  and  C_19
REMARK    6  A    between atoms: C_19  and  C_20
REMARK    7  A    between atoms: C_20  and  C_21
REMARK    8  A    between atoms: C_20  and  C_22
REMARK    9  A    between atoms: C_20  and  O_23
REMARK                            x       y       z     vdW  Elec       q    Type
REMARK                         _______ _______ _______ _____ _____    ______ ____
ROOT
ATOM      1  C   UNL     1      -2.478  12.803  23.824  0.00  0.00    +0.000 C 
ATOM      2  C   UNL     1      -2.275  12.307  22.423  0.00  0.00    +0.000 A 
ATOM      3  N   UNL     1      -3.174  12.533  21.512  0.00  0.00    +0.000 NA
ATOM      4  C   UNL     1      -2.944  12.027  20.210  0.00  0.00    +0.000 A 
ATOM      5  C   UNL     1      -3.865  12.329  19.216  0.00  0.00    +0.000 A 
ATOM      6  C   UNL     1      -3.664  11.867  17.918  0.00  0.00    +0.000 A 
ATOM      7  C   UNL     1      -2.557  11.072  17.619  0.00  0.00    +0.000 A 
ATOM      8  N   UNL     1      -1.654  10.754  18.585  0.00  0.00    +0.000 NA
ATOM      9  C   UNL     1      -1.836  11.249  19.836  0.00  0.00    +0.000 A 
ATOM     10  N   UNL     1      -0.866  11.064  20.852  0.00  0.00    +0.000 N 
ATOM     11  C   UNL     1       0.379  10.453  20.916  0.00  0.00    +0.000 A 
ATOM     12  N   UNL     1       0.843  10.624  22.150  0.00  0.00    +0.000 NA
ATOM     13  N   UNL     1      -0.075  11.320  22.897  0.00  0.00    +0.000 NA
ATOM     14  C   UNL     1      -1.081  11.583  22.103  0.00  0.00    +0.000 A 
ENDROOT
BRANCH  11  15
ATOM     15  C   UNL     1       1.104   9.738  19.854  0.00  0.00    +0.000 A 
ATOM     16  C   UNL     1       1.375   8.369  19.994  0.00  0.00    +0.000 A 
ATOM     17  C   UNL     1       2.170   7.661  19.079  0.00  0.00    +0.000 A 
ATOM     18  C   UNL     1       2.621   8.316  17.934  0.00  0.00    +0.000 A 
ATOM     19  C   UNL     1       2.265   9.645  17.710  0.00  0.00    +0.000 A 
ATOM     20  C   UNL     1       1.525  10.358  18.665  0.00  0.00    +0.000 A 
ATOM     21 CL   UNL     1       1.199  12.017  18.292  0.00  0.00    +0.000 Cl
BRANCH  17  22
ATOM     22  C   UNL     1       2.523   6.220  19.344  0.00  0.00    +0.000 C 
BRANCH  22  23
ATOM     23  C   UNL     1       2.102   5.221  18.256  0.00  0.00    +0.000 C 
BRANCH  23  24
ATOM     24  C   UNL     1       1.916   3.756  18.706  0.00  0.00    +0.000 C 
ATOM     25  C   UNL     1       3.221   2.967  18.640  0.00  0.00    +0.000 C 
ATOM     26  C   UNL     1       1.356   3.726  20.131  0.00  0.00    +0.000 C 
BRANCH  24  27
ATOM     27  O   UNL     1       0.929   3.099  17.913  0.00  0.00    +0.000 OA
ATOM     28  H   UNL     1       0.333   3.764  17.530  0.00  0.00    +0.000 HD
ENDBRANCH  24  27
ENDBRANCH  23  24
ENDBRANCH  22  23
ENDBRANCH  17  22
ENDBRANCH  11  15
BRANCH   7  29
ATOM     29  C   UNL     1      -2.314  10.620  16.195  0.00  0.00    +0.000 C 
ATOM     30  C   UNL     1      -3.037   9.416  15.634  0.00  0.00    +0.000 C 
ATOM     31  C   UNL     1      -3.392  10.790  15.150  0.00  0.00    +0.000 C 
ENDBRANCH   7  29
TORSDOF 6
ENDMDL
MODEL 6
REMARK VINA RESULT:      -7.9      0.969      1.387
REMARK  Name = 
REMARK  9 active torsions:
REMARK  status: ('A' for Active; 'I' for Inactive)
REMARK    1  A    between atoms: C_1  and  C_2
REMARK    2  A    between atoms: C_7  and  C_8
REMARK    3  A    between atoms: C_14  and  C_15
REMARK    4  A    between atoms: C_17  and  C_18
REMARK    5  A    between atoms: C_18  and  C_19
REMARK    6  A    between atoms: C_19  and  C_20
REMARK    7  A    between atoms: C_20  and  C_21
REMARK    8  A    between atoms: C_20  and  C_22
REMARK    9  A    between atoms: C_20  and  O_23
REMARK                            x       y       z     vdW  Elec       q    Type
REMARK                         _______ _______ _______ _____ _____    ______ ____
ROOT
ATOM      1  C   UNL     1       6.930   4.605  14.619  0.00  0.00    +0.000 C 
ATOM      2  C   UNL     1       5.790   4.491  15.588  0.00  0.00    +0.000 A 
ATOM      3  N   UNL     1       5.310   3.324  15.900  0.00  0.00    +0.000 NA
ATOM      4  C   UNL     1       4.222   3.273  16.803  0.00  0.00    +0.000 A 
ATOM      5  C   UNL     1       3.753   2.027  17.197  0.00  0.00    +0.000 A 
ATOM      6  C   UNL     1       2.697   1.934  18.101  0.00  0.00    +0.000 A 
ATOM      7  C   UNL     1       2.084   3.089  18.586  0.00  0.00    +0.000 A 
ATOM      8  N   UNL     1       2.521   4.317  18.198  0.00  0.00    +0.000 NA
ATOM      9  C   UNL     1       3.581   4.396  17.353  0.00  0.00    +0.000 A 
ATOM     10  N   UNL     1       4.166   5.642  17.015  0.00  0.00    +0.000 N 
ATOM     11  C   UNL     1       3.927   6.963  17.371  0.00  0.00    +0.000 A 
ATOM     12  N   UNL     1       4.832   7.711  16.746  0.00  0.00    +0.000 NA
ATOM     13  N   UNL     1       5.644   6.913  15.981  0.00  0.00    +0.000 NA
ATOM     14  C   UNL     1       5.239   5.682  16.163  0.00  0.00    +0.000 A 
ENDROOT
BRANCH  11  15
ATOM     15  C   UNL     1       2.890   7.497  18.267  0.00  0.00    +0.000 A 
ATOM     16  C   UNL     1       1.996   8.470  17.798  0.00  0.00    +0.000 A 
ATOM     17  C   UNL     1       1.070   9.109  18.637  0.00  0.00    +0.000 A 
ATOM     18  C   UNL     1       0.962   8.689  19.961  0.00  0.00    +0.000 A 
ATOM     19  C   UNL     1       1.756   7.640  20.422  0.00  0.00    +0.000 A 
ATOM     20  C   UNL     1       2.722   7.055  19.591  0.00  0.00    +0.000 A 
ATOM     21 CL   UNL     1       3.682   5.802  20.303  0.00  0.00    +0.000 Cl
BRANCH  17  22
ATOM     22  C   UNL     1       0.216  10.230  18.101  0.00  0.00    +0.000 C 
BRANCH  22  23
ATOM     23  C   UNL     1      -0.307  11.225  19.148  0.00  0.00    +0.000 C 
BRANCH  23  24
ATOM     24  C   UNL     1      -0.344  12.709  18.725  0.00  0.00    +0.000 C 
ATOM     25  C   UNL     1      -0.980  13.594  19.793  0.00  0.00    +0.000 C 
ATOM     26  C   UNL     1       1.079  13.189  18.424  0.00  0.00    +0.000 C 
BRANCH  24  27
ATOM     27  O   UNL     1      -1.050  12.874  17.496  0.00  0.00    +0.000 OA
ATOM     28  H   UNL     1      -0.415  12.871  16.760  0.00  0.00    +0.000 HD
ENDBRANCH  24  27
ENDBRANCH  23  24
ENDBRANCH  22  23
ENDBRANCH  17  22
ENDBRANCH  11  15
BRANCH   7  29
ATOM     29  C   UNL     1       0.975   2.983  19.609  0.00  0.00    +0.000 C 
ATOM     30  C   UNL     1       1.292   2.901  21.085  0.00  0.00    +0.000 C 
ATOM     31  C   UNL     1       0.672   4.146  20.525  0.00  0.00    +0.000 C 
ENDBRANCH   7  29
TORSDOF 6
ENDMDL
MODEL 7
REMARK VINA RESULT:      -7.9      5.625      8.895
REMARK  Name = 
REMARK  9 active torsions:
REMARK  status: ('A' for Active; 'I' for Inactive)
REMARK    1  A    between atoms: C_1  and  C_2
REMARK    2  A    between atoms: C_7  and  C_8
REMARK    3  A    between atoms: C_14  and  C_15
REMARK    4  A    between atoms: C_17  and  C_18
REMARK    5  A    between atoms: C_18  and  C_19
REMARK    6  A    between atoms: C_19  and  C_20
REMARK    7  A    between atoms: C_20  and  C_21
REMARK    8  A    between atoms: C_20  and  C_22
REMARK    9  A    between atoms: C_20  and  O_23
REMARK                            x       y       z     vdW  Elec       q    Type
REMARK                         _______ _______ _______ _____ _____    ______ ____
ROOT
ATOM      1  C   UNL     1       1.852   9.181  17.996  0.00  0.00    +0.000 C 
ATOM      2  C   UNL     1       0.529   9.837  18.259  0.00  0.00    +0.000 A 
ATOM      3  N   UNL     1      -0.478   9.621  17.466  0.00  0.00    +0.000 NA
ATOM      4  C   UNL     1      -1.699  10.280  17.747  0.00  0.00    +0.000 A 
ATOM      5  C   UNL     1      -2.797   9.996  16.947  0.00  0.00    +0.000 A 
ATOM      6  C   UNL     1      -4.022  10.609  17.203  0.00  0.00    +0.000 A 
ATOM      7  C   UNL     1      -4.141  11.533  18.241  0.00  0.00    +0.000 A 
ATOM      8  N   UNL     1      -3.071  11.834  19.024  0.00  0.00    +0.000 NA
ATOM      9  C   UNL     1      -1.894  11.196  18.794  0.00  0.00    +0.000 A 
ATOM     10  N   UNL     1      -0.781  11.366  19.653  0.00  0.00    +0.000 N 
ATOM     11  C   UNL     1      -0.545  12.084  20.818  0.00  0.00    +0.000 A 
ATOM     12  N   UNL     1       0.704  11.830  21.196  0.00  0.00    +0.000 NA
ATOM     13  N   UNL     1       1.294  10.976  20.298  0.00  0.00    +0.000 NA
ATOM     14  C   UNL     1       0.390  10.701  19.393  0.00  0.00    +0.000 A 
ENDROOT
BRANCH  11  15
ATOM     15  C   UNL     1      -1.463  12.973  21.548  0.00  0.00    +0.000 A 
ATOM     16  C   UNL     1      -2.440  12.426  22.392  0.00  0.00    +0.000 A 
ATOM     17  C   UNL     1      -3.423  13.211  23.014  0.00  0.00    +0.000 A 
ATOM     18  C   UNL     1      -3.364  14.596  22.873  0.00  0.00    +0.000 A 
ATOM     19  C   UNL     1      -2.332  15.175  22.137  0.00  0.00    +0.000 A 
ATOM     20  C   UNL     1      -1.395  14.375  21.467  0.00  0.00    +0.000 A 
ATOM     21 CL   UNL     1      -0.198  15.216  20.541  0.00  0.00    +0.000 Cl
BRANCH  17  22
ATOM     22  C   UNL     1      -4.517  12.554  23.815  0.00  0.00    +0.000 C 
BRANCH  22  23
ATOM     23  C   UNL     1      -5.515  13.509  24.488  0.00  0.00    +0.000 C 
BRANCH  23  24
ATOM     24  C   UNL     1      -6.953  13.504  23.928  0.00  0.00    +0.000 C 
ATOM     25  C   UNL     1      -7.159  14.584  22.868  0.00  0.00    +0.000 C 
ATOM     26  C   UNL     1      -7.267  12.125  23.340  0.00  0.00    +0.000 C 
BRANCH  24  27
ATOM     27  O   UNL     1      -7.909  13.682  24.971  0.00  0.00    +0.000 OA
ATOM     28  H   UNL     1      -8.266  12.815  25.228  0.00  0.00    +0.000 HD
ENDBRANCH  24  27
ENDBRANCH  23  24
ENDBRANCH  22  23
ENDBRANCH  17  22
ENDBRANCH  11  15
BRANCH   7  29
ATOM     29  C   UNL     1      -5.487  12.153  18.550  0.00  0.00    +0.000 C 
ATOM     30  C   UNL     1      -6.360  11.592  19.649  0.00  0.00    +0.000 C 
ATOM     31  C   UNL     1      -5.692  12.921  19.835  0.00  0.00    +0.000 C 
ENDBRANCH   7  29
TORSDOF 6
ENDMDL
MODEL 8
REMARK VINA RESULT:      -7.9      3.571      7.442
REMARK  Name = 
REMARK  9 active torsions:
REMARK  status: ('A' for Active; 'I' for Inactive)
REMARK    1  A    between atoms: C_1  and  C_2
REMARK    2  A    between atoms: C_7  and  C_8
REMARK    3  A    between atoms: C_14  and  C_15
REMARK    4  A    between atoms: C_17  and  C_18
REMARK    5  A    between atoms: C_18  and  C_19
REMARK    6  A    between atoms: C_19  and  C_20
REMARK    7  A    between atoms: C_20  and  C_21
REMARK    8  A    between atoms: C_20  and  C_22
REMARK    9  A    between atoms: C_20  and  O_23
REMARK                            x       y       z     vdW  Elec       q    Type
REMARK                         _______ _______ _______ _____ _____    ______ ____
ROOT
ATOM      1  C   UNL     1       2.072   1.755  22.150  0.00  0.00    +0.000 C 
ATOM      2  C   UNL     1       2.349   2.990  21.345  0.00  0.00    +0.000 A 
ATOM      3  N   UNL     1       1.602   4.044  21.485  0.00  0.00    +0.000 NA
ATOM      4  C   UNL     1       1.894   5.176  20.687  0.00  0.00    +0.000 A 
ATOM      5  C   UNL     1       1.146   6.329  20.885  0.00  0.00    +0.000 A 
ATOM      6  C   UNL     1       1.416   7.471  20.135  0.00  0.00    +0.000 A 
ATOM      7  C   UNL     1       2.413   7.451  19.159  0.00  0.00    +0.000 A 
ATOM      8  N   UNL     1       3.144   6.325  18.942  0.00  0.00    +0.000 NA
ATOM      9  C   UNL     1       2.903   5.232  19.712  0.00  0.00    +0.000 A 
ATOM     10  N   UNL     1       3.715   4.074  19.625  0.00  0.00    +0.000 N 
ATOM     11  C   UNL     1       4.836   3.718  18.888  0.00  0.00    +0.000 A 
ATOM     12  N   UNL     1       5.182   2.489  19.258  0.00  0.00    +0.000 NA
ATOM     13  N   UNL     1       4.305   2.029  20.208  0.00  0.00    +0.000 NA
ATOM     14  C   UNL     1       3.446   2.992  20.423  0.00  0.00    +0.000 A 
ENDROOT
BRANCH  11  15
ATOM     15  C   UNL     1       5.555   4.508  17.875  0.00  0.00    +0.000 A 
ATOM     16  C   UNL     1       5.166   4.438  16.530  0.00  0.00    +0.000 A 
ATOM     17  C   UNL     1       5.888   5.065  15.503  0.00  0.00    +0.000 A 
ATOM     18  C   UNL     1       6.972   5.873  15.842  0.00  0.00    +0.000 A 
ATOM     19  C   UNL     1       7.308   6.056  17.183  0.00  0.00    +0.000 A 
ATOM     20  C   UNL     1       6.618   5.372  18.193  0.00  0.00    +0.000 A 
ATOM     21 CL   UNL     1       7.171   5.642  19.811  0.00  0.00    +0.000 Cl
BRANCH  17  22
ATOM     22  C   UNL     1       5.489   4.858  14.065  0.00  0.00    +0.000 C 
BRANCH  22  23
ATOM     23  C   UNL     1       5.410   3.396  13.601  0.00  0.00    +0.000 C 
BRANCH  23  24
ATOM     24  C   UNL     1       5.700   3.134  12.108  0.00  0.00    +0.000 C 
ATOM     25  C   UNL     1       4.490   3.437  11.227  0.00  0.00    +0.000 C 
ATOM     26  C   UNL     1       6.897   3.981  11.664  0.00  0.00    +0.000 C 
BRANCH  24  27
ATOM     27  O   UNL     1       6.110   1.785  11.895  0.00  0.00    +0.000 OA
ATOM     28  H   UNL     1       5.601   1.410  11.156  0.00  0.00    +0.000 HD
ENDBRANCH  24  27
ENDBRANCH  23  24
ENDBRANCH  22  23
ENDBRANCH  17  22
ENDBRANCH  11  15
BRANCH   7  29
ATOM     29  C   UNL     1       2.739   8.710  18.386  0.00  0.00    +0.000 C 
ATOM     30  C   UNL     1       1.828   9.195  17.281  0.00  0.00    +0.000 C 
ATOM     31  C   UNL     1       1.901   9.954  18.572  0.00  0.00    +0.000 C 
ENDBRANCH   7  29
TORSDOF 6
ENDMDL
MODEL 9
REMARK VINA RESULT:      -7.6      6.565      9.122
REMARK  Name = 
REMARK  9 active torsions:
REMARK  status: ('A' for Active; 'I' for Inactive)
REMARK    1  A    between atoms: C_1  and  C_2
REMARK    2  A    between atoms: C_7  and  C_8
REMARK    3  A    between atoms: C_14  and  C_15
REMARK    4  A    between atoms: C_17  and  C_18
REMARK    5  A    between atoms: C_18  and  C_19
REMARK    6  A    between atoms: C_19  and  C_20
REMARK    7  A    between atoms: C_20  and  C_21
REMARK    8  A    between atoms: C_20  and  C_22
REMARK    9  A    between atoms: C_20  and  O_23
REMARK                            x       y       z     vdW  Elec       q    Type
REMARK                         _______ _______ _______ _____ _____    ______ ____
ROOT
ATOM      1  C   UNL     1      -3.517  10.244  14.667  0.00  0.00    +0.000 C 
ATOM      2  C   UNL     1      -3.070  10.523  16.072  0.00  0.00    +0.000 A 
ATOM      3  N   UNL     1      -1.913  10.101  16.487  0.00  0.00    +0.000 NA
ATOM      4  C   UNL     1      -1.547  10.373  17.827  0.00  0.00    +0.000 A 
ATOM      5  C   UNL     1      -0.283   9.989  18.254  0.00  0.00    +0.000 A 
ATOM      6  C   UNL     1       0.122  10.257  19.559  0.00  0.00    +0.000 A 
ATOM      7  C   UNL     1      -0.750  10.880  20.452  0.00  0.00    +0.000 A 
ATOM      8  N   UNL     1      -1.998  11.248  20.054  0.00  0.00    +0.000 NA
ATOM      9  C   UNL     1      -2.365  11.024  18.766  0.00  0.00    +0.000 A 
ATOM     10  N   UNL     1      -3.598  11.500  18.255  0.00  0.00    +0.000 N 
ATOM     11  C   UNL     1      -4.653  12.238  18.775  0.00  0.00    +0.000 A 
ATOM     12  N   UNL     1      -5.540  12.405  17.799  0.00  0.00    +0.000 NA
ATOM     13  N   UNL     1      -5.097  11.783  16.660  0.00  0.00    +0.000 NA
ATOM     14  C   UNL     1      -3.932  11.259  16.947  0.00  0.00    +0.000 A 
ENDROOT
BRANCH  11  15
ATOM     15  C   UNL     1      -4.816  12.766  20.138  0.00  0.00    +0.000 A 
ATOM     16  C   UNL     1      -3.968  13.784  20.599  0.00  0.00    +0.000 A 
ATOM     17  C   UNL     1      -3.990  14.240  21.926  0.00  0.00    +0.000 A 
ATOM     18  C   UNL     1      -4.959  13.738  22.792  0.00  0.00    +0.000 A 
ATOM     19  C   UNL     1      -5.893  12.813  22.327  0.00  0.00    +0.000 A 
ATOM     20  C   UNL     1      -5.818  12.318  21.017  0.00  0.00    +0.000 A 
ATOM     21 CL   UNL     1      -7.001  11.131  20.582  0.00  0.00    +0.000 Cl
BRANCH  17  22
ATOM     22  C   UNL     1      -2.976  15.252  22.392  0.00  0.00    +0.000 C 
BRANCH  22  23
ATOM     23  C   UNL     1      -1.504  14.878  22.156  0.00  0.00    +0.000 C 
BRANCH  23  24
ATOM     24  C   UNL     1      -0.793  15.597  20.991  0.00  0.00    +0.000 C 
ATOM     25  C   UNL     1       0.442  16.364  21.460  0.00  0.00    +0.000 C 
ATOM     26  C   UNL     1      -0.400  14.574  19.921  0.00  0.00    +0.000 C 
BRANCH  24  27
ATOM     27  O   UNL     1      -1.679  16.496  20.327  0.00  0.00    +0.000 OA
ATOM     28  H   UNL     1      -2.212  16.000  19.682  0.00  0.00    +0.000 HD
ENDBRANCH  24  27
ENDBRANCH  23  24
ENDBRANCH  22  23
ENDBRANCH  17  22
ENDBRANCH  11  15
BRANCH   7  29
ATOM     29  C   UNL     1      -0.285  11.219  21.851  0.00  0.00    +0.000 C 
ATOM     30  C   UNL     1      -1.276  11.330  22.988  0.00  0.00    +0.000 C 
ATOM     31  C   UNL     1      -0.325  10.171  22.939  0.00  0.00    +0.000 C 
ENDBRANCH   7  29
TORSDOF 6
ENDMDL
