MODEL 1
REMARK VINA RESULT:      -7.6      0.000      0.000
REMARK  Name = 
REMARK  9 active torsions:
REMARK  status: ('A' for Active; 'I' for Inactive)
REMARK    1  A    between atoms: C_1  and  N_2
REMARK    2  A    between atoms: N_2  and  C_3
REMARK    3  A    between atoms: C_7  and  C_8
REMARK    4  A    between atoms: C_9  and  C_10
REMARK    5  A    between atoms: N_18  and  C_19
REMARK    6  A    between atoms: C_19  and  C_20
REMARK    7  A    between atoms: C_19  and  C_22
REMARK    8  A    between atoms: C_20  and  O_21
REMARK    9  A    between atoms: C_22  and  O_24
REMARK                            x       y       z     vdW  Elec       q    Type
REMARK                         _______ _______ _______ _____ _____    ______ ____
ROOT
ATOM      1  C   UNL     1       3.927   4.873  19.293  0.00  0.00    +0.000 A 
ATOM      2  C   UNL     1       5.265   4.613  18.988  0.00  0.00    +0.000 A 
ATOM      3  N   UNL     1       5.533   3.272  19.069  0.00  0.00    +0.000 NA
ATOM      4  C   UNL     1       4.418   2.703  19.457  0.00  0.00    +0.000 A 
ATOM      5  N   UNL     1       3.399   3.613  19.589  0.00  0.00    +0.000 N 
ENDROOT
BRANCH   1  12
ATOM      6  C   UNL     1       0.315  10.013  20.347  0.00  0.00    +0.000 C 
ATOM      7  N   UNL     1       0.968   9.637  19.106  0.00  0.00    +0.000 N 
ATOM      8  C   UNL     1       1.563  10.679  18.290  0.00  0.00    +0.000 C 
ATOM      9  C   UNL     1       1.714   8.465  19.151  0.00  0.00    +0.000 A 
ATOM     10  N   UNL     1       1.778   7.778  20.301  0.00  0.00    +0.000 NA
ATOM     11  C   UNL     1       2.519   6.654  20.322  0.00  0.00    +0.000 A 
ATOM     12  C   UNL     1       3.174   6.131  19.225  0.00  0.00    +0.000 A 
ATOM     13  C   UNL     1       3.029   6.892  18.085  0.00  0.00    +0.000 A 
ATOM     14  N   UNL     1       2.354   8.059  18.039  0.00  0.00    +0.000 NA
ENDBRANCH   1  12
BRANCH   2  15
ATOM     15  C   UNL     1       6.258   5.576  18.511  0.00  0.00    +0.000 A 
ATOM     16  C   UNL     1       7.417   5.878  19.243  0.00  0.00    +0.000 A 
ATOM     17  C   UNL     1       8.223   6.961  18.886  0.00  0.00    +0.000 A 
ATOM     18  C   UNL     1       7.929   7.703  17.746  0.00  0.00    +0.000 A 
ATOM     19  C   UNL     1       6.844   7.342  16.948  0.00  0.00    +0.000 A 
ATOM     20  C   UNL     1       6.013   6.285  17.329  0.00  0.00    +0.000 A 
ENDBRANCH   2  15
BRANCH   5  21
ATOM     21  C   UNL     1       2.008   3.280  19.921  0.00  0.00    +0.000 C 
BRANCH  21  22
ATOM     22  C   UNL     1       1.762   3.122  21.416  0.00  0.00    +0.000 C 
ATOM     23  O   UNL     1       2.534   3.560  22.261  0.00  0.00    +0.000 OA
BRANCH  22  24
ATOM     24  O   UNL     1       0.667   2.407  21.767  0.00  0.00    +0.000 OA
ATOM     25  H   UNL     1       0.236   2.701  22.610  0.00  0.00    +0.000 HD
ENDBRANCH  22  24
ENDBRANCH  21  22
BRANCH  21  26
ATOM     26  C   UNL     1       1.464   2.058  19.171  0.00  0.00    +0.000 C 
BRANCH  26  27
ATOM     27  O   UNL     1       0.102   2.281  18.784  0.00  0.00    +0.000 OA
ATOM     28  H   UNL     1      -0.054   1.769  17.964  0.00  0.00    +0.000 HD
ENDBRANCH  26  27
ENDBRANCH  21  26
ENDBRANCH   5  21
TORSDOF 7
ENDMDL
MODEL 2
REMARK VINA RESULT:      -7.3      0.333      1.193
REMARK  Name = 
REMARK  9 active torsions:
REMARK  status: ('A' for Active; 'I' for Inactive)
REMARK    1  A    between atoms: C_1  and  N_2
REMARK    2  A    between atoms: N_2  and  C_3
REMARK    3  A    between atoms: C_7  and  C_8
REMARK    4  A    between atoms: C_9  and  C_10
REMARK    5  A    between atoms: N_18  and  C_19
REMARK    6  A    between atoms: C_19  and  C_20
REMARK    7  A    between atoms: C_19  and  C_22
REMARK    8  A    between atoms: C_20  and  O_21
REMARK    9  A    between atoms: C_22  and  O_24
REMARK                            x       y       z     vdW  Elec       q    Type
REMARK                         _______ _______ _______ _____ _____    ______ ____
ROOT
ATOM      1  C   UNL     1       3.944   4.828  19.214  0.00  0.00    +0.000 A 
ATOM      2  C   UNL     1       5.278   4.615  18.857  0.00  0.00    +0.000 A 
ATOM      3  N   UNL     1       5.565   3.276  18.818  0.00  0.00    +0.000 NA
ATOM      4  C   UNL     1       4.468   2.660  19.182  0.00  0.00    +0.000 A 
ATOM      5  N   UNL     1       3.440   3.539  19.414  0.00  0.00    +0.000 N 
ENDROOT
BRANCH   1  12
ATOM      6  C   UNL     1       1.026  10.379  18.102  0.00  0.00    +0.000 C 
ATOM      7  N   UNL     1       1.075   9.648  19.355  0.00  0.00    +0.000 N 
ATOM      8  C   UNL     1      -0.113   9.613  20.186  0.00  0.00    +0.000 C 
ATOM      9  C   UNL     1       1.773   8.446  19.321  0.00  0.00    +0.000 A 
ATOM     10  N   UNL     1       2.339   8.054  18.171  0.00  0.00    +0.000 NA
ATOM     11  C   UNL     1       2.996   6.879  18.161  0.00  0.00    +0.000 A 
ATOM     12  C   UNL     1       3.173   6.076  19.270  0.00  0.00    +0.000 A 
ATOM     13  C   UNL     1       2.578   6.574  20.410  0.00  0.00    +0.000 A 
ATOM     14  N   UNL     1       1.853   7.710  20.445  0.00  0.00    +0.000 NA
ENDBRANCH   1  12
BRANCH   2  15
ATOM     15  C   UNL     1       6.247   5.629  18.441  0.00  0.00    +0.000 A 
ATOM     16  C   UNL     1       7.436   5.861  19.148  0.00  0.00    +0.000 A 
ATOM     17  C   UNL     1       8.223   6.982  18.872  0.00  0.00    +0.000 A 
ATOM     18  C   UNL     1       7.876   7.837  17.830  0.00  0.00    +0.000 A 
ATOM     19  C   UNL     1       6.757   7.555  17.047  0.00  0.00    +0.000 A 
ATOM     20  C   UNL     1       5.947   6.457  17.352  0.00  0.00    +0.000 A 
ENDBRANCH   2  15
BRANCH   5  21
ATOM     21  C   UNL     1       2.062   3.159  19.749  0.00  0.00    +0.000 C 
BRANCH  21  22
ATOM     22  C   UNL     1       1.875   2.785  21.213  0.00  0.00    +0.000 C 
ATOM     23  O   UNL     1       2.818   2.573  21.966  0.00  0.00    +0.000 OA
BRANCH  22  24
ATOM     24  O   UNL     1       0.595   2.633  21.631  0.00  0.00    +0.000 OA
ATOM     25  H   UNL     1      -0.083   3.053  21.042  0.00  0.00    +0.000 HD
ENDBRANCH  22  24
ENDBRANCH  21  22
BRANCH  21  26
ATOM     26  C   UNL     1       1.486   2.057  18.852  0.00  0.00    +0.000 C 
BRANCH  26  27
ATOM     27  O   UNL     1       0.088   2.283  18.627  0.00  0.00    +0.000 OA
ATOM     28  H   UNL     1      -0.088   3.227  18.820  0.00  0.00    +0.000 HD
ENDBRANCH  26  27
ENDBRANCH  21  26
ENDBRANCH   5  21
TORSDOF 7
ENDMDL
MODEL 3
REMARK VINA RESULT:      -7.2      0.390      1.532
REMARK  Name = 
REMARK  9 active torsions:
REMARK  status: ('A' for Active; 'I' for Inactive)
REMARK    1  A    between atoms: C_1  and  N_2
REMARK    2  A    between atoms: N_2  and  C_3
REMARK    3  A    between atoms: C_7  and  C_8
REMARK    4  A    between atoms: C_9  and  C_10
REMARK    5  A    between atoms: N_18  and  C_19
REMARK    6  A    between atoms: C_19  and  C_20
REMARK    7  A    between atoms: C_19  and  C_22
REMARK    8  A    between atoms: C_20  and  O_21
REMARK    9  A    between atoms: C_22  and  O_24
REMARK                            x       y       z     vdW  Elec       q    Type
REMARK                         _______ _______ _______ _____ _____    ______ ____
ROOT
ATOM      1  C   UNL     1       3.728   4.929  19.390  0.00  0.00    +0.000 A 
ATOM      2  C   UNL     1       5.058   4.746  19.005  0.00  0.00    +0.000 A 
ATOM      3  N   UNL     1       5.367   3.413  18.935  0.00  0.00    +0.000 NA
ATOM      4  C   UNL     1       4.287   2.771  19.307  0.00  0.00    +0.000 A 
ATOM      5  N   UNL     1       3.249   3.629  19.575  0.00  0.00    +0.000 N 
ENDROOT
BRANCH   1  12
ATOM      6  C   UNL     1       0.666  10.431  18.427  0.00  0.00    +0.000 C 
ATOM      7  N   UNL     1       0.780   9.696  19.673  0.00  0.00    +0.000 N 
ATOM      8  C   UNL     1      -0.371   9.635  20.553  0.00  0.00    +0.000 C 
ATOM      9  C   UNL     1       1.498   8.506  19.605  0.00  0.00    +0.000 A 
ATOM     10  N   UNL     1       2.022   8.129  18.430  0.00  0.00    +0.000 NA
ATOM     11  C   UNL     1       2.700   6.967  18.388  0.00  0.00    +0.000 A 
ATOM     12  C   UNL     1       2.937   6.163  19.484  0.00  0.00    +0.000 A 
ATOM     13  C   UNL     1       2.381   6.645  20.650  0.00  0.00    +0.000 A 
ATOM     14  N   UNL     1       1.638   7.768  20.721  0.00  0.00    +0.000 NA
ENDBRANCH   1  12
BRANCH   2  15
ATOM     15  C   UNL     1       6.002   5.784  18.591  0.00  0.00    +0.000 A 
ATOM     16  C   UNL     1       5.773   6.597  17.471  0.00  0.00    +0.000 A 
ATOM     17  C   UNL     1       6.786   7.412  16.961  0.00  0.00    +0.000 A 
ATOM     18  C   UNL     1       8.013   7.488  17.615  0.00  0.00    +0.000 A 
ATOM     19  C   UNL     1       8.214   6.770  18.793  0.00  0.00    +0.000 A 
ATOM     20  C   UNL     1       7.214   5.923  19.278  0.00  0.00    +0.000 A 
ENDBRANCH   2  15
BRANCH   5  21
ATOM     21  C   UNL     1       1.884   3.219  19.928  0.00  0.00    +0.000 C 
BRANCH  21  22
ATOM     22  C   UNL     1       1.681   3.009  21.422  0.00  0.00    +0.000 C 
ATOM     23  O   UNL     1       2.512   3.350  22.255  0.00  0.00    +0.000 OA
BRANCH  22  24
ATOM     24  O   UNL     1       0.549   2.360  21.784  0.00  0.00    +0.000 OA
ATOM     25  H   UNL     1      -0.228   2.950  21.956  0.00  0.00    +0.000 HD
ENDBRANCH  22  24
ENDBRANCH  21  22
BRANCH  21  26
ATOM     26  C   UNL     1       1.384   1.991  19.156  0.00  0.00    +0.000 C 
BRANCH  26  27
ATOM     27  O   UNL     1       0.118   2.272  18.545  0.00  0.00    +0.000 OA
ATOM     28  H   UNL     1      -0.010   3.243  18.577  0.00  0.00    +0.000 HD
ENDBRANCH  26  27
ENDBRANCH  21  26
ENDBRANCH   5  21
TORSDOF 7
ENDMDL
MODEL 4
REMARK VINA RESULT:      -7.1      0.649      1.264
REMARK  Name = 
REMARK  9 active torsions:
REMARK  status: ('A' for Active; 'I' for Inactive)
REMARK    1  A    between atoms: C_1  and  N_2
REMARK    2  A    between atoms: N_2  and  C_3
REMARK    3  A    between atoms: C_7  and  C_8
REMARK    4  A    between atoms: C_9  and  C_10
REMARK    5  A    between atoms: N_18  and  C_19
REMARK    6  A    between atoms: C_19  and  C_20
REMARK    7  A    between atoms: C_19  and  C_22
REMARK    8  A    between atoms: C_20  and  O_21
REMARK    9  A    between atoms: C_22  and  O_24
REMARK                            x       y       z     vdW  Elec       q    Type
REMARK                         _______ _______ _______ _____ _____    ______ ____
ROOT
ATOM      1  C   UNL     1       3.658   4.963  19.532  0.00  0.00    +0.000 A 
ATOM      2  C   UNL     1       4.971   4.751  19.102  0.00  0.00    +0.000 A 
ATOM      3  N   UNL     1       5.274   3.415  19.101  0.00  0.00    +0.000 NA
ATOM      4  C   UNL     1       4.210   2.802  19.559  0.00  0.00    +0.000 A 
ATOM      5  N   UNL     1       3.186   3.679  19.817  0.00  0.00    +0.000 N 
ENDROOT
BRANCH   1  12
ATOM      6  C   UNL     1      -0.027   9.920  21.089  0.00  0.00    +0.000 C 
ATOM      7  N   UNL     1       0.586   9.651  19.801  0.00  0.00    +0.000 N 
ATOM      8  C   UNL     1       1.125  10.764  19.042  0.00  0.00    +0.000 C 
ATOM      9  C   UNL     1       1.360   8.498  19.733  0.00  0.00    +0.000 A 
ATOM     10  N   UNL     1       1.484   7.732  20.827  0.00  0.00    +0.000 NA
ATOM     11  C   UNL     1       2.251   6.629  20.739  0.00  0.00    +0.000 A 
ATOM     12  C   UNL     1       2.875   6.204  19.584  0.00  0.00    +0.000 A 
ATOM     13  C   UNL     1       2.669   7.041  18.508  0.00  0.00    +0.000 A 
ATOM     14  N   UNL     1       1.966   8.190  18.572  0.00  0.00    +0.000 NA
ENDBRANCH   1  12
BRANCH   2  15
ATOM     15  C   UNL     1       5.897   5.757  18.583  0.00  0.00    +0.000 A 
ATOM     16  C   UNL     1       5.631   6.483  17.412  0.00  0.00    +0.000 A 
ATOM     17  C   UNL     1       6.626   7.260  16.814  0.00  0.00    +0.000 A 
ATOM     18  C   UNL     1       7.871   7.388  17.424  0.00  0.00    +0.000 A 
ATOM     19  C   UNL     1       8.110   6.762  18.646  0.00  0.00    +0.000 A 
ATOM     20  C   UNL     1       7.128   5.950  19.222  0.00  0.00    +0.000 A 
ENDBRANCH   2  15
BRANCH   5  21
ATOM     21  C   UNL     1       1.837   3.297  20.254  0.00  0.00    +0.000 C 
BRANCH  21  22
ATOM     22  C   UNL     1       1.811   2.613  21.614  0.00  0.00    +0.000 C 
ATOM     23  O   UNL     1       0.783   2.490  22.270  0.00  0.00    +0.000 OA
BRANCH  22  24
ATOM     24  O   UNL     1       3.006   2.200  22.098  0.00  0.00    +0.000 OA
ATOM     25  H   UNL     1       3.793   2.568  21.621  0.00  0.00    +0.000 HD
ENDBRANCH  22  24
ENDBRANCH  21  22
BRANCH  21  26
ATOM     26  C   UNL     1       1.068   2.453  19.231  0.00  0.00    +0.000 C 
BRANCH  26  27
ATOM     27  O   UNL     1       1.075   3.099  17.951  0.00  0.00    +0.000 OA
ATOM     28  H   UNL     1       1.029   2.395  17.271  0.00  0.00    +0.000 HD
ENDBRANCH  26  27
ENDBRANCH  21  26
ENDBRANCH   5  21
TORSDOF 7
ENDMDL
MODEL 5
REMARK VINA RESULT:      -7.1      3.082      5.435
REMARK  Name = 
REMARK  9 active torsions:
REMARK  status: ('A' for Active; 'I' for Inactive)
REMARK    1  A    between atoms: C_1  and  N_2
REMARK    2  A    between atoms: N_2  and  C_3
REMARK    3  A    between atoms: C_7  and  C_8
REMARK    4  A    between atoms: C_9  and  C_10
REMARK    5  A    between atoms: N_18  and  C_19
REMARK    6  A    between atoms: C_19  and  C_20
REMARK    7  A    between atoms: C_19  and  C_22
REMARK    8  A    between atoms: C_20  and  O_21
REMARK    9  A    between atoms: C_22  and  O_24
REMARK                            x       y       z     vdW  Elec       q    Type
REMARK                         _______ _______ _______ _____ _____    ______ ____
ROOT
ATOM      1  C   UNL     1       4.216   5.322  18.446  0.00  0.00    +0.000 A 
ATOM      2  C   UNL     1       4.092   4.004  18.894  0.00  0.00    +0.000 A 
ATOM      3  N   UNL     1       5.207   3.274  18.576  0.00  0.00    +0.000 NA
ATOM      4  C   UNL     1       5.991   4.083  17.908  0.00  0.00    +0.000 A 
ATOM      5  N   UNL     1       5.462   5.346  17.814  0.00  0.00    +0.000 N 
ENDROOT
BRANCH   1  12
ATOM      6  C   UNL     1       0.145   9.704  20.635  0.00  0.00    +0.000 C 
ATOM      7  N   UNL     1       0.766   9.659  19.324  0.00  0.00    +0.000 N 
ATOM      8  C   UNL     1       1.202  10.903  18.718  0.00  0.00    +0.000 C 
ATOM      9  C   UNL     1       1.633   8.594  19.107  0.00  0.00    +0.000 A 
ATOM     10  N   UNL     1       1.831   7.705  20.091  0.00  0.00    +0.000 NA
ATOM     11  C   UNL     1       2.686   6.691  19.860  0.00  0.00    +0.000 A 
ATOM     12  C   UNL     1       3.332   6.474  18.659  0.00  0.00    +0.000 A 
ATOM     13  C   UNL     1       3.046   7.424  17.702  0.00  0.00    +0.000 A 
ATOM     14  N   UNL     1       2.251   8.492  17.916  0.00  0.00    +0.000 NA
ENDBRANCH   1  12
BRANCH   2  15
ATOM     15  C   UNL     1       3.010   3.454  19.711  0.00  0.00    +0.000 A 
ATOM     16  C   UNL     1       1.695   3.348  19.236  0.00  0.00    +0.000 A 
ATOM     17  C   UNL     1       0.645   3.044  20.105  0.00  0.00    +0.000 A 
ATOM     18  C   UNL     1       0.907   2.758  21.441  0.00  0.00    +0.000 A 
ATOM     19  C   UNL     1       2.224   2.750  21.901  0.00  0.00    +0.000 A 
ATOM     20  C   UNL     1       3.269   3.097  21.041  0.00  0.00    +0.000 A 
ENDBRANCH   2  15
BRANCH   5  21
ATOM     21  C   UNL     1       6.136   6.500  17.206  0.00  0.00    +0.000 C 
BRANCH  21  22
ATOM     22  C   UNL     1       6.293   6.386  15.696  0.00  0.00    +0.000 C 
ATOM     23  O   UNL     1       5.409   6.718  14.914  0.00  0.00    +0.000 OA
BRANCH  22  24
ATOM     24  O   UNL     1       7.447   5.832  15.257  0.00  0.00    +0.000 OA
ATOM     25  H   UNL     1       8.193   5.859  15.909  0.00  0.00    +0.000 HD
ENDBRANCH  22  24
ENDBRANCH  21  22
BRANCH  21  26
ATOM     26  C   UNL     1       7.488   6.839  17.847  0.00  0.00    +0.000 C 
BRANCH  26  27
ATOM     27  O   UNL     1       8.015   8.046  17.280  0.00  0.00    +0.000 OA
ATOM     28  H   UNL     1       8.992   7.973  17.301  0.00  0.00    +0.000 HD
ENDBRANCH  26  27
ENDBRANCH  21  26
ENDBRANCH   5  21
TORSDOF 7
ENDMDL
MODEL 6
REMARK VINA RESULT:      -6.9      3.119      5.557
REMARK  Name = 
REMARK  9 active torsions:
REMARK  status: ('A' for Active; 'I' for Inactive)
REMARK    1  A    between atoms: C_1  and  N_2
REMARK    2  A    between atoms: N_2  and  C_3
REMARK    3  A    between atoms: C_7  and  C_8
REMARK    4  A    between atoms: C_9  and  C_10
REMARK    5  A    between atoms: N_18  and  C_19
REMARK    6  A    between atoms: C_19  and  C_20
REMARK    7  A    between atoms: C_19  and  C_22
REMARK    8  A    between atoms: C_20  and  O_21
REMARK    9  A    between atoms: C_22  and  O_24
REMARK                            x       y       z     vdW  Elec       q    Type
REMARK                         _______ _______ _______ _____ _____    ______ ____
ROOT
ATOM      1  C   UNL     1       4.058   5.318  18.401  0.00  0.00    +0.000 A 
ATOM      2  C   UNL     1       3.925   3.980  18.782  0.00  0.00    +0.000 A 
ATOM      3  N   UNL     1       4.994   3.240  18.348  0.00  0.00    +0.000 NA
ATOM      4  C   UNL     1       5.756   4.067  17.675  0.00  0.00    +0.000 A 
ATOM      5  N   UNL     1       5.260   5.346  17.688  0.00  0.00    +0.000 N 
ENDROOT
BRANCH   1  12
ATOM      6  C   UNL     1       0.824  10.803  18.563  0.00  0.00    +0.000 C 
ATOM      7  N   UNL     1       0.948   9.824  19.628  0.00  0.00    +0.000 N 
ATOM      8  C   UNL     1      -0.212   9.543  20.453  0.00  0.00    +0.000 C 
ATOM      9  C   UNL     1       1.706   8.699  19.324  0.00  0.00    +0.000 A 
ATOM     10  N   UNL     1       2.258   8.595  18.106  0.00  0.00    +0.000 NA
ATOM     11  C   UNL     1       2.975   7.489  17.832  0.00  0.00    +0.000 A 
ATOM     12  C   UNL     1       3.226   6.479  18.739  0.00  0.00    +0.000 A 
ATOM     13  C   UNL     1       2.639   6.686  19.969  0.00  0.00    +0.000 A 
ATOM     14  N   UNL     1       1.857   7.745  20.261  0.00  0.00    +0.000 NA
ENDBRANCH   1  12
BRANCH   2  15
ATOM     15  C   UNL     1       2.884   3.412  19.638  0.00  0.00    +0.000 A 
ATOM     16  C   UNL     1       1.539   3.357  19.243  0.00  0.00    +0.000 A 
ATOM     17  C   UNL     1       0.539   3.031  20.161  0.00  0.00    +0.000 A 
ATOM     18  C   UNL     1       0.878   2.672  21.463  0.00  0.00    +0.000 A 
ATOM     19  C   UNL     1       2.220   2.614  21.836  0.00  0.00    +0.000 A 
ATOM     20  C   UNL     1       3.218   2.982  20.929  0.00  0.00    +0.000 A 
ENDBRANCH   2  15
BRANCH   5  21
ATOM     21  C   UNL     1       5.926   6.516  17.102  0.00  0.00    +0.000 C 
BRANCH  21  22
ATOM     22  C   UNL     1       6.092   6.427  15.591  0.00  0.00    +0.000 C 
ATOM     23  O   UNL     1       5.247   6.844  14.809  0.00  0.00    +0.000 OA
BRANCH  22  24
ATOM     24  O   UNL     1       7.207   5.797  15.150  0.00  0.00    +0.000 OA
ATOM     25  H   UNL     1       7.818   6.365  14.615  0.00  0.00    +0.000 HD
ENDBRANCH  22  24
ENDBRANCH  21  22
BRANCH  21  26
ATOM     26  C   UNL     1       7.271   6.858  17.755  0.00  0.00    +0.000 C 
BRANCH  26  27
ATOM     27  O   UNL     1       7.869   7.983  17.098  0.00  0.00    +0.000 OA
ATOM     28  H   UNL     1       8.154   7.682  16.210  0.00  0.00    +0.000 HD
ENDBRANCH  26  27
ENDBRANCH  21  26
ENDBRANCH   5  21
TORSDOF 7
ENDMDL
MODEL 7
REMARK VINA RESULT:      -6.9      0.824      1.277
REMARK  Name = 
REMARK  9 active torsions:
REMARK  status: ('A' for Active; 'I' for Inactive)
REMARK    1  A    between atoms: C_1  and  N_2
REMARK    2  A    between atoms: N_2  and  C_3
REMARK    3  A    between atoms: C_7  and  C_8
REMARK    4  A    between atoms: C_9  and  C_10
REMARK    5  A    between atoms: N_18  and  C_19
REMARK    6  A    between atoms: C_19  and  C_20
REMARK    7  A    between atoms: C_19  and  C_22
REMARK    8  A    between atoms: C_20  and  O_21
REMARK    9  A    between atoms: C_22  and  O_24
REMARK                            x       y       z     vdW  Elec       q    Type
REMARK                         _______ _______ _______ _____ _____    ______ ____
ROOT
ATOM      1  C   UNL     1       3.708   5.176  18.764  0.00  0.00    +0.000 A 
ATOM      2  C   UNL     1       5.071   4.986  18.518  0.00  0.00    +0.000 A 
ATOM      3  N   UNL     1       5.345   3.664  18.283  0.00  0.00    +0.000 NA
ATOM      4  C   UNL     1       4.207   3.029  18.422  0.00  0.00    +0.000 A 
ATOM      5  N   UNL     1       3.171   3.887  18.690  0.00  0.00    +0.000 N 
ENDROOT
BRANCH   1  12
ATOM      6  C   UNL     1       0.284  10.100  20.908  0.00  0.00    +0.000 C 
ATOM      7  N   UNL     1       0.742   9.874  19.549  0.00  0.00    +0.000 N 
ATOM      8  C   UNL     1       1.203  11.009  18.772  0.00  0.00    +0.000 C 
ATOM      9  C   UNL     1       1.490   8.718  19.352  0.00  0.00    +0.000 A 
ATOM     10  N   UNL     1       1.729   7.912  20.397  0.00  0.00    +0.000 NA
ATOM     11  C   UNL     1       2.468   6.807  20.183  0.00  0.00    +0.000 A 
ATOM     12  C   UNL     1       2.950   6.419  18.949  0.00  0.00    +0.000 A 
ATOM     13  C   UNL     1       2.632   7.296  17.934  0.00  0.00    +0.000 A 
ATOM     14  N   UNL     1       1.955   8.448  18.119  0.00  0.00    +0.000 NA
ENDBRANCH   1  12
BRANCH   2  15
ATOM     15  C   UNL     1       6.090   6.027  18.381  0.00  0.00    +0.000 A 
ATOM     16  C   UNL     1       6.010   7.026  17.401  0.00  0.00    +0.000 A 
ATOM     17  C   UNL     1       7.101   7.859  17.140  0.00  0.00    +0.000 A 
ATOM     18  C   UNL     1       8.254   7.758  17.913  0.00  0.00    +0.000 A 
ATOM     19  C   UNL     1       8.304   6.844  18.964  0.00  0.00    +0.000 A 
ATOM     20  C   UNL     1       7.228   5.982  19.197  0.00  0.00    +0.000 A 
ENDBRANCH   2  15
BRANCH   5  21
ATOM     21  C   UNL     1       1.761   3.497  18.811  0.00  0.00    +0.000 C 
BRANCH  21  22
ATOM     22  C   UNL     1       1.282   3.389  20.252  0.00  0.00    +0.000 C 
ATOM     23  O   UNL     1       1.734   2.563  21.037  0.00  0.00    +0.000 OA
BRANCH  22  24
ATOM     24  O   UNL     1       0.273   4.219  20.610  0.00  0.00    +0.000 OA
ATOM     25  H   UNL     1      -0.103   4.755  19.866  0.00  0.00    +0.000 HD
ENDBRANCH  22  24
ENDBRANCH  21  22
BRANCH  21  26
ATOM     26  C   UNL     1       1.401   2.219  18.045  0.00  0.00    +0.000 C 
BRANCH  26  27
ATOM     27  O   UNL     1       0.271   1.579  18.651  0.00  0.00    +0.000 OA
ATOM     28  H   UNL     1       0.593   0.751  19.063  0.00  0.00    +0.000 HD
ENDBRANCH  26  27
ENDBRANCH  21  26
ENDBRANCH   5  21
TORSDOF 7
ENDMDL
MODEL 8
REMARK VINA RESULT:      -6.8      3.081      5.360
REMARK  Name = 
REMARK  9 active torsions:
REMARK  status: ('A' for Active; 'I' for Inactive)
REMARK    1  A    between atoms: C_1  and  N_2
REMARK    2  A    between atoms: N_2  and  C_3
REMARK    3  A    between atoms: C_7  and  C_8
REMARK    4  A    between atoms: C_9  and  C_10
REMARK    5  A    between atoms: N_18  and  C_19
REMARK    6  A    between atoms: C_19  and  C_20
REMARK    7  A    between atoms: C_19  and  C_22
REMARK    8  A    between atoms: C_20  and  O_21
REMARK    9  A    between atoms: C_22  and  O_24
REMARK                            x       y       z     vdW  Elec       q    Type
REMARK                         _______ _______ _______ _____ _____    ______ ____
ROOT
ATOM      1  C   UNL     1       4.153   5.458  18.329  0.00  0.00    +0.000 A 
ATOM      2  C   UNL     1       3.948   4.190  18.879  0.00  0.00    +0.000 A 
ATOM      3  N   UNL     1       5.010   3.366  18.611  0.00  0.00    +0.000 NA
ATOM      4  C   UNL     1       5.837   4.068  17.877  0.00  0.00    +0.000 A 
ATOM      5  N   UNL     1       5.390   5.352  17.688  0.00  0.00    +0.000 N 
ENDROOT
BRANCH   1  12
ATOM      6  C   UNL     1       0.265  10.172  20.128  0.00  0.00    +0.000 C 
ATOM      7  N   UNL     1       0.995  10.064  18.878  0.00  0.00    +0.000 N 
ATOM      8  C   UNL     1       1.582  11.263  18.309  0.00  0.00    +0.000 C 
ATOM      9  C   UNL     1       1.790   8.931  18.743  0.00  0.00    +0.000 A 
ATOM     10  N   UNL     1       1.828   8.040  19.744  0.00  0.00    +0.000 NA
ATOM     11  C   UNL     1       2.617   6.959  19.595  0.00  0.00    +0.000 A 
ATOM     12  C   UNL     1       3.348   6.680  18.458  0.00  0.00    +0.000 A 
ATOM     13  C   UNL     1       3.225   7.639  17.475  0.00  0.00    +0.000 A 
ATOM     14  N   UNL     1       2.502   8.769  17.613  0.00  0.00    +0.000 NA
ENDBRANCH   1  12
BRANCH   2  15
ATOM     15  C   UNL     1       2.843   3.777  19.744  0.00  0.00    +0.000 A 
ATOM     16  C   UNL     1       2.996   3.627  21.130  0.00  0.00    +0.000 A 
ATOM     17  C   UNL     1       2.002   3.011  21.894  0.00  0.00    +0.000 A 
ATOM     18  C   UNL     1       0.809   2.615  21.296  0.00  0.00    +0.000 A 
ATOM     19  C   UNL     1       0.600   2.860  19.940  0.00  0.00    +0.000 A 
ATOM     20  C   UNL     1       1.612   3.438  19.168  0.00  0.00    +0.000 A 
ENDBRANCH   2  15
BRANCH   5  21
ATOM     21  C   UNL     1       6.130   6.409  16.989  0.00  0.00    +0.000 C 
BRANCH  21  22
ATOM     22  C   UNL     1       6.555   6.022  15.579  0.00  0.00    +0.000 C 
ATOM     23  O   UNL     1       7.727   5.844  15.268  0.00  0.00    +0.000 OA
BRANCH  22  24
ATOM     24  O   UNL     1       5.565   5.946  14.657  0.00  0.00    +0.000 OA
ATOM     25  H   UNL     1       5.824   6.245  13.748  0.00  0.00    +0.000 HD
ENDBRANCH  22  24
ENDBRANCH  21  22
BRANCH  21  26
ATOM     26  C   UNL     1       7.338   6.944  17.768  0.00  0.00    +0.000 C 
BRANCH  26  27
ATOM     27  O   UNL     1       7.774   8.190  17.211  0.00  0.00    +0.000 OA
ATOM     28  H   UNL     1       8.380   7.980  16.470  0.00  0.00    +0.000 HD
ENDBRANCH  26  27
ENDBRANCH  21  26
ENDBRANCH   5  21
TORSDOF 7
ENDMDL
MODEL 9
REMARK VINA RESULT:      -6.8      0.600      1.603
REMARK  Name = 
REMARK  9 active torsions:
REMARK  status: ('A' for Active; 'I' for Inactive)
REMARK    1  A    between atoms: C_1  and  N_2
REMARK    2  A    between atoms: N_2  and  C_3
REMARK    3  A    between atoms: C_7  and  C_8
REMARK    4  A    between atoms: C_9  and  C_10
REMARK    5  A    between atoms: N_18  and  C_19
REMARK    6  A    between atoms: C_19  and  C_20
REMARK    7  A    between atoms: C_19  and  C_22
REMARK    8  A    between atoms: C_20  and  O_21
REMARK    9  A    between atoms: C_22  and  O_24
REMARK                            x       y       z     vdW  Elec       q    Type
REMARK                         _______ _______ _______ _____ _____    ______ ____
ROOT
ATOM      1  C   UNL     1       3.901   4.656  19.211  0.00  0.00    +0.000 A 
ATOM      2  C   UNL     1       5.246   4.425  18.907  0.00  0.00    +0.000 A 
ATOM      3  N   UNL     1       5.524   3.083  18.918  0.00  0.00    +0.000 NA
ATOM      4  C   UNL     1       4.411   2.485  19.264  0.00  0.00    +0.000 A 
ATOM      5  N   UNL     1       3.382   3.377  19.434  0.00  0.00    +0.000 N 
ENDROOT
BRANCH   1  12
ATOM      6  C   UNL     1       0.429   9.820  20.569  0.00  0.00    +0.000 C 
ATOM      7  N   UNL     1       0.912   9.404  19.265  0.00  0.00    +0.000 N 
ATOM      8  C   UNL     1       1.384  10.419  18.342  0.00  0.00    +0.000 C 
ATOM      9  C   UNL     1       1.665   8.235  19.249  0.00  0.00    +0.000 A 
ATOM     10  N   UNL     1       1.888   7.588  20.402  0.00  0.00    +0.000 NA
ATOM     11  C   UNL     1       2.632   6.467  20.361  0.00  0.00    +0.000 A 
ATOM     12  C   UNL     1       3.138   5.910  19.204  0.00  0.00    +0.000 A 
ATOM     13  C   UNL     1       2.836   6.631  18.068  0.00  0.00    +0.000 A 
ATOM     14  N   UNL     1       2.153   7.794  18.075  0.00  0.00    +0.000 NA
ENDBRANCH   1  12
BRANCH   2  15
ATOM     15  C   UNL     1       6.234   5.420  18.493  0.00  0.00    +0.000 A 
ATOM     16  C   UNL     1       7.378   5.699  19.255  0.00  0.00    +0.000 A 
ATOM     17  C   UNL     1       8.176   6.807  18.964  0.00  0.00    +0.000 A 
ATOM     18  C   UNL     1       7.890   7.600  17.856  0.00  0.00    +0.000 A 
ATOM     19  C   UNL     1       6.822   7.267  17.025  0.00  0.00    +0.000 A 
ATOM     20  C   UNL     1       5.998   6.183  17.342  0.00  0.00    +0.000 A 
ENDBRANCH   2  15
BRANCH   5  21
ATOM     21  C   UNL     1       1.992   3.015  19.734  0.00  0.00    +0.000 C 
BRANCH  21  22
ATOM     22  C   UNL     1       1.091   2.995  18.506  0.00  0.00    +0.000 C 
ATOM     23  O   UNL     1       1.073   3.905  17.686  0.00  0.00    +0.000 OA
BRANCH  22  24
ATOM     24  O   UNL     1       0.252   1.937  18.399  0.00  0.00    +0.000 OA
ATOM     25  H   UNL     1      -0.572   2.114  17.879  0.00  0.00    +0.000 HD
ENDBRANCH  22  24
ENDBRANCH  21  22
BRANCH  21  26
ATOM     26  C   UNL     1       1.351   3.867  20.836  0.00  0.00    +0.000 C 
BRANCH  26  27
ATOM     27  O   UNL     1       1.854   3.475  22.120  0.00  0.00    +0.000 OA
ATOM     28  H   UNL     1       1.641   4.196  22.748  0.00  0.00    +0.000 HD
ENDBRANCH  26  27
ENDBRANCH  21  26
ENDBRANCH   5  21
TORSDOF 7
ENDMDL
