MODEL 1
REMARK VINA RESULT:      -7.8      0.000      0.000
REMARK  Name = 
REMARK  4 active torsions:
REMARK  status: ('A' for Active; 'I' for Inactive)
REMARK    1  A    between atoms: C_1  and  O_2
REMARK    2  A    between atoms: O_2  and  C_3
REMARK    3  A    between atoms: C_6  and  C_7
REMARK    4  A    between atoms: N_19  and  C_20
REMARK                            x       y       z     vdW  Elec       q    Type
REMARK                         _______ _______ _______ _____ _____    ______ ____
ROOT
ATOM      1  C   UNL     1      -1.629  10.780  18.644  0.00  0.00    +0.000 A 
ATOM      2  N   UNL     1      -2.002  11.780  19.478  0.00  0.00    +0.000 NA
ATOM      3  C   UNL     1      -1.350  11.976  20.657  0.00  0.00    +0.000 A 
ATOM      4  N   UNL     1      -1.732  13.011  21.474  0.00  0.00    +0.000 N 
ATOM      5  C   UNL     1      -0.808  13.686  22.384  0.00  0.00    +0.000 C 
ATOM      6  C   UNL     1      -1.427  13.747  23.785  0.00  0.00    +0.000 C 
ATOM      7  O   UNL     1      -2.736  14.349  23.756  0.00  0.00    +0.000 OA
ATOM      8  C   UNL     1      -3.615  13.604  22.893  0.00  0.00    +0.000 C 
ATOM      9  C   UNL     1      -3.087  13.550  21.446  0.00  0.00    +0.000 C 
ATOM     10  C   UNL     1      -0.337  11.049  20.989  0.00  0.00    +0.000 A 
ATOM     11  N   UNL     1       0.418  10.878  22.133  0.00  0.00    +0.000 NA
ATOM     12  C   UNL     1       1.136   9.803  21.905  0.00  0.00    +0.000 A 
ATOM     13  N   UNL     1       0.917   9.270  20.651  0.00  0.00    +0.000 N 
ATOM     14  C   UNL     1      -0.041  10.070  20.055  0.00  0.00    +0.000 A 
ATOM     15  N   UNL     1      -0.638   9.894  18.867  0.00  0.00    +0.000 NA
ENDROOT
BRANCH  13  16
ATOM     16  C   UNL     1       1.531   8.107  20.122  0.00  0.00    +0.000 A 
ATOM     17  C   UNL     1       1.480   6.903  20.843  0.00  0.00    +0.000 A 
ATOM     18  C   UNL     1       2.048   5.748  20.303  0.00  0.00    +0.000 A 
ATOM     19  C   UNL     1       2.692   5.809  19.072  0.00  0.00    +0.000 A 
ATOM     20  F   UNL     1       3.239   4.698  18.562  0.00  0.00    +0.000 F 
ATOM     21  C   UNL     1       2.770   6.997  18.362  0.00  0.00    +0.000 A 
ATOM     22  C   UNL     1       2.177   8.152  18.878  0.00  0.00    +0.000 A 
ENDBRANCH  13  16
BRANCH   1  26
ATOM     23  C   UNL     1      -3.848  10.359  14.957  0.00  0.00    +0.000 A 
ATOM     24  C   UNL     1      -2.672   9.638  15.160  0.00  0.00    +0.000 A 
ATOM     25  C   UNL     1      -1.959   9.762  16.360  0.00  0.00    +0.000 A 
ATOM     26  C   UNL     1      -2.389  10.624  17.384  0.00  0.00    +0.000 A 
ATOM     27  C   UNL     1      -3.574  11.350  17.148  0.00  0.00    +0.000 A 
ATOM     28  C   UNL     1      -4.295  11.221  15.953  0.00  0.00    +0.000 A 
BRANCH  23  30
ATOM     29  C   UNL     1      -3.600   9.702  12.703  0.00  0.00    +0.000 C 
ATOM     30  O   UNL     1      -4.448  10.176  13.743  0.00  0.00    +0.000 OA
ENDBRANCH  23  30
ENDBRANCH   1  26
TORSDOF 3
ENDMDL
MODEL 2
REMARK VINA RESULT:      -7.0      4.311      6.273
REMARK  Name = 
REMARK  4 active torsions:
REMARK  status: ('A' for Active; 'I' for Inactive)
REMARK    1  A    between atoms: C_1  and  O_2
REMARK    2  A    between atoms: O_2  and  C_3
REMARK    3  A    between atoms: C_6  and  C_7
REMARK    4  A    between atoms: N_19  and  C_20
REMARK                            x       y       z     vdW  Elec       q    Type
REMARK                         _______ _______ _______ _____ _____    ______ ____
ROOT
ATOM      1  C   UNL     1      -1.604  12.107  19.224  0.00  0.00    +0.000 A 
ATOM      2  N   UNL     1      -0.306  12.454  19.057  0.00  0.00    +0.000 NA
ATOM      3  C   UNL     1       0.386  13.047  20.068  0.00  0.00    +0.000 A 
ATOM      4  N   UNL     1       1.708  13.367  19.883  0.00  0.00    +0.000 N 
ATOM      5  C   UNL     1       2.674  13.419  20.979  0.00  0.00    +0.000 C 
ATOM      6  C   UNL     1       3.437  14.747  20.924  0.00  0.00    +0.000 C 
ATOM      7  O   UNL     1       4.035  14.957  19.630  0.00  0.00    +0.000 OA
ATOM      8  C   UNL     1       3.027  14.958  18.601  0.00  0.00    +0.000 C 
ATOM      9  C   UNL     1       2.255  13.626  18.555  0.00  0.00    +0.000 C 
ATOM     10  C   UNL     1      -0.334  13.345  21.247  0.00  0.00    +0.000 A 
ATOM     11  N   UNL     1       0.014  14.040  22.389  0.00  0.00    +0.000 NA
ATOM     12  C   UNL     1      -1.084  14.075  23.108  0.00  0.00    +0.000 A 
ATOM     13  N   UNL     1      -2.136  13.410  22.512  0.00  0.00    +0.000 N 
ATOM     14  C   UNL     1      -1.657  12.939  21.303  0.00  0.00    +0.000 A 
ATOM     15  N   UNL     1      -2.339  12.307  20.335  0.00  0.00    +0.000 NA
ENDROOT
BRANCH  13  16
ATOM     16  C   UNL     1      -3.447  13.286  23.035  0.00  0.00    +0.000 A 
ATOM     17  C   UNL     1      -3.687  12.418  24.113  0.00  0.00    +0.000 A 
ATOM     18  C   UNL     1      -4.970  12.329  24.657  0.00  0.00    +0.000 A 
ATOM     19  C   UNL     1      -6.006  13.071  24.102  0.00  0.00    +0.000 A 
ATOM     20  F   UNL     1      -7.235  12.976  24.625  0.00  0.00    +0.000 F 
ATOM     21  C   UNL     1      -5.787  13.913  23.022  0.00  0.00    +0.000 A 
ATOM     22  C   UNL     1      -4.500  14.035  22.491  0.00  0.00    +0.000 A 
ENDBRANCH  13  16
BRANCH   1  26
ATOM     23  C   UNL     1      -3.624  10.287  15.862  0.00  0.00    +0.000 A 
ATOM     24  C   UNL     1      -2.311   9.938  16.170  0.00  0.00    +0.000 A 
ATOM     25  C   UNL     1      -1.659  10.515  17.267  0.00  0.00    +0.000 A 
ATOM     26  C   UNL     1      -2.294  11.473  18.077  0.00  0.00    +0.000 A 
ATOM     27  C   UNL     1      -3.617  11.818  17.736  0.00  0.00    +0.000 A 
ATOM     28  C   UNL     1      -4.275  11.235  16.645  0.00  0.00    +0.000 A 
BRANCH  23  30
ATOM     29  C   UNL     1      -3.520   9.990  13.522  0.00  0.00    +0.000 C 
ATOM     30  O   UNL     1      -4.153   9.677  14.759  0.00  0.00    +0.000 OA
ENDBRANCH  23  30
ENDBRANCH   1  26
TORSDOF 3
ENDMDL
MODEL 3
REMARK VINA RESULT:      -6.8      4.209      6.450
REMARK  Name = 
REMARK  4 active torsions:
REMARK  status: ('A' for Active; 'I' for Inactive)
REMARK    1  A    between atoms: C_1  and  O_2
REMARK    2  A    between atoms: O_2  and  C_3
REMARK    3  A    between atoms: C_6  and  C_7
REMARK    4  A    between atoms: N_19  and  C_20
REMARK                            x       y       z     vdW  Elec       q    Type
REMARK                         _______ _______ _______ _____ _____    ______ ____
ROOT
ATOM      1  C   UNL     1      -1.371  12.283  19.630  0.00  0.00    +0.000 A 
ATOM      2  N   UNL     1      -0.097  12.719  19.489  0.00  0.00    +0.000 NA
ATOM      3  C   UNL     1       0.508  13.422  20.485  0.00  0.00    +0.000 A 
ATOM      4  N   UNL     1       1.808  13.832  20.327  0.00  0.00    +0.000 N 
ATOM      5  C   UNL     1       2.722  14.022  21.452  0.00  0.00    +0.000 C 
ATOM      6  C   UNL     1       3.385  15.400  21.343  0.00  0.00    +0.000 C 
ATOM      7  O   UNL     1       4.017  15.580  20.060  0.00  0.00    +0.000 OA
ATOM      8  C   UNL     1       3.053  15.443  18.999  0.00  0.00    +0.000 C 
ATOM      9  C   UNL     1       2.386  14.055  19.007  0.00  0.00    +0.000 C 
ATOM     10  C   UNL     1      -0.279  13.730  21.618  0.00  0.00    +0.000 A 
ATOM     11  N   UNL     1      -0.031  14.515  22.727  0.00  0.00    +0.000 NA
ATOM     12  C   UNL     1      -1.156  14.507  23.403  0.00  0.00    +0.000 A 
ATOM     13  N   UNL     1      -2.130  13.729  22.812  0.00  0.00    +0.000 N 
ATOM     14  C   UNL     1      -1.569  13.227  21.652  0.00  0.00    +0.000 A 
ATOM     15  N   UNL     1      -2.163  12.489  20.701  0.00  0.00    +0.000 NA
ENDROOT
BRANCH  13  16
ATOM     16  C   UNL     1      -3.448  13.535  23.296  0.00  0.00    +0.000 A 
ATOM     17  C   UNL     1      -4.482  14.377  22.856  0.00  0.00    +0.000 A 
ATOM     18  C   UNL     1      -5.788  14.160  23.298  0.00  0.00    +0.000 A 
ATOM     19  C   UNL     1      -6.047  13.134  24.201  0.00  0.00    +0.000 A 
ATOM     20  F   UNL     1      -7.301  12.934  24.625  0.00  0.00    +0.000 F 
ATOM     21  C   UNL     1      -5.030  12.311  24.662  0.00  0.00    +0.000 A 
ATOM     22  C   UNL     1      -3.725  12.499  24.200  0.00  0.00    +0.000 A 
ENDBRANCH  13  16
BRANCH   1  26
ATOM     23  C   UNL     1      -3.110  10.119  16.315  0.00  0.00    +0.000 A 
ATOM     24  C   UNL     1      -1.826   9.814  16.762  0.00  0.00    +0.000 A 
ATOM     25  C   UNL     1      -1.265  10.504  17.844  0.00  0.00    +0.000 A 
ATOM     26  C   UNL     1      -1.965  11.531  18.501  0.00  0.00    +0.000 A 
ATOM     27  C   UNL     1      -3.256  11.828  18.022  0.00  0.00    +0.000 A 
ATOM     28  C   UNL     1      -3.824  11.134  16.945  0.00  0.00    +0.000 A 
BRANCH  23  30
ATOM     29  C   UNL     1      -3.411  10.037  13.974  0.00  0.00    +0.000 C 
ATOM     30  O   UNL     1      -3.547   9.398  15.239  0.00  0.00    +0.000 OA
ENDBRANCH  23  30
ENDBRANCH   1  26
TORSDOF 3
ENDMDL
MODEL 4
REMARK VINA RESULT:      -6.8      3.805      6.693
REMARK  Name = 
REMARK  4 active torsions:
REMARK  status: ('A' for Active; 'I' for Inactive)
REMARK    1  A    between atoms: C_1  and  O_2
REMARK    2  A    between atoms: O_2  and  C_3
REMARK    3  A    between atoms: C_6  and  C_7
REMARK    4  A    between atoms: N_19  and  C_20
REMARK                            x       y       z     vdW  Elec       q    Type
REMARK                         _______ _______ _______ _____ _____    ______ ____
ROOT
ATOM      1  C   UNL     1       0.543  11.115  19.972  0.00  0.00    +0.000 A 
ATOM      2  N   UNL     1       1.401  12.068  20.407  0.00  0.00    +0.000 NA
ATOM      3  C   UNL     1       0.940  13.288  20.796  0.00  0.00    +0.000 A 
ATOM      4  N   UNL     1       1.827  14.229  21.256  0.00  0.00    +0.000 N 
ATOM      5  C   UNL     1       1.458  15.263  22.221  0.00  0.00    +0.000 C 
ATOM      6  C   UNL     1       1.905  16.633  21.696  0.00  0.00    +0.000 C 
ATOM      7  O   UNL     1       3.309  16.637  21.368  0.00  0.00    +0.000 OA
ATOM      8  C   UNL     1       3.597  15.641  20.369  0.00  0.00    +0.000 C 
ATOM      9  C   UNL     1       3.228  14.224  20.850  0.00  0.00    +0.000 C 
ATOM     10  C   UNL     1      -0.445  13.524  20.648  0.00  0.00    +0.000 A 
ATOM     11  N   UNL     1      -1.210  14.662  20.818  0.00  0.00    +0.000 NA
ATOM     12  C   UNL     1      -2.421  14.310  20.451  0.00  0.00    +0.000 A 
ATOM     13  N   UNL     1      -2.503  12.986  20.076  0.00  0.00    +0.000 N 
ATOM     14  C   UNL     1      -1.224  12.472  20.196  0.00  0.00    +0.000 A 
ATOM     15  N   UNL     1      -0.793  11.248  19.858  0.00  0.00    +0.000 NA
ENDROOT
BRANCH  13  16
ATOM     16  C   UNL     1      -3.668  12.320  19.619  0.00  0.00    +0.000 A 
ATOM     17  C   UNL     1      -4.852  12.396  20.371  0.00  0.00    +0.000 A 
ATOM     18  C   UNL     1      -6.012  11.777  19.900  0.00  0.00    +0.000 A 
ATOM     19  C   UNL     1      -5.973  11.058  18.710  0.00  0.00    +0.000 A 
ATOM     20  F   UNL     1      -7.088  10.462  18.267  0.00  0.00    +0.000 F 
ATOM     21  C   UNL     1      -4.804  10.955  17.972  0.00  0.00    +0.000 A 
ATOM     22  C   UNL     1      -3.646  11.598  18.417  0.00  0.00    +0.000 A 
ENDBRANCH  13  16
BRANCH   1  26
ATOM     23  C   UNL     1       2.255   7.336  18.755  0.00  0.00    +0.000 A 
ATOM     24  C   UNL     1       1.871   7.543  20.078  0.00  0.00    +0.000 A 
ATOM     25  C   UNL     1       1.303   8.762  20.472  0.00  0.00    +0.000 A 
ATOM     26  C   UNL     1       1.120   9.815  19.560  0.00  0.00    +0.000 A 
ATOM     27  C   UNL     1       1.527   9.583  18.231  0.00  0.00    +0.000 A 
ATOM     28  C   UNL     1       2.087   8.363  17.831  0.00  0.00    +0.000 A 
BRANCH  23  30
ATOM     29  C   UNL     1       3.731   5.635  19.467  0.00  0.00    +0.000 C 
ATOM     30  O   UNL     1       2.816   6.118  18.488  0.00  0.00    +0.000 OA
ENDBRANCH  23  30
ENDBRANCH   1  26
TORSDOF 3
ENDMDL
MODEL 5
REMARK VINA RESULT:      -6.7      1.110      1.226
REMARK  Name = 
REMARK  4 active torsions:
REMARK  status: ('A' for Active; 'I' for Inactive)
REMARK    1  A    between atoms: C_1  and  O_2
REMARK    2  A    between atoms: O_2  and  C_3
REMARK    3  A    between atoms: C_6  and  C_7
REMARK    4  A    between atoms: N_19  and  C_20
REMARK                            x       y       z     vdW  Elec       q    Type
REMARK                         _______ _______ _______ _____ _____    ______ ____
ROOT
ATOM      1  C   UNL     1      -2.030  10.771  17.790  0.00  0.00    +0.000 A 
ATOM      2  N   UNL     1      -2.663  11.628  18.626  0.00  0.00    +0.000 NA
ATOM      3  C   UNL     1      -2.156  11.889  19.862  0.00  0.00    +0.000 A 
ATOM      4  N   UNL     1      -2.803  12.779  20.681  0.00  0.00    +0.000 N 
ATOM      5  C   UNL     1      -2.110  13.577  21.691  0.00  0.00    +0.000 C 
ATOM      6  C   UNL     1      -2.832  13.437  23.036  0.00  0.00    +0.000 C 
ATOM      7  O   UNL     1      -4.231  13.761  22.918  0.00  0.00    +0.000 OA
ATOM      8  C   UNL     1      -4.870  12.900  21.957  0.00  0.00    +0.000 C 
ATOM      9  C   UNL     1      -4.235  13.032  20.559  0.00  0.00    +0.000 C 
ATOM     10  C   UNL     1      -1.001  11.170  20.244  0.00  0.00    +0.000 A 
ATOM     11  N   UNL     1      -0.316  11.094  21.441  0.00  0.00    +0.000 NA
ATOM     12  C   UNL     1       0.624  10.201  21.234  0.00  0.00    +0.000 A 
ATOM     13  N   UNL     1       0.615   9.703  19.948  0.00  0.00    +0.000 N 
ATOM     14  C   UNL     1      -0.440  10.323  19.302  0.00  0.00    +0.000 A 
ATOM     15  N   UNL     1      -0.897  10.094  18.062  0.00  0.00    +0.000 NA
ENDROOT
BRANCH  13  16
ATOM     16  C   UNL     1       1.494   8.719  19.429  0.00  0.00    +0.000 A 
ATOM     17  C   UNL     1       1.773   7.568  20.184  0.00  0.00    +0.000 A 
ATOM     18  C   UNL     1       2.605   6.579  19.656  0.00  0.00    +0.000 A 
ATOM     19  C   UNL     1       3.180   6.761  18.403  0.00  0.00    +0.000 A 
ATOM     20  F   UNL     1       3.981   5.810  17.905  0.00  0.00    +0.000 F 
ATOM     21  C   UNL     1       2.932   7.904  17.659  0.00  0.00    +0.000 A 
ATOM     22  C   UNL     1       2.075   8.885  18.164  0.00  0.00    +0.000 A 
ENDBRANCH  13  16
BRANCH   1  26
ATOM     23  C   UNL     1      -3.824  10.107  13.913  0.00  0.00    +0.000 A 
ATOM     24  C   UNL     1      -2.640   9.460  14.263  0.00  0.00    +0.000 A 
ATOM     25  C   UNL     1      -2.064   9.663  15.524  0.00  0.00    +0.000 A 
ATOM     26  C   UNL     1      -2.644  10.532  16.464  0.00  0.00    +0.000 A 
ATOM     27  C   UNL     1      -3.834  11.182  16.081  0.00  0.00    +0.000 A 
ATOM     28  C   UNL     1      -4.418  10.975  14.824  0.00  0.00    +0.000 A 
BRANCH  23  30
ATOM     29  C   UNL     1      -5.613   9.346  12.571  0.00  0.00    +0.000 C 
ATOM     30  O   UNL     1      -4.284   9.851  12.651  0.00  0.00    +0.000 OA
ENDBRANCH  23  30
ENDBRANCH   1  26
TORSDOF 3
ENDMDL
MODEL 6
REMARK VINA RESULT:      -6.6      4.103      6.585
REMARK  Name = 
REMARK  4 active torsions:
REMARK  status: ('A' for Active; 'I' for Inactive)
REMARK    1  A    between atoms: C_1  and  O_2
REMARK    2  A    between atoms: O_2  and  C_3
REMARK    3  A    between atoms: C_6  and  C_7
REMARK    4  A    between atoms: N_19  and  C_20
REMARK                            x       y       z     vdW  Elec       q    Type
REMARK                         _______ _______ _______ _____ _____    ______ ____
ROOT
ATOM      1  C   UNL     1      -0.923  12.475  19.843  0.00  0.00    +0.000 A 
ATOM      2  N   UNL     1       0.334  12.973  19.761  0.00  0.00    +0.000 NA
ATOM      3  C   UNL     1       0.837  13.746  20.762  0.00  0.00    +0.000 A 
ATOM      4  N   UNL     1       2.122  14.219  20.667  0.00  0.00    +0.000 N 
ATOM      5  C   UNL     1       2.952  14.503  21.837  0.00  0.00    +0.000 C 
ATOM      6  C   UNL     1       3.549  15.909  21.710  0.00  0.00    +0.000 C 
ATOM      7  O   UNL     1       4.251  16.072  20.462  0.00  0.00    +0.000 OA
ATOM      8  C   UNL     1       3.366  15.841  19.350  0.00  0.00    +0.000 C 
ATOM      9  C   UNL     1       2.771  14.420  19.376  0.00  0.00    +0.000 C 
ATOM     10  C   UNL     1      -0.035  14.057  21.829  0.00  0.00    +0.000 A 
ATOM     11  N   UNL     1       0.102  14.898  22.917  0.00  0.00    +0.000 NA
ATOM     12  C   UNL     1      -1.063  14.856  23.522  0.00  0.00    +0.000 A 
ATOM     13  N   UNL     1      -1.956  14.003  22.907  0.00  0.00    +0.000 N 
ATOM     14  C   UNL     1      -1.297  13.487  21.806  0.00  0.00    +0.000 A 
ATOM     15  N   UNL     1      -1.790  12.681  20.853  0.00  0.00    +0.000 NA
ENDROOT
BRANCH  13  16
ATOM     16  C   UNL     1      -3.290  13.758  23.316  0.00  0.00    +0.000 A 
ATOM     17  C   UNL     1      -3.597  12.583  24.022  0.00  0.00    +0.000 A 
ATOM     18  C   UNL     1      -4.903  12.361  24.463  0.00  0.00    +0.000 A 
ATOM     19  C   UNL     1      -5.896  13.288  24.166  0.00  0.00    +0.000 A 
ATOM     20  F   UNL     1      -7.148  13.066  24.587  0.00  0.00    +0.000 F 
ATOM     21  C   UNL     1      -5.611  14.440  23.448  0.00  0.00    +0.000 A 
ATOM     22  C   UNL     1      -4.301  14.688  23.030  0.00  0.00    +0.000 A 
ENDBRANCH  13  16
BRANCH   1  26
ATOM     23  C   UNL     1      -2.328  10.034  16.562  0.00  0.00    +0.000 A 
ATOM     24  C   UNL     1      -3.010  11.196  16.920  0.00  0.00    +0.000 A 
ATOM     25  C   UNL     1      -2.549  11.996  17.974  0.00  0.00    +0.000 A 
ATOM     26  C   UNL     1      -1.404  11.649  18.712  0.00  0.00    +0.000 A 
ATOM     27  C   UNL     1      -0.741  10.463  18.338  0.00  0.00    +0.000 A 
ATOM     28  C   UNL     1      -1.194   9.665  17.279  0.00  0.00    +0.000 A 
BRANCH  23  30
ATOM     29  C   UNL     1      -3.511  10.094  14.519  0.00  0.00    +0.000 C 
ATOM     30  O   UNL     1      -2.880   9.321  15.535  0.00  0.00    +0.000 OA
ENDBRANCH  23  30
ENDBRANCH   1  26
TORSDOF 3
ENDMDL
MODEL 7
REMARK VINA RESULT:      -6.6      4.518      6.879
REMARK  Name = 
REMARK  4 active torsions:
REMARK  status: ('A' for Active; 'I' for Inactive)
REMARK    1  A    between atoms: C_1  and  O_2
REMARK    2  A    between atoms: O_2  and  C_3
REMARK    3  A    between atoms: C_6  and  C_7
REMARK    4  A    between atoms: N_19  and  C_20
REMARK                            x       y       z     vdW  Elec       q    Type
REMARK                         _______ _______ _______ _____ _____    ______ ____
ROOT
ATOM      1  C   UNL     1      -2.410  13.628  20.901  0.00  0.00    +0.000 A 
ATOM      2  N   UNL     1      -3.270  13.936  21.901  0.00  0.00    +0.000 NA
ATOM      3  C   UNL     1      -4.518  13.394  21.931  0.00  0.00    +0.000 A 
ATOM      4  N   UNL     1      -5.362  13.703  22.968  0.00  0.00    +0.000 N 
ATOM      5  C   UNL     1      -6.404  12.793  23.440  0.00  0.00    +0.000 C 
ATOM      6  C   UNL     1      -7.738  13.544  23.524  0.00  0.00    +0.000 C 
ATOM      7  O   UNL     1      -7.620  14.737  24.323  0.00  0.00    +0.000 OA
ATOM      8  C   UNL     1      -6.625  15.619  23.771  0.00  0.00    +0.000 C 
ATOM      9  C   UNL     1      -5.238  14.951  23.712  0.00  0.00    +0.000 C 
ATOM     10  C   UNL     1      -4.884  12.574  20.840  0.00  0.00    +0.000 A 
ATOM     11  N   UNL     1      -6.083  11.982  20.493  0.00  0.00    +0.000 NA
ATOM     12  C   UNL     1      -5.853  11.413  19.332  0.00  0.00    +0.000 A 
ATOM     13  N   UNL     1      -4.551  11.572  18.907  0.00  0.00    +0.000 N 
ATOM     14  C   UNL     1      -3.919  12.328  19.878  0.00  0.00    +0.000 A 
ATOM     15  N   UNL     1      -2.668  12.812  19.861  0.00  0.00    +0.000 NA
ENDROOT
BRANCH  13  16
ATOM     16  C   UNL     1      -4.006  11.085  17.692  0.00  0.00    +0.000 A 
ATOM     17  C   UNL     1      -4.507  11.554  16.467  0.00  0.00    +0.000 A 
ATOM     18  C   UNL     1      -3.942  11.107  15.271  0.00  0.00    +0.000 A 
ATOM     19  C   UNL     1      -2.913  10.173  15.304  0.00  0.00    +0.000 A 
ATOM     20  F   UNL     1      -2.380   9.744  14.152  0.00  0.00    +0.000 F 
ATOM     21  C   UNL     1      -2.426   9.683  16.506  0.00  0.00    +0.000 A 
ATOM     22  C   UNL     1      -2.962  10.148  17.710  0.00  0.00    +0.000 A 
ENDBRANCH  13  16
BRANCH   1  26
ATOM     23  C   UNL     1       1.508  15.454  21.016  0.00  0.00    +0.000 A 
ATOM     24  C   UNL     1       0.948  15.059  19.803  0.00  0.00    +0.000 A 
ATOM     25  C   UNL     1      -0.326  14.480  19.761  0.00  0.00    +0.000 A 
ATOM     26  C   UNL     1      -1.072  14.262  20.933  0.00  0.00    +0.000 A 
ATOM     27  C   UNL     1      -0.478  14.659  22.147  0.00  0.00    +0.000 A 
ATOM     28  C   UNL     1       0.793  15.247  22.192  0.00  0.00    +0.000 A 
BRANCH  23  30
ATOM     29  C   UNL     1       3.435  15.804  19.697  0.00  0.00    +0.000 C 
ATOM     30  O   UNL     1       2.764  15.987  20.940  0.00  0.00    +0.000 OA
ENDBRANCH  23  30
ENDBRANCH   1  26
TORSDOF 3
ENDMDL
MODEL 8
REMARK VINA RESULT:      -6.5      4.284      6.524
REMARK  Name = 
REMARK  4 active torsions:
REMARK  status: ('A' for Active; 'I' for Inactive)
REMARK    1  A    between atoms: C_1  and  O_2
REMARK    2  A    between atoms: O_2  and  C_3
REMARK    3  A    between atoms: C_6  and  C_7
REMARK    4  A    between atoms: N_19  and  C_20
REMARK                            x       y       z     vdW  Elec       q    Type
REMARK                         _______ _______ _______ _____ _____    ______ ____
ROOT
ATOM      1  C   UNL     1      -0.943  13.733  20.414  0.00  0.00    +0.000 A 
ATOM      2  N   UNL     1      -1.559  14.293  21.482  0.00  0.00    +0.000 NA
ATOM      3  C   UNL     1      -2.864  14.014  21.752  0.00  0.00    +0.000 A 
ATOM      4  N   UNL     1      -3.459  14.576  22.854  0.00  0.00    +0.000 N 
ATOM      5  C   UNL     1      -4.559  13.937  23.574  0.00  0.00    +0.000 C 
ATOM      6  C   UNL     1      -5.702  14.942  23.755  0.00  0.00    +0.000 C 
ATOM      7  O   UNL     1      -5.241  16.155  24.383  0.00  0.00    +0.000 OA
ATOM      8  C   UNL     1      -4.204  16.769  23.594  0.00  0.00    +0.000 C 
ATOM      9  C   UNL     1      -2.990  15.836  23.419  0.00  0.00    +0.000 C 
ATOM     10  C   UNL     1      -3.545  13.188  20.830  0.00  0.00    +0.000 A 
ATOM     11  N   UNL     1      -4.872  12.817  20.729  0.00  0.00    +0.000 NA
ATOM     12  C   UNL     1      -4.940  12.112  19.623  0.00  0.00    +0.000 A 
ATOM     13  N   UNL     1      -3.717  11.971  19.002  0.00  0.00    +0.000 N 
ATOM     14  C   UNL     1      -2.809  12.671  19.777  0.00  0.00    +0.000 A 
ATOM     15  N   UNL     1      -1.510  12.894  19.525  0.00  0.00    +0.000 NA
ENDROOT
BRANCH  13  16
ATOM     16  C   UNL     1      -3.473  11.278  17.789  0.00  0.00    +0.000 A 
ATOM     17  C   UNL     1      -4.242  11.575  16.653  0.00  0.00    +0.000 A 
ATOM     18  C   UNL     1      -3.975  10.924  15.446  0.00  0.00    +0.000 A 
ATOM     19  C   UNL     1      -2.974   9.961  15.392  0.00  0.00    +0.000 A 
ATOM     20  F   UNL     1      -2.726   9.337  14.234  0.00  0.00    +0.000 F 
ATOM     21  C   UNL     1      -2.224   9.641  16.514  0.00  0.00    +0.000 A 
ATOM     22  C   UNL     1      -2.462  10.310  17.718  0.00  0.00    +0.000 A 
ENDBRANCH  13  16
BRANCH   1  26
ATOM     23  C   UNL     1       3.206  14.738  19.731  0.00  0.00    +0.000 A 
ATOM     24  C   UNL     1       2.214  15.216  18.876  0.00  0.00    +0.000 A 
ATOM     25  C   UNL     1       0.868  14.903  19.103  0.00  0.00    +0.000 A 
ATOM     26  C   UNL     1       0.475  14.089  20.180  0.00  0.00    +0.000 A 
ATOM     27  C   UNL     1       1.499  13.610  21.021  0.00  0.00    +0.000 A 
ATOM     28  C   UNL     1       2.846  13.928  20.803  0.00  0.00    +0.000 A 
BRANCH  23  30
ATOM     29  C   UNL     1       4.905  14.722  18.091  0.00  0.00    +0.000 C 
ATOM     30  O   UNL     1       4.486  15.088  19.401  0.00  0.00    +0.000 OA
ENDBRANCH  23  30
ENDBRANCH   1  26
TORSDOF 3
ENDMDL
MODEL 9
REMARK VINA RESULT:      -6.5      4.137      5.973
REMARK  Name = 
REMARK  4 active torsions:
REMARK  status: ('A' for Active; 'I' for Inactive)
REMARK    1  A    between atoms: C_1  and  O_2
REMARK    2  A    between atoms: O_2  and  C_3
REMARK    3  A    between atoms: C_6  and  C_7
REMARK    4  A    between atoms: N_19  and  C_20
REMARK                            x       y       z     vdW  Elec       q    Type
REMARK                         _______ _______ _______ _____ _____    ______ ____
ROOT
ATOM      1  C   UNL     1       2.131  13.583  20.521  0.00  0.00    +0.000 A 
ATOM      2  N   UNL     1       1.230  14.289  21.244  0.00  0.00    +0.000 NA
ATOM      3  C   UNL     1       0.146  13.673  21.790  0.00  0.00    +0.000 A 
ATOM      4  N   UNL     1      -0.740  14.406  22.539  0.00  0.00    +0.000 N 
ATOM      5  C   UNL     1      -1.533  13.827  23.622  0.00  0.00    +0.000 C 
ATOM      6  C   UNL     1      -3.007  14.207  23.435  0.00  0.00    +0.000 C 
ATOM      7  O   UNL     1      -3.170  15.634  23.312  0.00  0.00    +0.000 OA
ATOM      8  C   UNL     1      -2.416  16.134  22.191  0.00  0.00    +0.000 C 
ATOM      9  C   UNL     1      -0.910  15.841  22.338  0.00  0.00    +0.000 C 
ATOM     10  C   UNL     1      -0.023  12.301  21.498  0.00  0.00    +0.000 A 
ATOM     11  N   UNL     1      -1.050  11.419  21.774  0.00  0.00    +0.000 NA
ATOM     12  C   UNL     1      -0.700  10.300  21.182  0.00  0.00    +0.000 A 
ATOM     13  N   UNL     1       0.525  10.388  20.553  0.00  0.00    +0.000 N 
ATOM     14  C   UNL     1       0.966  11.684  20.750  0.00  0.00    +0.000 A 
ATOM     15  N   UNL     1       2.066  12.265  20.249  0.00  0.00    +0.000 NA
ENDROOT
BRANCH  13  16
ATOM     16  C   UNL     1       1.161   9.354  19.821  0.00  0.00    +0.000 A 
ATOM     17  C   UNL     1       1.353   9.498  18.437  0.00  0.00    +0.000 A 
ATOM     18  C   UNL     1       2.018   8.499  17.723  0.00  0.00    +0.000 A 
ATOM     19  C   UNL     1       2.450   7.354  18.382  0.00  0.00    +0.000 A 
ATOM     20  F   UNL     1       3.082   6.398  17.690  0.00  0.00    +0.000 F 
ATOM     21  C   UNL     1       2.245   7.189  19.744  0.00  0.00    +0.000 A 
ATOM     22  C   UNL     1       1.610   8.197  20.474  0.00  0.00    +0.000 A 
ENDBRANCH  13  16
BRANCH   1  26
ATOM     23  C   UNL     1       5.509  15.728  18.883  0.00  0.00    +0.000 A 
ATOM     24  C   UNL     1       4.648  15.021  18.045  0.00  0.00    +0.000 A 
ATOM     25  C   UNL     1       3.545  14.337  18.572  0.00  0.00    +0.000 A 
ATOM     26  C   UNL     1       3.280  14.323  19.952  0.00  0.00    +0.000 A 
ATOM     27  C   UNL     1       4.173  15.036  20.778  0.00  0.00    +0.000 A 
ATOM     28  C   UNL     1       5.272  15.729  20.254  0.00  0.00    +0.000 A 
BRANCH  23  30
ATOM     29  C   UNL     1       7.722  15.532  18.083  0.00  0.00    +0.000 C 
ATOM     30  O   UNL     1       6.563  16.339  18.263  0.00  0.00    +0.000 OA
ENDBRANCH  23  30
ENDBRANCH   1  26
TORSDOF 3
ENDMDL
