MODEL 1
REMARK VINA RESULT:      -7.3      0.000      0.000
REMARK  Name = 
REMARK  1 active torsions:
REMARK  status: ('A' for Active; 'I' for Inactive)
REMARK    1  A    between atoms: C_1  and  C_2
REMARK                            x       y       z     vdW  Elec       q    Type
REMARK                         _______ _______ _______ _____ _____    ______ ____
ROOT
ATOM      1  C   UNL     1       7.083   4.876  14.130  0.00  0.00    +0.000 C 
ATOM      2  C   UNL     1       6.081   4.988  15.233  0.00  0.00    +0.000 C 
ATOM      3  N   UNL     1       5.725   3.948  15.934  0.00  0.00    +0.000 NA
ATOM      4  C   UNL     1       4.827   4.493  17.012  0.00  0.00    +0.000 C 
ATOM      5  C   UNL     1       5.590   4.381  18.341  0.00  0.00    +0.000 C 
ATOM      6  C   UNL     1       4.759   4.881  19.518  0.00  0.00    +0.000 C 
ATOM      7  C   UNL     1       3.341   4.370  19.507  0.00  0.00    +0.000 A 
ATOM      8  C   UNL     1       2.566   4.493  20.671  0.00  0.00    +0.000 A 
ATOM      9  C   UNL     1       1.262   4.007  20.712  0.00  0.00    +0.000 A 
ATOM     10  C   UNL     1       0.714   3.393  19.591  0.00  0.00    +0.000 A 
ATOM     11  C   UNL     1       1.462   3.290  18.419  0.00  0.00    +0.000 A 
ATOM     12  C   UNL     1       2.770   3.794  18.357  0.00  0.00    +0.000 A 
ATOM     13  C   UNL     1       3.555   3.631  17.075  0.00  0.00    +0.000 C 
ATOM     14  C   UNL     1       4.544   5.964  16.614  0.00  0.00    +0.000 C 
ATOM     15  N   UNL     1       5.516   6.192  15.561  0.00  0.00    +0.000 N 
ATOM     16  H   UNL     1       6.156   6.967  15.675  0.00  0.00    +0.000 HD
ENDROOT
TORSDOF 0
ENDMDL
MODEL 2
REMARK VINA RESULT:      -7.3      1.795      2.694
REMARK  Name = 
REMARK  1 active torsions:
REMARK  status: ('A' for Active; 'I' for Inactive)
REMARK    1  A    between atoms: C_1  and  C_2
REMARK                            x       y       z     vdW  Elec       q    Type
REMARK                         _______ _______ _______ _____ _____    ______ ____
ROOT
ATOM      1  C   UNL     1       7.831   7.838  17.451  0.00  0.00    +0.000 C 
ATOM      2  C   UNL     1       6.848   6.778  17.834  0.00  0.00    +0.000 C 
ATOM      3  N   UNL     1       5.579   6.902  17.563  0.00  0.00    +0.000 NA
ATOM      4  C   UNL     1       4.963   5.591  17.974  0.00  0.00    +0.000 C 
ATOM      5  C   UNL     1       4.555   4.855  16.689  0.00  0.00    +0.000 C 
ATOM      6  C   UNL     1       3.889   3.515  16.988  0.00  0.00    +0.000 C 
ATOM      7  C   UNL     1       2.853   3.595  18.080  0.00  0.00    +0.000 A 
ATOM      8  C   UNL     1       1.956   2.528  18.243  0.00  0.00    +0.000 A 
ATOM      9  C   UNL     1       0.965   2.575  19.221  0.00  0.00    +0.000 A 
ATOM     10  C   UNL     1       0.859   3.687  20.049  0.00  0.00    +0.000 A 
ATOM     11  C   UNL     1       1.761   4.741  19.917  0.00  0.00    +0.000 A 
ATOM     12  C   UNL     1       2.777   4.698  18.950  0.00  0.00    +0.000 A 
ATOM     13  C   UNL     1       3.713   5.879  18.822  0.00  0.00    +0.000 C 
ATOM     14  C   UNL     1       6.069   4.841  18.760  0.00  0.00    +0.000 C 
ATOM     15  N   UNL     1       7.249   5.631  18.465  0.00  0.00    +0.000 N 
ATOM     16  H   UNL     1       8.042   5.153  18.056  0.00  0.00    +0.000 HD
ENDROOT
TORSDOF 0
ENDMDL
MODEL 3
REMARK VINA RESULT:      -7.0      2.215      5.390
REMARK  Name = 
REMARK  1 active torsions:
REMARK  status: ('A' for Active; 'I' for Inactive)
REMARK    1  A    between atoms: C_1  and  C_2
REMARK                            x       y       z     vdW  Elec       q    Type
REMARK                         _______ _______ _______ _____ _____    ______ ____
ROOT
ATOM      1  C   UNL     1       1.222   2.932  21.295  0.00  0.00    +0.000 C 
ATOM      2  C   UNL     1       2.405   3.126  20.400  0.00  0.00    +0.000 C 
ATOM      3  N   UNL     1       2.399   4.023  19.455  0.00  0.00    +0.000 NA
ATOM      4  C   UNL     1       3.793   4.001  18.888  0.00  0.00    +0.000 C 
ATOM      5  C   UNL     1       4.478   5.311  19.307  0.00  0.00    +0.000 C 
ATOM      6  C   UNL     1       5.899   5.411  18.760  0.00  0.00    +0.000 C 
ATOM      7  C   UNL     1       6.006   5.026  17.306  0.00  0.00    +0.000 A 
ATOM      8  C   UNL     1       7.171   5.362  16.600  0.00  0.00    +0.000 A 
ATOM      9  C   UNL     1       7.297   5.052  15.248  0.00  0.00    +0.000 A 
ATOM     10  C   UNL     1       6.263   4.401  14.585  0.00  0.00    +0.000 A 
ATOM     11  C   UNL     1       5.112   4.036  15.281  0.00  0.00    +0.000 A 
ATOM     12  C   UNL     1       4.980   4.324  16.649  0.00  0.00    +0.000 A 
ATOM     13  C   UNL     1       3.699   3.937  17.355  0.00  0.00    +0.000 C 
ATOM     14  C   UNL     1       4.474   2.753  19.507  0.00  0.00    +0.000 C 
ATOM     15  N   UNL     1       3.543   2.381  20.556  0.00  0.00    +0.000 N 
ATOM     16  H   UNL     1       3.905   2.313  21.498  0.00  0.00    +0.000 HD
ENDROOT
TORSDOF 0
ENDMDL
MODEL 4
REMARK VINA RESULT:      -6.9      1.214      2.003
REMARK  Name = 
REMARK  1 active torsions:
REMARK  status: ('A' for Active; 'I' for Inactive)
REMARK    1  A    between atoms: C_1  and  C_2
REMARK                            x       y       z     vdW  Elec       q    Type
REMARK                         _______ _______ _______ _____ _____    ______ ____
ROOT
ATOM      1  C   UNL     1       7.439   5.099  14.070  0.00  0.00    +0.000 C 
ATOM      2  C   UNL     1       6.689   4.982  15.358  0.00  0.00    +0.000 C 
ATOM      3  N   UNL     1       5.397   5.149  15.407  0.00  0.00    +0.000 NA
ATOM      4  C   UNL     1       5.014   4.816  16.824  0.00  0.00    +0.000 C 
ATOM      5  C   UNL     1       4.241   3.489  16.789  0.00  0.00    +0.000 C 
ATOM      6  C   UNL     1       3.775   3.065  18.177  0.00  0.00    +0.000 C 
ATOM      7  C   UNL     1       3.154   4.189  18.967  0.00  0.00    +0.000 A 
ATOM      8  C   UNL     1       2.412   3.879  20.118  0.00  0.00    +0.000 A 
ATOM      9  C   UNL     1       1.797   4.886  20.858  0.00  0.00    +0.000 A 
ATOM     10  C   UNL     1       1.916   6.213  20.460  0.00  0.00    +0.000 A 
ATOM     11  C   UNL     1       2.673   6.537  19.336  0.00  0.00    +0.000 A 
ATOM     12  C   UNL     1       3.316   5.535  18.592  0.00  0.00    +0.000 A 
ATOM     13  C   UNL     1       4.100   5.930  17.361  0.00  0.00    +0.000 C 
ATOM     14  C   UNL     1       6.351   4.702  17.600  0.00  0.00    +0.000 C 
ATOM     15  N   UNL     1       7.329   4.676  16.529  0.00  0.00    +0.000 N 
ATOM     16  H   UNL     1       7.966   3.890  16.496  0.00  0.00    +0.000 HD
ENDROOT
TORSDOF 0
ENDMDL
MODEL 5
REMARK VINA RESULT:      -6.8      2.547      5.369
REMARK  Name = 
REMARK  1 active torsions:
REMARK  status: ('A' for Active; 'I' for Inactive)
REMARK    1  A    between atoms: C_1  and  C_2
REMARK                            x       y       z     vdW  Elec       q    Type
REMARK                         _______ _______ _______ _____ _____    ______ ____
ROOT
ATOM      1  C   UNL     1       0.804   2.404  19.555  0.00  0.00    +0.000 C 
ATOM      2  C   UNL     1       1.850   3.453  19.351  0.00  0.00    +0.000 C 
ATOM      3  N   UNL     1       2.998   3.167  18.804  0.00  0.00    +0.000 NA
ATOM      4  C   UNL     1       3.697   4.492  18.652  0.00  0.00    +0.000 C 
ATOM      5  C   UNL     1       3.739   4.817  17.151  0.00  0.00    +0.000 C 
ATOM      6  C   UNL     1       4.456   6.134  16.874  0.00  0.00    +0.000 C 
ATOM      7  C   UNL     1       5.750   6.280  17.633  0.00  0.00    +0.000 A 
ATOM      8  C   UNL     1       6.654   7.282  17.247  0.00  0.00    +0.000 A 
ATOM      9  C   UNL     1       7.873   7.430  17.902  0.00  0.00    +0.000 A 
ATOM     10  C   UNL     1       8.205   6.581  18.953  0.00  0.00    +0.000 A 
ATOM     11  C   UNL     1       7.304   5.601  19.366  0.00  0.00    +0.000 A 
ATOM     12  C   UNL     1       6.063   5.453  18.727  0.00  0.00    +0.000 A 
ATOM     13  C   UNL     1       5.132   4.354  19.188  0.00  0.00    +0.000 C 
ATOM     14  C   UNL     1       2.845   5.507  19.455  0.00  0.00    +0.000 C 
ATOM     15  N   UNL     1       1.632   4.755  19.714  0.00  0.00    +0.000 N 
ATOM     16  H   UNL     1       0.756   5.161  19.410  0.00  0.00    +0.000 HD
ENDROOT
TORSDOF 0
ENDMDL
MODEL 6
REMARK VINA RESULT:      -6.8      1.861      2.530
REMARK  Name = 
REMARK  1 active torsions:
REMARK  status: ('A' for Active; 'I' for Inactive)
REMARK    1  A    between atoms: C_1  and  C_2
REMARK                            x       y       z     vdW  Elec       q    Type
REMARK                         _______ _______ _______ _____ _____    ______ ____
ROOT
ATOM      1  C   UNL     1       7.866   7.824  17.413  0.00  0.00    +0.000 C 
ATOM      2  C   UNL     1       6.677   6.919  17.358  0.00  0.00    +0.000 C 
ATOM      3  N   UNL     1       6.155   6.421  18.443  0.00  0.00    +0.000 NA
ATOM      4  C   UNL     1       4.918   5.696  17.983  0.00  0.00    +0.000 C 
ATOM      5  C   UNL     1       3.706   6.497  18.483  0.00  0.00    +0.000 C 
ATOM      6  C   UNL     1       2.387   5.835  18.096  0.00  0.00    +0.000 C 
ATOM      7  C   UNL     1       2.369   4.350  18.352  0.00  0.00    +0.000 A 
ATOM      8  C   UNL     1       1.138   3.675  18.337  0.00  0.00    +0.000 A 
ATOM      9  C   UNL     1       1.074   2.308  18.599  0.00  0.00    +0.000 A 
ATOM     10  C   UNL     1       2.237   1.599  18.876  0.00  0.00    +0.000 A 
ATOM     11  C   UNL     1       3.469   2.251  18.866  0.00  0.00    +0.000 A 
ATOM     12  C   UNL     1       3.551   3.623  18.584  0.00  0.00    +0.000 A 
ATOM     13  C   UNL     1       4.905   4.295  18.617  0.00  0.00    +0.000 C 
ATOM     14  C   UNL     1       5.008   5.661  16.436  0.00  0.00    +0.000 C 
ATOM     15  N   UNL     1       6.081   6.599  16.167  0.00  0.00    +0.000 N 
ATOM     16  H   UNL     1       5.881   7.373  15.547  0.00  0.00    +0.000 HD
ENDROOT
TORSDOF 0
ENDMDL
MODEL 7
REMARK VINA RESULT:      -6.6      1.311      2.032
REMARK  Name = 
REMARK  1 active torsions:
REMARK  status: ('A' for Active; 'I' for Inactive)
REMARK    1  A    between atoms: C_1  and  C_2
REMARK                            x       y       z     vdW  Elec       q    Type
REMARK                         _______ _______ _______ _____ _____    ______ ____
ROOT
ATOM      1  C   UNL     1       7.381   5.326  15.427  0.00  0.00    +0.000 C 
ATOM      2  C   UNL     1       6.195   4.828  16.190  0.00  0.00    +0.000 C 
ATOM      3  N   UNL     1       5.991   5.180  17.429  0.00  0.00    +0.000 NA
ATOM      4  C   UNL     1       4.650   4.595  17.783  0.00  0.00    +0.000 C 
ATOM      5  C   UNL     1       3.661   5.764  17.914  0.00  0.00    +0.000 C 
ATOM      6  C   UNL     1       2.265   5.288  18.302  0.00  0.00    +0.000 C 
ATOM      7  C   UNL     1       2.269   4.277  19.420  0.00  0.00    +0.000 A 
ATOM      8  C   UNL     1       1.064   3.991  20.080  0.00  0.00    +0.000 A 
ATOM      9  C   UNL     1       1.030   3.086  21.138  0.00  0.00    +0.000 A 
ATOM     10  C   UNL     1       2.199   2.455  21.550  0.00  0.00    +0.000 A 
ATOM     11  C   UNL     1       3.398   2.708  20.885  0.00  0.00    +0.000 A 
ATOM     12  C   UNL     1       3.442   3.602  19.804  0.00  0.00    +0.000 A 
ATOM     13  C   UNL     1       4.771   3.871  19.134  0.00  0.00    +0.000 C 
ATOM     14  C   UNL     1       4.289   3.643  16.614  0.00  0.00    +0.000 C 
ATOM     15  N   UNL     1       5.272   4.001  15.609  0.00  0.00    +0.000 N 
ATOM     16  H   UNL     1       4.929   4.285  14.701  0.00  0.00    +0.000 HD
ENDROOT
TORSDOF 0
ENDMDL
MODEL 8
REMARK VINA RESULT:      -6.5      2.532      5.541
REMARK  Name = 
REMARK  1 active torsions:
REMARK  status: ('A' for Active; 'I' for Inactive)
REMARK    1  A    between atoms: C_1  and  C_2
REMARK                            x       y       z     vdW  Elec       q    Type
REMARK                         _______ _______ _______ _____ _____    ______ ____
ROOT
ATOM      1  C   UNL     1       1.079   2.442  22.320  0.00  0.00    +0.000 C 
ATOM      2  C   UNL     1       1.586   2.959  21.012  0.00  0.00    +0.000 C 
ATOM      3  N   UNL     1       2.838   3.286  20.852  0.00  0.00    +0.000 NA
ATOM      4  C   UNL     1       2.971   3.616  19.389  0.00  0.00    +0.000 C 
ATOM      5  C   UNL     1       3.800   2.497  18.741  0.00  0.00    +0.000 C 
ATOM      6  C   UNL     1       4.024   2.744  17.253  0.00  0.00    +0.000 C 
ATOM      7  C   UNL     1       4.436   4.160  16.939  0.00  0.00    +0.000 A 
ATOM      8  C   UNL     1       4.968   4.445  15.672  0.00  0.00    +0.000 A 
ATOM      9  C   UNL     1       5.389   5.734  15.352  0.00  0.00    +0.000 A 
ATOM     10  C   UNL     1       5.282   6.753  16.292  0.00  0.00    +0.000 A 
ATOM     11  C   UNL     1       4.728   6.490  17.543  0.00  0.00    +0.000 A 
ATOM     12  C   UNL     1       4.281   5.200  17.872  0.00  0.00    +0.000 A 
ATOM     13  C   UNL     1       3.717   4.954  19.253  0.00  0.00    +0.000 C 
ATOM     14  C   UNL     1       1.521   3.672  18.843  0.00  0.00    +0.000 C 
ATOM     15  N   UNL     1       0.758   3.089  19.929  0.00  0.00    +0.000 N 
ATOM     16  H   UNL     1       0.177   2.289  19.715  0.00  0.00    +0.000 HD
ENDROOT
TORSDOF 0
ENDMDL
MODEL 9
REMARK VINA RESULT:      -6.4      2.422      5.568
REMARK  Name = 
REMARK  1 active torsions:
REMARK  status: ('A' for Active; 'I' for Inactive)
REMARK    1  A    between atoms: C_1  and  C_2
REMARK                            x       y       z     vdW  Elec       q    Type
REMARK                         _______ _______ _______ _____ _____    ______ ____
ROOT
ATOM      1  C   UNL     1       1.335   2.522  21.861  0.00  0.00    +0.000 C 
ATOM      2  C   UNL     1       2.075   3.273  20.801  0.00  0.00    +0.000 C 
ATOM      3  N   UNL     1       3.285   2.937  20.451  0.00  0.00    +0.000 NA
ATOM      4  C   UNL     1       3.616   3.828  19.284  0.00  0.00    +0.000 C 
ATOM      5  C   UNL     1       3.648   2.943  18.028  0.00  0.00    +0.000 C 
ATOM      6  C   UNL     1       4.004   3.742  16.779  0.00  0.00    +0.000 C 
ATOM      7  C   UNL     1       5.172   4.673  16.980  0.00  0.00    +0.000 A 
ATOM      8  C   UNL     1       5.797   5.230  15.853  0.00  0.00    +0.000 A 
ATOM      9  C   UNL     1       6.898   6.071  15.994  0.00  0.00    +0.000 A 
ATOM     10  C   UNL     1       7.387   6.370  17.261  0.00  0.00    +0.000 A 
ATOM     11  C   UNL     1       6.758   5.847  18.390  0.00  0.00    +0.000 A 
ATOM     12  C   UNL     1       5.635   5.014  18.263  0.00  0.00    +0.000 A 
ATOM     13  C   UNL     1       5.005   4.444  19.515  0.00  0.00    +0.000 C 
ATOM     14  C   UNL     1       2.484   4.885  19.235  0.00  0.00    +0.000 C 
ATOM     15  N   UNL     1       1.501   4.330  20.146  0.00  0.00    +0.000 N 
ATOM     16  H   UNL     1       0.566   4.177  19.789  0.00  0.00    +0.000 HD
ENDROOT
TORSDOF 0
ENDMDL
