MODEL 1
REMARK VINA RESULT:      -7.3      0.000      0.000
REMARK  Name = 
REMARK  5 active torsions:
REMARK  status: ('A' for Active; 'I' for Inactive)
REMARK    1  A    between atoms: C_1  and  O_2
REMARK    2  A    between atoms: O_2  and  C_3
REMARK    3  A    between atoms: C_6  and  C_7
REMARK    4  A    between atoms: N_9  and  C_10
REMARK    5  A    between atoms: C_15  and  C_16
REMARK                            x       y       z     vdW  Elec       q    Type
REMARK                         _______ _______ _______ _____ _____    ______ ____
ROOT
ATOM      1  C   UNL     1       8.244   9.167  18.207  0.00  0.00    +0.000 C 
ATOM      2  O   UNL     1       7.314   9.612  17.537  0.00  0.00    +0.000 OA
ATOM      3  N   UNL     1       8.373   7.826  18.531  0.00  0.00    +0.000 N 
ATOM      4  H   UNL     1       8.983   7.551  19.295  0.00  0.00    +0.000 HD
ENDROOT
BRANCH   3   5
ATOM      5  C   UNL     1       7.523   6.821  18.083  0.00  0.00    +0.000 A 
ATOM      6  C   UNL     1       7.023   6.705  16.841  0.00  0.00    +0.000 A 
ATOM      7  N   UNL     1       6.135   5.747  16.405  0.00  0.00    +0.000 NA
ATOM      8  C   UNL     1       5.746   4.916  17.307  0.00  0.00    +0.000 A 
ATOM      9  S   UNL     1       4.583   3.669  17.015  0.00  0.00    +0.000 S 
ATOM     10  C   UNL     1       4.752   3.228  18.693  0.00  0.00    +0.000 A 
ATOM     11  C   UNL     1       3.916   2.115  19.224  0.00  0.00    +0.000 C 
ATOM     12  N   UNL     1       5.597   3.906  19.406  0.00  0.00    +0.000 NA
ATOM     13  N   UNL     1       6.169   4.880  18.609  0.00  0.00    +0.000 N 
ATOM     14  C   UNL     1       7.111   5.773  19.086  0.00  0.00    +0.000 A 
ATOM     15  O   UNL     1       7.604   5.792  20.216  0.00  0.00    +0.000 OA
ENDBRANCH   3   5
BRANCH   1  19
ATOM     16  C   UNL     1      11.270  11.938  19.530  0.00  0.00    +0.000 A 
ATOM     17  C   UNL     1      11.106  11.622  18.184  0.00  0.00    +0.000 A 
ATOM     18  C   UNL     1      10.101  10.739  17.788  0.00  0.00    +0.000 A 
ATOM     19  C   UNL     1       9.252  10.139  18.732  0.00  0.00    +0.000 A 
ATOM     20  C   UNL     1       9.430  10.443  20.086  0.00  0.00    +0.000 A 
ATOM     21  C   UNL     1      10.437  11.345  20.480  0.00  0.00    +0.000 A 
BRANCH  16  23
ATOM     22  C   UNL     1      12.027  14.175  19.619  0.00  0.00    +0.000 C 
ATOM     23  O   UNL     1      12.303  12.792  19.795  0.00  0.00    +0.000 OA
ENDBRANCH  16  23
ENDBRANCH   1  19
TORSDOF 3
ENDMDL
MODEL 2
REMARK VINA RESULT:      -7.2      0.236      1.052
REMARK  Name = 
REMARK  5 active torsions:
REMARK  status: ('A' for Active; 'I' for Inactive)
REMARK    1  A    between atoms: C_1  and  O_2
REMARK    2  A    between atoms: O_2  and  C_3
REMARK    3  A    between atoms: C_6  and  C_7
REMARK    4  A    between atoms: N_9  and  C_10
REMARK    5  A    between atoms: C_15  and  C_16
REMARK                            x       y       z     vdW  Elec       q    Type
REMARK                         _______ _______ _______ _____ _____    ______ ____
ROOT
ATOM      1  C   UNL     1       8.147   9.093  18.086  0.00  0.00    +0.000 C 
ATOM      2  O   UNL     1       7.159   9.539  17.505  0.00  0.00    +0.000 OA
ATOM      3  N   UNL     1       8.314   7.748  18.375  0.00  0.00    +0.000 N 
ATOM      4  H   UNL     1       8.990   7.467  19.080  0.00  0.00    +0.000 HD
ENDROOT
BRANCH   3   5
ATOM      5  C   UNL     1       7.437   6.742  17.986  0.00  0.00    +0.000 A 
ATOM      6  C   UNL     1       6.892   6.599  16.766  0.00  0.00    +0.000 A 
ATOM      7  N   UNL     1       5.978   5.641  16.388  0.00  0.00    +0.000 NA
ATOM      8  C   UNL     1       5.611   4.839  17.325  0.00  0.00    +0.000 A 
ATOM      9  S   UNL     1       4.424   3.600  17.109  0.00  0.00    +0.000 S 
ATOM     10  C   UNL     1       4.648   3.202  18.792  0.00  0.00    +0.000 A 
ATOM     11  C   UNL     1       3.818   2.114  19.382  0.00  0.00    +0.000 C 
ATOM     12  N   UNL     1       5.525   3.889  19.456  0.00  0.00    +0.000 NA
ATOM     13  N   UNL     1       6.080   4.833  18.612  0.00  0.00    +0.000 N 
ATOM     14  C   UNL     1       7.049   5.727  19.031  0.00  0.00    +0.000 A 
ATOM     15  O   UNL     1       7.581   5.770  20.142  0.00  0.00    +0.000 OA
ENDBRANCH   3   5
BRANCH   1  19
ATOM     16  C   UNL     1      11.027  11.933  19.578  0.00  0.00    +0.000 A 
ATOM     17  C   UNL     1      10.139  11.277  20.426  0.00  0.00    +0.000 A 
ATOM     18  C   UNL     1       9.236  10.346  19.913  0.00  0.00    +0.000 A 
ATOM     19  C   UNL     1       9.188  10.066  18.538  0.00  0.00    +0.000 A 
ATOM     20  C   UNL     1      10.068  10.739  17.684  0.00  0.00    +0.000 A 
ATOM     21  C   UNL     1      10.987  11.668  18.208  0.00  0.00    +0.000 A 
BRANCH  16  23
ATOM     22  C   UNL     1      11.639  14.200  19.840  0.00  0.00    +0.000 C 
ATOM     23  O   UNL     1      11.843  12.839  20.193  0.00  0.00    +0.000 OA
ENDBRANCH  16  23
ENDBRANCH   1  19
TORSDOF 3
ENDMDL
MODEL 3
REMARK VINA RESULT:      -7.0      6.345      8.560
REMARK  Name = 
REMARK  5 active torsions:
REMARK  status: ('A' for Active; 'I' for Inactive)
REMARK    1  A    between atoms: C_1  and  O_2
REMARK    2  A    between atoms: O_2  and  C_3
REMARK    3  A    between atoms: C_6  and  C_7
REMARK    4  A    between atoms: N_9  and  C_10
REMARK    5  A    between atoms: C_15  and  C_16
REMARK                            x       y       z     vdW  Elec       q    Type
REMARK                         _______ _______ _______ _____ _____    ______ ____
ROOT
ATOM      1  C   UNL     1       3.880   6.053  18.267  0.00  0.00    +0.000 C 
ATOM      2  O   UNL     1       4.095   5.663  19.414  0.00  0.00    +0.000 OA
ATOM      3  N   UNL     1       2.972   7.054  17.964  0.00  0.00    +0.000 N 
ATOM      4  H   UNL     1       2.630   7.150  17.013  0.00  0.00    +0.000 HD
ENDROOT
BRANCH   3   5
ATOM      5  C   UNL     1       2.258   7.785  18.908  0.00  0.00    +0.000 A 
ATOM      6  C   UNL     1       1.992   7.400  20.168  0.00  0.00    +0.000 A 
ATOM      7  N   UNL     1       1.238   8.090  21.089  0.00  0.00    +0.000 NA
ATOM      8  C   UNL     1       0.730   9.192  20.661  0.00  0.00    +0.000 A 
ATOM      9  S   UNL     1      -0.309  10.196  21.612  0.00  0.00    +0.000 S 
ATOM     10  C   UNL     1      -0.422  11.253  20.230  0.00  0.00    +0.000 A 
ATOM     11  C   UNL     1      -1.291  12.460  20.326  0.00  0.00    +0.000 C 
ATOM     12  N   UNL     1       0.253  10.926  19.172  0.00  0.00    +0.000 NA
ATOM     13  N   UNL     1       0.916   9.738  19.419  0.00  0.00    +0.000 N 
ATOM     14  C   UNL     1       1.720   9.125  18.474  0.00  0.00    +0.000 A 
ATOM     15  O   UNL     1       2.003   9.556  17.355  0.00  0.00    +0.000 OA
ENDBRANCH   3   5
BRANCH   1  19
ATOM     16  C   UNL     1       5.920   4.262  14.918  0.00  0.00    +0.000 A 
ATOM     17  C   UNL     1       5.685   5.632  14.984  0.00  0.00    +0.000 A 
ATOM     18  C   UNL     1       5.044   6.182  16.094  0.00  0.00    +0.000 A 
ATOM     19  C   UNL     1       4.604   5.370  17.152  0.00  0.00    +0.000 A 
ATOM     20  C   UNL     1       4.824   3.990  17.076  0.00  0.00    +0.000 A 
ATOM     21  C   UNL     1       5.484   3.441  15.961  0.00  0.00    +0.000 A 
BRANCH  16  23
ATOM     22  C   UNL     1       5.673   3.549  12.679  0.00  0.00    +0.000 C 
ATOM     23  O   UNL     1       6.532   3.841  13.772  0.00  0.00    +0.000 OA
ENDBRANCH  16  23
ENDBRANCH   1  19
TORSDOF 3
ENDMDL
MODEL 4
REMARK VINA RESULT:      -6.9      6.822      9.284
REMARK  Name = 
REMARK  5 active torsions:
REMARK  status: ('A' for Active; 'I' for Inactive)
REMARK    1  A    between atoms: C_1  and  O_2
REMARK    2  A    between atoms: O_2  and  C_3
REMARK    3  A    between atoms: C_6  and  C_7
REMARK    4  A    between atoms: N_9  and  C_10
REMARK    5  A    between atoms: C_15  and  C_16
REMARK                            x       y       z     vdW  Elec       q    Type
REMARK                         _______ _______ _______ _____ _____    ______ ____
ROOT
ATOM      1  C   UNL     1       2.275   6.413  19.544  0.00  0.00    +0.000 C 
ATOM      2  O   UNL     1       1.752   5.776  20.457  0.00  0.00    +0.000 OA
ATOM      3  N   UNL     1       2.120   7.781  19.387  0.00  0.00    +0.000 N 
ATOM      4  H   UNL     1       2.332   8.210  18.491  0.00  0.00    +0.000 HD
ENDROOT
BRANCH   3   5
ATOM      5  C   UNL     1       1.429   8.603  20.270  0.00  0.00    +0.000 A 
ATOM      6  C   UNL     1       1.398   8.476  21.607  0.00  0.00    +0.000 A 
ATOM      7  N   UNL     1       0.670   9.250  22.483  0.00  0.00    +0.000 NA
ATOM      8  C   UNL     1      -0.062  10.154  21.932  0.00  0.00    +0.000 A 
ATOM      9  S   UNL     1      -1.114  11.200  22.821  0.00  0.00    +0.000 S 
ATOM     10  C   UNL     1      -1.579  11.900  21.293  0.00  0.00    +0.000 A 
ATOM     11  C   UNL     1      -2.611  12.974  21.287  0.00  0.00    +0.000 C 
ATOM     12  N   UNL     1      -1.006  11.437  20.226  0.00  0.00    +0.000 NA
ATOM     13  N   UNL     1      -0.132  10.430  20.593  0.00  0.00    +0.000 N 
ATOM     14  C   UNL     1       0.628   9.732  19.671  0.00  0.00    +0.000 A 
ATOM     15  O   UNL     1       0.686   9.937  18.457  0.00  0.00    +0.000 OA
ENDBRANCH   3   5
BRANCH   1  19
ATOM     16  C   UNL     1       4.641   4.422  16.540  0.00  0.00    +0.000 A 
ATOM     17  C   UNL     1       4.863   5.753  16.883  0.00  0.00    +0.000 A 
ATOM     18  C   UNL     1       4.095   6.359  17.877  0.00  0.00    +0.000 A 
ATOM     19  C   UNL     1       3.074   5.654  18.534  0.00  0.00    +0.000 A 
ATOM     20  C   UNL     1       2.839   4.322  18.174  0.00  0.00    +0.000 A 
ATOM     21  C   UNL     1       3.625   3.710  17.181  0.00  0.00    +0.000 A 
BRANCH  16  23
ATOM     22  C   UNL     1       6.373   4.873  14.997  0.00  0.00    +0.000 C 
ATOM     23  O   UNL     1       5.438   3.949  15.537  0.00  0.00    +0.000 OA
ENDBRANCH  16  23
ENDBRANCH   1  19
TORSDOF 3
ENDMDL
MODEL 5
REMARK VINA RESULT:      -6.9      6.314      8.618
REMARK  Name = 
REMARK  5 active torsions:
REMARK  status: ('A' for Active; 'I' for Inactive)
REMARK    1  A    between atoms: C_1  and  O_2
REMARK    2  A    between atoms: O_2  and  C_3
REMARK    3  A    between atoms: C_6  and  C_7
REMARK    4  A    between atoms: N_9  and  C_10
REMARK    5  A    between atoms: C_15  and  C_16
REMARK                            x       y       z     vdW  Elec       q    Type
REMARK                         _______ _______ _______ _____ _____    ______ ____
ROOT
ATOM      1  C   UNL     1       3.877   6.270  18.218  0.00  0.00    +0.000 C 
ATOM      2  O   UNL     1       4.242   5.933  19.343  0.00  0.00    +0.000 OA
ATOM      3  N   UNL     1       2.858   7.181  17.992  0.00  0.00    +0.000 N 
ATOM      4  H   UNL     1       2.414   7.221  17.079  0.00  0.00    +0.000 HD
ENDROOT
BRANCH   3   5
ATOM      5  C   UNL     1       2.183   7.874  18.991  0.00  0.00    +0.000 A 
ATOM      6  C   UNL     1       1.957   7.435  20.241  0.00  0.00    +0.000 A 
ATOM      7  N   UNL     1       1.239   8.088  21.218  0.00  0.00    +0.000 NA
ATOM      8  C   UNL     1       0.725   9.211  20.856  0.00  0.00    +0.000 A 
ATOM      9  S   UNL     1      -0.273  10.177  21.886  0.00  0.00    +0.000 S 
ATOM     10  C   UNL     1      -0.425  11.295  20.557  0.00  0.00    +0.000 A 
ATOM     11  C   UNL     1      -1.281  12.502  20.736  0.00  0.00    +0.000 C 
ATOM     12  N   UNL     1       0.211  11.012  19.463  0.00  0.00    +0.000 NA
ATOM     13  N   UNL     1       0.873   9.810  19.634  0.00  0.00    +0.000 N 
ATOM     14  C   UNL     1       1.640   9.234  18.636  0.00  0.00    +0.000 A 
ATOM     15  O   UNL     1       1.888   9.714  17.527  0.00  0.00    +0.000 OA
ENDBRANCH   3   5
BRANCH   1  19
ATOM     16  C   UNL     1       5.836   4.221  14.970  0.00  0.00    +0.000 A 
ATOM     17  C   UNL     1       5.319   3.532  16.063  0.00  0.00    +0.000 A 
ATOM     18  C   UNL     1       4.670   4.224  17.086  0.00  0.00    +0.000 A 
ATOM     19  C   UNL     1       4.542   5.622  17.046  0.00  0.00    +0.000 A 
ATOM     20  C   UNL     1       5.079   6.315  15.955  0.00  0.00    +0.000 A 
ATOM     21  C   UNL     1       5.721   5.612  14.919  0.00  0.00    +0.000 A 
BRANCH  16  23
ATOM     22  C   UNL     1       6.071   3.619  12.697  0.00  0.00    +0.000 C 
ATOM     23  O   UNL     1       6.471   3.438  14.048  0.00  0.00    +0.000 OA
ENDBRANCH  16  23
ENDBRANCH   1  19
TORSDOF 3
ENDMDL
MODEL 6
REMARK VINA RESULT:      -6.9      7.421      9.490
REMARK  Name = 
REMARK  5 active torsions:
REMARK  status: ('A' for Active; 'I' for Inactive)
REMARK    1  A    between atoms: C_1  and  O_2
REMARK    2  A    between atoms: O_2  and  C_3
REMARK    3  A    between atoms: C_6  and  C_7
REMARK    4  A    between atoms: N_9  and  C_10
REMARK    5  A    between atoms: C_15  and  C_16
REMARK                            x       y       z     vdW  Elec       q    Type
REMARK                         _______ _______ _______ _____ _____    ______ ____
ROOT
ATOM      1  C   UNL     1       2.014   8.513  18.336  0.00  0.00    +0.000 C 
ATOM      2  O   UNL     1       2.019   9.371  17.455  0.00  0.00    +0.000 OA
ATOM      3  N   UNL     1       1.314   8.649  19.524  0.00  0.00    +0.000 N 
ATOM      4  H   UNL     1       1.553   8.061  20.317  0.00  0.00    +0.000 HD
ENDROOT
BRANCH   3   5
ATOM      5  C   UNL     1       0.484   9.722  19.833  0.00  0.00    +0.000 A 
ATOM      6  C   UNL     1      -0.377  10.320  18.993  0.00  0.00    +0.000 A 
ATOM      7  N   UNL     1      -1.159  11.418  19.272  0.00  0.00    +0.000 NA
ATOM      8  C   UNL     1      -1.005  11.911  20.451  0.00  0.00    +0.000 A 
ATOM      9  S   UNL     1      -1.826  13.328  21.006  0.00  0.00    +0.000 S 
ATOM     10  C   UNL     1      -0.966  13.140  22.511  0.00  0.00    +0.000 A 
ATOM     11  C   UNL     1      -1.177  14.153  23.583  0.00  0.00    +0.000 C 
ATOM     12  N   UNL     1      -0.167  12.123  22.619  0.00  0.00    +0.000 NA
ATOM     13  N   UNL     1      -0.188  11.415  21.432  0.00  0.00    +0.000 N 
ATOM     14  C   UNL     1       0.569  10.274  21.233  0.00  0.00    +0.000 A 
ATOM     15  O   UNL     1       1.287   9.712  22.062  0.00  0.00    +0.000 OA
ENDBRANCH   3   5
BRANCH   1  19
ATOM     16  C   UNL     1       4.505   5.086  17.539  0.00  0.00    +0.000 A 
ATOM     17  C   UNL     1       4.832   6.354  17.066  0.00  0.00    +0.000 A 
ATOM     18  C   UNL     1       4.016   7.446  17.363  0.00  0.00    +0.000 A 
ATOM     19  C   UNL     1       2.845   7.289  18.122  0.00  0.00    +0.000 A 
ATOM     20  C   UNL     1       2.508   6.010  18.581  0.00  0.00    +0.000 A 
ATOM     21  C   UNL     1       3.341   4.914  18.290  0.00  0.00    +0.000 A 
BRANCH  16  23
ATOM     22  C   UNL     1       5.700   4.054  15.781  0.00  0.00    +0.000 C 
ATOM     23  O   UNL     1       5.366   4.095  17.162  0.00  0.00    +0.000 OA
ENDBRANCH  16  23
ENDBRANCH   1  19
TORSDOF 3
ENDMDL
MODEL 7
REMARK VINA RESULT:      -6.8      6.899      9.304
REMARK  Name = 
REMARK  5 active torsions:
REMARK  status: ('A' for Active; 'I' for Inactive)
REMARK    1  A    between atoms: C_1  and  O_2
REMARK    2  A    between atoms: O_2  and  C_3
REMARK    3  A    between atoms: C_6  and  C_7
REMARK    4  A    between atoms: N_9  and  C_10
REMARK    5  A    between atoms: C_15  and  C_16
REMARK                            x       y       z     vdW  Elec       q    Type
REMARK                         _______ _______ _______ _____ _____    ______ ____
ROOT
ATOM      1  C   UNL     1       2.334   6.713  19.390  0.00  0.00    +0.000 C 
ATOM      2  O   UNL     1       1.816   5.993  20.242  0.00  0.00    +0.000 OA
ATOM      3  N   UNL     1       2.134   8.083  19.332  0.00  0.00    +0.000 N 
ATOM      4  H   UNL     1       2.348   8.585  18.475  0.00  0.00    +0.000 HD
ENDROOT
BRANCH   3   5
ATOM      5  C   UNL     1       1.397   8.813  20.258  0.00  0.00    +0.000 A 
ATOM      6  C   UNL     1       1.314   8.563  21.575  0.00  0.00    +0.000 A 
ATOM      7  N   UNL     1       0.542   9.244  22.488  0.00  0.00    +0.000 NA
ATOM      8  C   UNL     1      -0.180  10.187  21.994  0.00  0.00    +0.000 A 
ATOM      9  S   UNL     1      -1.282  11.136  22.931  0.00  0.00    +0.000 S 
ATOM     10  C   UNL     1      -1.696  11.969  21.457  0.00  0.00    +0.000 A 
ATOM     11  C   UNL     1      -2.742  13.028  21.508  0.00  0.00    +0.000 C 
ATOM     12  N   UNL     1      -1.074  11.613  20.375  0.00  0.00    +0.000 NA
ATOM     13  N   UNL     1      -0.202  10.585  20.683  0.00  0.00    +0.000 N 
ATOM     14  C   UNL     1       0.604   9.983  19.733  0.00  0.00    +0.000 A 
ATOM     15  O   UNL     1       0.708  10.301  18.547  0.00  0.00    +0.000 OA
ENDBRANCH   3   5
BRANCH   1  19
ATOM     16  C   UNL     1       4.752   4.633  16.490  0.00  0.00    +0.000 A 
ATOM     17  C   UNL     1       3.877   3.955  17.335  0.00  0.00    +0.000 A 
ATOM     18  C   UNL     1       3.091   4.661  18.245  0.00  0.00    +0.000 A 
ATOM     19  C   UNL     1       3.179   6.059  18.345  0.00  0.00    +0.000 A 
ATOM     20  C   UNL     1       4.072   6.738  17.508  0.00  0.00    +0.000 A 
ATOM     21  C   UNL     1       4.853   6.022  16.581  0.00  0.00    +0.000 A 
BRANCH  16  23
ATOM     22  C   UNL     1       6.650   4.417  15.099  0.00  0.00    +0.000 C 
ATOM     23  O   UNL     1       5.484   3.831  15.662  0.00  0.00    +0.000 OA
ENDBRANCH  16  23
ENDBRANCH   1  19
TORSDOF 3
ENDMDL
MODEL 8
REMARK VINA RESULT:      -6.8      7.772      9.872
REMARK  Name = 
REMARK  5 active torsions:
REMARK  status: ('A' for Active; 'I' for Inactive)
REMARK    1  A    between atoms: C_1  and  O_2
REMARK    2  A    between atoms: O_2  and  C_3
REMARK    3  A    between atoms: C_6  and  C_7
REMARK    4  A    between atoms: N_9  and  C_10
REMARK    5  A    between atoms: C_15  and  C_16
REMARK                            x       y       z     vdW  Elec       q    Type
REMARK                         _______ _______ _______ _____ _____    ______ ____
ROOT
ATOM      1  C   UNL     1       1.805   8.771  18.797  0.00  0.00    +0.000 C 
ATOM      2  O   UNL     1       1.937   9.704  18.007  0.00  0.00    +0.000 OA
ATOM      3  N   UNL     1       0.968   8.822  19.899  0.00  0.00    +0.000 N 
ATOM      4  H   UNL     1       1.094   8.157  20.657  0.00  0.00    +0.000 HD
ENDROOT
BRANCH   3   5
ATOM      5  C   UNL     1       0.129   9.889  20.204  0.00  0.00    +0.000 A 
ATOM      6  C   UNL     1      -0.792  10.427  19.388  0.00  0.00    +0.000 A 
ATOM      7  N   UNL     1      -1.585  11.519  19.660  0.00  0.00    +0.000 NA
ATOM      8  C   UNL     1      -1.378  12.070  20.804  0.00  0.00    +0.000 A 
ATOM      9  S   UNL     1      -2.202  13.494  21.339  0.00  0.00    +0.000 S 
ATOM     10  C   UNL     1      -1.256  13.396  22.800  0.00  0.00    +0.000 A 
ATOM     11  C   UNL     1      -1.433  14.454  23.835  0.00  0.00    +0.000 C 
ATOM     12  N   UNL     1      -0.428  12.404  22.910  0.00  0.00    +0.000 NA
ATOM     13  N   UNL     1      -0.496  11.640  21.760  0.00  0.00    +0.000 N 
ATOM     14  C   UNL     1       0.277  10.509  21.570  0.00  0.00    +0.000 A 
ATOM     15  O   UNL     1       1.054  10.003  22.383  0.00  0.00    +0.000 OA
ENDBRANCH   3   5
BRANCH   1  19
ATOM     16  C   UNL     1       4.155   5.182  18.364  0.00  0.00    +0.000 A 
ATOM     17  C   UNL     1       3.246   5.340  19.406  0.00  0.00    +0.000 A 
ATOM     18  C   UNL     1       2.484   6.504  19.503  0.00  0.00    +0.000 A 
ATOM     19  C   UNL     1       2.630   7.544  18.571  0.00  0.00    +0.000 A 
ATOM     20  C   UNL     1       3.558   7.392  17.534  0.00  0.00    +0.000 A 
ATOM     21  C   UNL     1       4.315   6.210  17.433  0.00  0.00    +0.000 A 
BRANCH  16  23
ATOM     22  C   UNL     1       4.535   3.115  19.444  0.00  0.00    +0.000 C 
ATOM     23  O   UNL     1       4.859   4.012  18.391  0.00  0.00    +0.000 OA
ENDBRANCH  16  23
ENDBRANCH   1  19
TORSDOF 3
ENDMDL
MODEL 9
REMARK VINA RESULT:      -6.7      6.904      8.168
REMARK  Name = 
REMARK  5 active torsions:
REMARK  status: ('A' for Active; 'I' for Inactive)
REMARK    1  A    between atoms: C_1  and  O_2
REMARK    2  A    between atoms: O_2  and  C_3
REMARK    3  A    between atoms: C_6  and  C_7
REMARK    4  A    between atoms: N_9  and  C_10
REMARK    5  A    between atoms: C_15  and  C_16
REMARK                            x       y       z     vdW  Elec       q    Type
REMARK                         _______ _______ _______ _____ _____    ______ ____
ROOT
ATOM      1  C   UNL     1       1.025   9.260  19.660  0.00  0.00    +0.000 C 
ATOM      2  O   UNL     1       0.882   9.445  18.452  0.00  0.00    +0.000 OA
ATOM      3  N   UNL     1       1.709   8.177  20.186  0.00  0.00    +0.000 N 
ATOM      4  H   UNL     1       1.569   7.920  21.159  0.00  0.00    +0.000 HD
ENDROOT
BRANCH   3   5
ATOM      5  C   UNL     1       2.373   7.219  19.429  0.00  0.00    +0.000 A 
ATOM      6  C   UNL     1       3.052   7.444  18.291  0.00  0.00    +0.000 A 
ATOM      7  N   UNL     1       3.663   6.494  17.504  0.00  0.00    +0.000 NA
ATOM      8  C   UNL     1       3.526   5.280  17.911  0.00  0.00    +0.000 A 
ATOM      9  S   UNL     1       4.144   3.912  17.052  0.00  0.00    +0.000 S 
ATOM     10  C   UNL     1       3.453   2.914  18.304  0.00  0.00    +0.000 A 
ATOM     11  C   UNL     1       3.582   1.434  18.187  0.00  0.00    +0.000 C 
ATOM     12  N   UNL     1       2.845   3.516  19.280  0.00  0.00    +0.000 NA
ATOM     13  N   UNL     1       2.885   4.879  19.053  0.00  0.00    +0.000 N 
ATOM     14  C   UNL     1       2.313   5.794  19.918  0.00  0.00    +0.000 A 
ATOM     15  O   UNL     1       1.768   5.548  20.997  0.00  0.00    +0.000 OA
ENDBRANCH   3   5
BRANCH   1  19
ATOM     16  C   UNL     1      -0.938  11.899  22.448  0.00  0.00    +0.000 A 
ATOM     17  C   UNL     1      -0.816  10.534  22.694  0.00  0.00    +0.000 A 
ATOM     18  C   UNL     1      -0.153   9.713  21.782  0.00  0.00    +0.000 A 
ATOM     19  C   UNL     1       0.383  10.236  20.594  0.00  0.00    +0.000 A 
ATOM     20  C   UNL     1       0.243  11.604  20.339  0.00  0.00    +0.000 A 
ATOM     21  C   UNL     1      -0.414  12.432  21.268  0.00  0.00    +0.000 A 
BRANCH  16  23
ATOM     22  C   UNL     1      -3.025  12.339  23.465  0.00  0.00    +0.000 C 
ATOM     23  O   UNL     1      -1.628  12.593  23.401  0.00  0.00    +0.000 OA
ENDBRANCH  16  23
ENDBRANCH   1  19
TORSDOF 3
ENDMDL
