MODEL 1
REMARK VINA RESULT:      -6.6      0.000      0.000
REMARK  Name = 
REMARK  2 active torsions:
REMARK  status: ('A' for Active; 'I' for Inactive)
REMARK    1  A    between atoms: N_6  and  C_7
REMARK    2  A    between atoms: C_7  and  C_8
REMARK                            x       y       z     vdW  Elec       q    Type
REMARK                         _______ _______ _______ _____ _____    ______ ____
ROOT
ATOM      1  C   UNL     1       4.211   6.246  17.911  0.00  0.00    +0.000 C 
ENDROOT
BRANCH   1   7
ATOM      2  O   UNL     1       6.328   5.266  19.741  0.00  0.00    +0.000 OA
ATOM      3  C   UNL     1       6.324   5.048  18.542  0.00  0.00    +0.000 C 
ATOM      4  N   UNL     1       7.291   4.314  17.866  0.00  0.00    +0.000 N 
ATOM      5  C   UNL     1       7.124   4.457  16.446  0.00  0.00    +0.000 C 
ATOM      6  C   UNL     1       5.672   4.892  16.312  0.00  0.00    +0.000 C 
ATOM      7  N   UNL     1       5.406   5.492  17.601  0.00  0.00    +0.000 N 
ATOM      8  H   UNL     1       8.145   4.058  18.345  0.00  0.00    +0.000 HD
ENDBRANCH   1   7
BRANCH   1   9
ATOM      9  C   UNL     1       3.120   5.387  18.501  0.00  0.00    +0.000 A 
ATOM     10  C   UNL     1       2.831   5.452  19.872  0.00  0.00    +0.000 A 
ATOM     11  C   UNL     1       1.858   4.620  20.427  0.00  0.00    +0.000 A 
ATOM     12  C   UNL     1       1.184   3.716  19.613  0.00  0.00    +0.000 A 
ATOM     13  F   UNL     1       0.267   2.902  20.150  0.00  0.00    +0.000 F 
ATOM     14  C   UNL     1       1.454   3.638  18.253  0.00  0.00    +0.000 A 
ATOM     15  C   UNL     1       2.417   4.477  17.694  0.00  0.00    +0.000 A 
ENDBRANCH   1   9
TORSDOF 2
ENDMDL
MODEL 2
REMARK VINA RESULT:      -6.5      0.115      1.299
REMARK  Name = 
REMARK  2 active torsions:
REMARK  status: ('A' for Active; 'I' for Inactive)
REMARK    1  A    between atoms: N_6  and  C_7
REMARK    2  A    between atoms: C_7  and  C_8
REMARK                            x       y       z     vdW  Elec       q    Type
REMARK                         _______ _______ _______ _____ _____    ______ ____
ROOT
ATOM      1  C   UNL     1       4.299   6.224  17.913  0.00  0.00    +0.000 C 
ENDROOT
BRANCH   1   7
ATOM      2  O   UNL     1       6.415   5.267  19.756  0.00  0.00    +0.000 OA
ATOM      3  C   UNL     1       6.427   5.059  18.555  0.00  0.00    +0.000 C 
ATOM      4  N   UNL     1       7.414   4.349  17.884  0.00  0.00    +0.000 N 
ATOM      5  C   UNL     1       7.259   4.501  16.463  0.00  0.00    +0.000 C 
ATOM      6  C   UNL     1       5.801   4.911  16.318  0.00  0.00    +0.000 C 
ATOM      7  N   UNL     1       5.511   5.494  17.609  0.00  0.00    +0.000 N 
ATOM      8  H   UNL     1       8.268   4.105  18.368  0.00  0.00    +0.000 HD
ENDBRANCH   1   7
BRANCH   1   9
ATOM      9  C   UNL     1       3.234   5.348  18.523  0.00  0.00    +0.000 A 
ATOM     10  C   UNL     1       2.517   4.443  17.725  0.00  0.00    +0.000 A 
ATOM     11  C   UNL     1       1.496   3.670  18.279  0.00  0.00    +0.000 A 
ATOM     12  C   UNL     1       1.184   3.811  19.626  0.00  0.00    +0.000 A 
ATOM     13  F   UNL     1       0.188   3.086  20.152  0.00  0.00    +0.000 F 
ATOM     14  C   UNL     1       1.882   4.700  20.435  0.00  0.00    +0.000 A 
ATOM     15  C   UNL     1       2.911   5.464  19.886  0.00  0.00    +0.000 A 
ENDBRANCH   1   9
TORSDOF 2
ENDMDL
MODEL 3
REMARK VINA RESULT:      -6.5      1.151      1.254
REMARK  Name = 
REMARK  2 active torsions:
REMARK  status: ('A' for Active; 'I' for Inactive)
REMARK    1  A    between atoms: N_6  and  C_7
REMARK    2  A    between atoms: C_7  and  C_8
REMARK                            x       y       z     vdW  Elec       q    Type
REMARK                         _______ _______ _______ _____ _____    ______ ____
ROOT
ATOM      1  C   UNL     1       4.600   5.574  19.081  0.00  0.00    +0.000 C 
ENDROOT
BRANCH   1   7
ATOM      2  O   UNL     1       7.418   5.321  19.969  0.00  0.00    +0.000 OA
ATOM      3  C   UNL     1       7.034   5.004  18.856  0.00  0.00    +0.000 C 
ATOM      4  N   UNL     1       7.845   4.480  17.857  0.00  0.00    +0.000 N 
ATOM      5  C   UNL     1       7.139   4.451  16.606  0.00  0.00    +0.000 C 
ATOM      6  C   UNL     1       5.679   4.495  17.032  0.00  0.00    +0.000 C 
ATOM      7  N   UNL     1       5.754   5.119  18.335  0.00  0.00    +0.000 N 
ATOM      8  H   UNL     1       8.849   4.490  17.976  0.00  0.00    +0.000 HD
ENDBRANCH   1   7
BRANCH   1   9
ATOM      9  C   UNL     1       3.431   4.628  18.973  0.00  0.00    +0.000 A 
ATOM     10  C   UNL     1       3.407   3.441  19.722  0.00  0.00    +0.000 A 
ATOM     11  C   UNL     1       2.351   2.541  19.583  0.00  0.00    +0.000 A 
ATOM     12  C   UNL     1       1.326   2.821  18.687  0.00  0.00    +0.000 A 
ATOM     13  F   UNL     1       0.323   1.946  18.537  0.00  0.00    +0.000 F 
ATOM     14  C   UNL     1       1.328   3.991  17.938  0.00  0.00    +0.000 A 
ATOM     15  C   UNL     1       2.377   4.897  18.084  0.00  0.00    +0.000 A 
ENDBRANCH   1   9
TORSDOF 2
ENDMDL
MODEL 4
REMARK VINA RESULT:      -6.5      1.085      1.452
REMARK  Name = 
REMARK  2 active torsions:
REMARK  status: ('A' for Active; 'I' for Inactive)
REMARK    1  A    between atoms: N_6  and  C_7
REMARK    2  A    between atoms: C_7  and  C_8
REMARK                            x       y       z     vdW  Elec       q    Type
REMARK                         _______ _______ _______ _____ _____    ______ ____
ROOT
ATOM      1  C   UNL     1       4.555   5.667  18.774  0.00  0.00    +0.000 C 
ENDROOT
BRANCH   1   7
ATOM      2  O   UNL     1       7.266   5.317  19.922  0.00  0.00    +0.000 OA
ATOM      3  C   UNL     1       6.980   5.020  18.775  0.00  0.00    +0.000 C 
ATOM      4  N   UNL     1       7.865   4.477  17.852  0.00  0.00    +0.000 N 
ATOM      5  C   UNL     1       7.281   4.480  16.539  0.00  0.00    +0.000 C 
ATOM      6  C   UNL     1       5.789   4.567  16.826  0.00  0.00    +0.000 C 
ATOM      7  N   UNL     1       5.760   5.180  18.136  0.00  0.00    +0.000 N 
ATOM      8  H   UNL     1       8.854   4.454  18.066  0.00  0.00    +0.000 HD
ENDBRANCH   1   7
BRANCH   1   9
ATOM      9  C   UNL     1       3.423   4.673  18.708  0.00  0.00    +0.000 A 
ATOM     10  C   UNL     1       2.314   4.915  17.881  0.00  0.00    +0.000 A 
ATOM     11  C   UNL     1       1.243   4.022  17.860  0.00  0.00    +0.000 A 
ATOM     12  C   UNL     1       1.275   2.894  18.671  0.00  0.00    +0.000 A 
ATOM     13  F   UNL     1       0.237   2.048  18.667  0.00  0.00    +0.000 F 
ATOM     14  C   UNL     1       2.364   2.634  19.495  0.00  0.00    +0.000 A 
ATOM     15  C   UNL     1       3.440   3.519  19.509  0.00  0.00    +0.000 A 
ENDBRANCH   1   9
TORSDOF 2
ENDMDL
MODEL 5
REMARK VINA RESULT:      -6.4      1.551      1.882
REMARK  Name = 
REMARK  2 active torsions:
REMARK  status: ('A' for Active; 'I' for Inactive)
REMARK    1  A    between atoms: N_6  and  C_7
REMARK    2  A    between atoms: C_7  and  C_8
REMARK                            x       y       z     vdW  Elec       q    Type
REMARK                         _______ _______ _______ _____ _____    ______ ____
ROOT
ATOM      1  C   UNL     1       5.176   4.781  18.861  0.00  0.00    +0.000 C 
ENDROOT
BRANCH   1   7
ATOM      2  O   UNL     1       8.057   4.439  18.250  0.00  0.00    +0.000 OA
ATOM      3  C   UNL     1       7.204   4.599  17.394  0.00  0.00    +0.000 C 
ATOM      4  N   UNL     1       7.450   4.638  16.027  0.00  0.00    +0.000 N 
ATOM      5  C   UNL     1       6.281   5.086  15.322  0.00  0.00    +0.000 C 
ATOM      6  C   UNL     1       5.155   4.802  16.306  0.00  0.00    +0.000 C 
ATOM      7  N   UNL     1       5.845   4.806  17.577  0.00  0.00    +0.000 N 
ATOM      8  H   UNL     1       8.404   4.691  15.695  0.00  0.00    +0.000 HD
ENDBRANCH   1   7
BRANCH   1   9
ATOM      9  C   UNL     1       3.869   4.030  18.818  0.00  0.00    +0.000 A 
ATOM     10  C   UNL     1       3.857   2.627  18.823  0.00  0.00    +0.000 A 
ATOM     11  C   UNL     1       2.651   1.932  18.731  0.00  0.00    +0.000 A 
ATOM     12  C   UNL     1       1.460   2.639  18.621  0.00  0.00    +0.000 A 
ATOM     13  F   UNL     1       0.304   1.972  18.510  0.00  0.00    +0.000 F 
ATOM     14  C   UNL     1       1.449   4.029  18.616  0.00  0.00    +0.000 A 
ATOM     15  C   UNL     1       2.652   4.725  18.720  0.00  0.00    +0.000 A 
ENDBRANCH   1   9
TORSDOF 2
ENDMDL
MODEL 6
REMARK VINA RESULT:      -6.4      1.753      2.332
REMARK  Name = 
REMARK  2 active torsions:
REMARK  status: ('A' for Active; 'I' for Inactive)
REMARK    1  A    between atoms: N_6  and  C_7
REMARK    2  A    between atoms: C_7  and  C_8
REMARK                            x       y       z     vdW  Elec       q    Type
REMARK                         _______ _______ _______ _____ _____    ______ ____
ROOT
ATOM      1  C   UNL     1       4.977   3.836  16.707  0.00  0.00    +0.000 C 
ENDROOT
BRANCH   1   7
ATOM      2  O   UNL     1       7.853   4.438  16.310  0.00  0.00    +0.000 OA
ATOM      3  C   UNL     1       7.230   4.764  17.306  0.00  0.00    +0.000 C 
ATOM      4  N   UNL     1       7.765   5.460  18.382  0.00  0.00    +0.000 N 
ATOM      5  C   UNL     1       6.841   5.463  19.483  0.00  0.00    +0.000 C 
ATOM      6  C   UNL     1       5.505   5.183  18.812  0.00  0.00    +0.000 C 
ATOM      7  N   UNL     1       5.902   4.497  17.602  0.00  0.00    +0.000 N 
ATOM      8  H   UNL     1       8.767   5.588  18.443  0.00  0.00    +0.000 HD
ENDBRANCH   1   7
BRANCH   1   9
ATOM      9  C   UNL     1       3.683   3.461  17.385  0.00  0.00    +0.000 A 
ATOM     10  C   UNL     1       2.611   4.367  17.416  0.00  0.00    +0.000 A 
ATOM     11  C   UNL     1       1.433   4.041  18.088  0.00  0.00    +0.000 A 
ATOM     12  C   UNL     1       1.331   2.816  18.738  0.00  0.00    +0.000 A 
ATOM     13  F   UNL     1       0.208   2.513  19.402  0.00  0.00    +0.000 F 
ATOM     14  C   UNL     1       2.379   1.904  18.717  0.00  0.00    +0.000 A 
ATOM     15  C   UNL     1       3.553   2.223  18.036  0.00  0.00    +0.000 A 
ENDBRANCH   1   9
TORSDOF 2
ENDMDL
MODEL 7
REMARK VINA RESULT:      -6.4      1.789      2.154
REMARK  Name = 
REMARK  2 active torsions:
REMARK  status: ('A' for Active; 'I' for Inactive)
REMARK    1  A    between atoms: N_6  and  C_7
REMARK    2  A    between atoms: C_7  and  C_8
REMARK                            x       y       z     vdW  Elec       q    Type
REMARK                         _______ _______ _______ _____ _____    ______ ____
ROOT
ATOM      1  C   UNL     1       5.510   4.429  18.297  0.00  0.00    +0.000 C 
ENDROOT
BRANCH   1   7
ATOM      2  O   UNL     1       7.458   6.449  17.339  0.00  0.00    +0.000 OA
ATOM      3  C   UNL     1       6.975   5.590  16.622  0.00  0.00    +0.000 C 
ATOM      4  N   UNL     1       7.264   5.428  15.273  0.00  0.00    +0.000 N 
ATOM      5  C   UNL     1       6.348   4.496  14.674  0.00  0.00    +0.000 C 
ATOM      6  C   UNL     1       5.831   3.707  15.868  0.00  0.00    +0.000 C 
ATOM      7  N   UNL     1       6.033   4.631  16.962  0.00  0.00    +0.000 N 
ATOM      8  H   UNL     1       7.789   6.144  14.788  0.00  0.00    +0.000 HD
ENDBRANCH   1   7
BRANCH   1   9
ATOM      9  C   UNL     1       4.120   3.845  18.293  0.00  0.00    +0.000 A 
ATOM     10  C   UNL     1       3.033   4.604  17.832  0.00  0.00    +0.000 A 
ATOM     11  C   UNL     1       1.740   4.083  17.877  0.00  0.00    +0.000 A 
ATOM     12  C   UNL     1       1.533   2.808  18.392  0.00  0.00    +0.000 A 
ATOM     13  F   UNL     1       0.288   2.317  18.455  0.00  0.00    +0.000 F 
ATOM     14  C   UNL     1       2.595   2.039  18.851  0.00  0.00    +0.000 A 
ATOM     15  C   UNL     1       3.889   2.554  18.796  0.00  0.00    +0.000 A 
ENDBRANCH   1   9
TORSDOF 2
ENDMDL
MODEL 8
REMARK VINA RESULT:      -6.4      1.721      2.335
REMARK  Name = 
REMARK  2 active torsions:
REMARK  status: ('A' for Active; 'I' for Inactive)
REMARK    1  A    between atoms: N_6  and  C_7
REMARK    2  A    between atoms: C_7  and  C_8
REMARK                            x       y       z     vdW  Elec       q    Type
REMARK                         _______ _______ _______ _____ _____    ______ ____
ROOT
ATOM      1  C   UNL     1       4.888   4.637  16.742  0.00  0.00    +0.000 C 
ENDROOT
BRANCH   1   7
ATOM      2  O   UNL     1       7.818   4.302  16.431  0.00  0.00    +0.000 OA
ATOM      3  C   UNL     1       7.296   4.740  17.442  0.00  0.00    +0.000 C 
ATOM      4  N   UNL     1       7.985   5.146  18.577  0.00  0.00    +0.000 N 
ATOM      5  C   UNL     1       7.071   5.370  19.663  0.00  0.00    +0.000 C 
ATOM      6  C   UNL     1       5.742   5.587  18.955  0.00  0.00    +0.000 C 
ATOM      7  N   UNL     1       5.942   4.898  17.699  0.00  0.00    +0.000 N 
ATOM      8  H   UNL     1       8.972   4.938  18.661  0.00  0.00    +0.000 HD
ENDBRANCH   1   7
BRANCH   1   9
ATOM      9  C   UNL     1       3.689   3.971  17.369  0.00  0.00    +0.000 A 
ATOM     10  C   UNL     1       3.725   2.606  17.694  0.00  0.00    +0.000 A 
ATOM     11  C   UNL     1       2.599   1.978  18.225  0.00  0.00    +0.000 A 
ATOM     12  C   UNL     1       1.434   2.711  18.420  0.00  0.00    +0.000 A 
ATOM     13  F   UNL     1       0.345   2.103  18.909  0.00  0.00    +0.000 F 
ATOM     14  C   UNL     1       1.377   4.064  18.107  0.00  0.00    +0.000 A 
ATOM     15  C   UNL     1       2.505   4.696  17.587  0.00  0.00    +0.000 A 
ENDBRANCH   1   9
TORSDOF 2
ENDMDL
MODEL 9
REMARK VINA RESULT:      -6.4      1.449      2.121
REMARK  Name = 
REMARK  2 active torsions:
REMARK  status: ('A' for Active; 'I' for Inactive)
REMARK    1  A    between atoms: N_6  and  C_7
REMARK    2  A    between atoms: C_7  and  C_8
REMARK                            x       y       z     vdW  Elec       q    Type
REMARK                         _______ _______ _______ _____ _____    ______ ____
ROOT
ATOM      1  C   UNL     1       4.116   6.508  17.684  0.00  0.00    +0.000 C 
ENDROOT
BRANCH   1   7
ATOM      2  O   UNL     1       5.612   6.218  15.140  0.00  0.00    +0.000 OA
ATOM      3  C   UNL     1       6.041   5.843  16.218  0.00  0.00    +0.000 C 
ATOM      4  N   UNL     1       7.277   5.239  16.412  0.00  0.00    +0.000 N 
ATOM      5  C   UNL     1       7.366   4.701  17.741  0.00  0.00    +0.000 C 
ATOM      6  C   UNL     1       6.310   5.488  18.503  0.00  0.00    +0.000 C 
ATOM      7  N   UNL     1       5.407   5.897  17.450  0.00  0.00    +0.000 N 
ATOM      8  H   UNL     1       7.816   4.941  15.609  0.00  0.00    +0.000 HD
ENDBRANCH   1   7
BRANCH   1   9
ATOM      9  C   UNL     1       3.149   5.574  18.366  0.00  0.00    +0.000 A 
ATOM     10  C   UNL     1       2.562   4.516  17.654  0.00  0.00    +0.000 A 
ATOM     11  C   UNL     1       1.628   3.684  18.271  0.00  0.00    +0.000 A 
ATOM     12  C   UNL     1       1.272   3.916  19.594  0.00  0.00    +0.000 A 
ATOM     13  F   UNL     1       0.358   3.131  20.180  0.00  0.00    +0.000 F 
ATOM     14  C   UNL     1       1.842   4.956  20.318  0.00  0.00    +0.000 A 
ATOM     15  C   UNL     1       2.785   5.782  19.707  0.00  0.00    +0.000 A 
ENDBRANCH   1   9
TORSDOF 2
ENDMDL
