MODEL 1
REMARK VINA RESULT:      -8.8      0.000      0.000
REMARK  Name = 
REMARK  8 active torsions:
REMARK  status: ('A' for Active; 'I' for Inactive)
REMARK    1  A    between atoms: C_2  and  C_3
REMARK    2  A    between atoms: C_6  and  C_7
REMARK    3  A    between atoms: C_7  and  N_8
REMARK    4  A    between atoms: N_12  and  C_13
REMARK    5  A    between atoms: C_13  and  C_14
REMARK    6  A    between atoms: C_14  and  C_15
REMARK    7  A    between atoms: C_15  and  C_16
REMARK    8  A    between atoms: C_15  and  C_22
REMARK                            x       y       z     vdW  Elec       q    Type
REMARK                         _______ _______ _______ _____ _____    ______ ____
ROOT
ATOM      1  N   UNL     1       2.302   3.645  20.518  0.00  0.00    +0.000 NA
ATOM      2  C   UNL     1       3.729   3.609  20.160  0.00  0.00    +0.000 C 
ATOM      3  C   UNL     1       4.348   2.321  19.597  0.00  0.00    +0.000 C 
ATOM      4  C   UNL     1       3.686   1.548  18.461  0.00  0.00    +0.000 C 
ATOM      5  N   UNL     1       2.712   2.222  17.618  0.00  0.00    +0.000 NA
ATOM      6  C   UNL     1       1.460   2.420  18.353  0.00  0.00    +0.000 C 
ATOM      7  C   UNL     1       1.379   3.592  19.353  0.00  0.00    +0.000 C 
ENDROOT
BRANCH   1   8
ATOM      8  C   UNL     1       2.001   4.923  21.231  0.00  0.00    +0.000 C 
BRANCH   8  12
ATOM      9  C   UNL     1       2.041   8.581  18.878  0.00  0.00    +0.000 A 
ATOM     10  C   UNL     1       1.368   8.531  20.099  0.00  0.00    +0.000 A 
ATOM     11  C   UNL     1       1.347   7.344  20.848  0.00  0.00    +0.000 A 
ATOM     12  C   UNL     1       1.992   6.182  20.381  0.00  0.00    +0.000 A 
ATOM     13  C   UNL     1       2.664   6.245  19.153  0.00  0.00    +0.000 A 
ATOM     14  C   UNL     1       2.691   7.435  18.410  0.00  0.00    +0.000 A 
BRANCH   9  16
ATOM     15  N   UNL     1       2.082  10.781  17.496  0.00  0.00    +0.000 NA
ATOM     16  C   UNL     1       2.062   9.801  18.109  0.00  0.00    +0.000 C 
ENDBRANCH   9  16
ENDBRANCH   8  12
ENDBRANCH   1   8
BRANCH   5  17
ATOM     17  C   UNL     1       3.196   3.409  16.913  0.00  0.00    +0.000 C 
BRANCH  17  18
ATOM     18  C   UNL     1       4.626   3.277  16.364  0.00  0.00    +0.000 C 
BRANCH  18  19
ATOM     19  C   UNL     1       5.181   4.580  15.728  0.00  0.00    +0.000 C 
BRANCH  19  20
ATOM     20  C   UNL     1       5.985   5.357  16.766  0.00  0.00    +0.000 A 
ATOM     21  C   UNL     1       6.039   6.759  16.758  0.00  0.00    +0.000 A 
ATOM     22  C   UNL     1       6.932   7.441  17.588  0.00  0.00    +0.000 A 
ATOM     23  C   UNL     1       7.782   6.734  18.436  0.00  0.00    +0.000 A 
ATOM     24  C   UNL     1       7.726   5.342  18.471  0.00  0.00    +0.000 A 
ATOM     25  C   UNL     1       6.829   4.659  17.647  0.00  0.00    +0.000 A 
ENDBRANCH  19  20
BRANCH  19  26
ATOM     26  C   UNL     1       5.906   4.337  14.401  0.00  0.00    +0.000 A 
ATOM     27  C   UNL     1       7.099   5.032  14.125  0.00  0.00    +0.000 A 
ATOM     28  C   UNL     1       7.709   4.941  12.870  0.00  0.00    +0.000 A 
ATOM     29  C   UNL     1       7.158   4.133  11.880  0.00  0.00    +0.000 A 
ATOM     30  C   UNL     1       6.008   3.398  12.153  0.00  0.00    +0.000 A 
ATOM     31  C   UNL     1       5.391   3.498  13.402  0.00  0.00    +0.000 A 
ENDBRANCH  19  26
ENDBRANCH  18  19
ENDBRANCH  17  18
ENDBRANCH   5  17
TORSDOF 8
ENDMDL
MODEL 2
REMARK VINA RESULT:      -8.6      1.845      4.127
REMARK  Name = 
REMARK  8 active torsions:
REMARK  status: ('A' for Active; 'I' for Inactive)
REMARK    1  A    between atoms: C_2  and  C_3
REMARK    2  A    between atoms: C_6  and  C_7
REMARK    3  A    between atoms: C_7  and  N_8
REMARK    4  A    between atoms: N_12  and  C_13
REMARK    5  A    between atoms: C_13  and  C_14
REMARK    6  A    between atoms: C_14  and  C_15
REMARK    7  A    between atoms: C_15  and  C_16
REMARK    8  A    between atoms: C_15  and  C_22
REMARK                            x       y       z     vdW  Elec       q    Type
REMARK                         _______ _______ _______ _____ _____    ______ ____
ROOT
ATOM      1  N   UNL     1       2.122   5.982  19.285  0.00  0.00    +0.000 NA
ATOM      2  C   UNL     1       3.014   5.208  20.162  0.00  0.00    +0.000 C 
ATOM      3  C   UNL     1       2.718   3.727  20.443  0.00  0.00    +0.000 C 
ATOM      4  C   UNL     1       2.403   2.747  19.317  0.00  0.00    +0.000 C 
ATOM      5  N   UNL     1       2.787   3.085  17.957  0.00  0.00    +0.000 NA
ATOM      6  C   UNL     1       1.912   4.135  17.430  0.00  0.00    +0.000 C 
ATOM      7  C   UNL     1       2.188   5.594  17.850  0.00  0.00    +0.000 C 
ENDROOT
BRANCH   1   8
ATOM      8  C   UNL     1       2.501   7.427  19.343  0.00  0.00    +0.000 C 
BRANCH   8  12
ATOM      9  C   UNL     1      -0.090  10.072  21.626  0.00  0.00    +0.000 A 
ATOM     10  C   UNL     1       0.508   8.968  22.233  0.00  0.00    +0.000 A 
ATOM     11  C   UNL     1       1.332   8.111  21.489  0.00  0.00    +0.000 A 
ATOM     12  C   UNL     1       1.564   8.338  20.119  0.00  0.00    +0.000 A 
ATOM     13  C   UNL     1       0.957   9.450  19.519  0.00  0.00    +0.000 A 
ATOM     14  C   UNL     1       0.140  10.311  20.267  0.00  0.00    +0.000 A 
BRANCH   9  16
ATOM     15  N   UNL     1      -1.622  11.657  23.003  0.00  0.00    +0.000 NA
ATOM     16  C   UNL     1      -0.938  10.954  22.390  0.00  0.00    +0.000 C 
ENDBRANCH   9  16
ENDBRANCH   8  12
ENDBRANCH   1   8
BRANCH   5  17
ATOM     17  C   UNL     1       4.215   3.320  17.740  0.00  0.00    +0.000 C 
BRANCH  17  18
ATOM     18  C   UNL     1       4.545   4.014  16.408  0.00  0.00    +0.000 C 
BRANCH  18  19
ATOM     19  C   UNL     1       6.063   4.077  16.088  0.00  0.00    +0.000 C 
BRANCH  19  20
ATOM     20  C   UNL     1       6.266   4.198  14.580  0.00  0.00    +0.000 A 
ATOM     21  C   UNL     1       5.530   3.420  13.673  0.00  0.00    +0.000 A 
ATOM     22  C   UNL     1       5.866   3.402  12.317  0.00  0.00    +0.000 A 
ATOM     23  C   UNL     1       6.940   4.158  11.850  0.00  0.00    +0.000 A 
ATOM     24  C   UNL     1       7.667   4.951  12.735  0.00  0.00    +0.000 A 
ATOM     25  C   UNL     1       7.328   4.977  14.089  0.00  0.00    +0.000 A 
ENDBRANCH  19  20
BRANCH  19  26
ATOM     26  C   UNL     1       6.809   5.121  16.924  0.00  0.00    +0.000 A 
ATOM     27  C   UNL     1       7.581   4.707  18.024  0.00  0.00    +0.000 A 
ATOM     28  C   UNL     1       8.159   5.641  18.890  0.00  0.00    +0.000 A 
ATOM     29  C   UNL     1       8.001   7.004  18.655  0.00  0.00    +0.000 A 
ATOM     30  C   UNL     1       7.285   7.432  17.541  0.00  0.00    +0.000 A 
ATOM     31  C   UNL     1       6.697   6.499  16.684  0.00  0.00    +0.000 A 
ENDBRANCH  19  26
ENDBRANCH  18  19
ENDBRANCH  17  18
ENDBRANCH   5  17
TORSDOF 8
ENDMDL
MODEL 3
REMARK VINA RESULT:      -8.6      1.486      3.801
REMARK  Name = 
REMARK  8 active torsions:
REMARK  status: ('A' for Active; 'I' for Inactive)
REMARK    1  A    between atoms: C_2  and  C_3
REMARK    2  A    between atoms: C_6  and  C_7
REMARK    3  A    between atoms: C_7  and  N_8
REMARK    4  A    between atoms: N_12  and  C_13
REMARK    5  A    between atoms: C_13  and  C_14
REMARK    6  A    between atoms: C_14  and  C_15
REMARK    7  A    between atoms: C_15  and  C_16
REMARK    8  A    between atoms: C_15  and  C_22
REMARK                            x       y       z     vdW  Elec       q    Type
REMARK                         _______ _______ _______ _____ _____    ______ ____
ROOT
ATOM      1  N   UNL     1       2.219   5.446  19.565  0.00  0.00    +0.000 NA
ATOM      2  C   UNL     1       3.032   4.429  20.250  0.00  0.00    +0.000 C 
ATOM      3  C   UNL     1       2.582   2.960  20.253  0.00  0.00    +0.000 C 
ATOM      4  C   UNL     1       2.152   2.254  18.971  0.00  0.00    +0.000 C 
ATOM      5  N   UNL     1       2.555   2.807  17.689  0.00  0.00    +0.000 NA
ATOM      6  C   UNL     1       1.791   4.023  17.400  0.00  0.00    +0.000 C 
ATOM      7  C   UNL     1       2.226   5.337  18.082  0.00  0.00    +0.000 C 
ENDROOT
BRANCH   1   8
ATOM      8  C   UNL     1       2.750   6.805  19.886  0.00  0.00    +0.000 C 
BRANCH   8  12
ATOM      9  C   UNL     1      -0.102  10.080  20.130  0.00  0.00    +0.000 A 
ATOM     10  C   UNL     1       0.051   9.192  21.195  0.00  0.00    +0.000 A 
ATOM     11  C   UNL     1       0.962   8.129  21.105  0.00  0.00    +0.000 A 
ATOM     12  C   UNL     1       1.731   7.931  19.943  0.00  0.00    +0.000 A 
ATOM     13  C   UNL     1       1.569   8.830  18.879  0.00  0.00    +0.000 A 
ATOM     14  C   UNL     1       0.662   9.897  18.974  0.00  0.00    +0.000 A 
BRANCH   9  16
ATOM     15  N   UNL     1      -1.796  12.044  20.296  0.00  0.00    +0.000 NA
ATOM     16  C   UNL     1      -1.040  11.173  20.222  0.00  0.00    +0.000 C 
ENDBRANCH   9  16
ENDBRANCH   8  12
ENDBRANCH   1   8
BRANCH   5  17
ATOM     17  C   UNL     1       3.997   2.931  17.476  0.00  0.00    +0.000 C 
BRANCH  17  18
ATOM     18  C   UNL     1       4.388   3.922  16.367  0.00  0.00    +0.000 C 
BRANCH  18  19
ATOM     19  C   UNL     1       5.919   4.050  16.146  0.00  0.00    +0.000 C 
BRANCH  19  20
ATOM     20  C   UNL     1       6.212   4.207  14.656  0.00  0.00    +0.000 A 
ATOM     21  C   UNL     1       5.495   3.491  13.685  0.00  0.00    +0.000 A 
ATOM     22  C   UNL     1       5.907   3.499  12.349  0.00  0.00    +0.000 A 
ATOM     23  C   UNL     1       7.037   4.219  11.967  0.00  0.00    +0.000 A 
ATOM     24  C   UNL     1       7.747   4.950  12.916  0.00  0.00    +0.000 A 
ATOM     25  C   UNL     1       7.333   4.951  14.250  0.00  0.00    +0.000 A 
ENDBRANCH  19  20
BRANCH  19  26
ATOM     26  C   UNL     1       6.568   5.107  17.044  0.00  0.00    +0.000 A 
ATOM     27  C   UNL     1       6.424   6.470  16.728  0.00  0.00    +0.000 A 
ATOM     28  C   UNL     1       7.118   7.451  17.443  0.00  0.00    +0.000 A 
ATOM     29  C   UNL     1       7.944   7.091  18.504  0.00  0.00    +0.000 A 
ATOM     30  C   UNL     1       8.057   5.752  18.865  0.00  0.00    +0.000 A 
ATOM     31  C   UNL     1       7.374   4.771  18.142  0.00  0.00    +0.000 A 
ENDBRANCH  19  26
ENDBRANCH  18  19
ENDBRANCH  17  18
ENDBRANCH   5  17
TORSDOF 8
ENDMDL
MODEL 4
REMARK VINA RESULT:      -8.5      0.273      1.255
REMARK  Name = 
REMARK  8 active torsions:
REMARK  status: ('A' for Active; 'I' for Inactive)
REMARK    1  A    between atoms: C_2  and  C_3
REMARK    2  A    between atoms: C_6  and  C_7
REMARK    3  A    between atoms: C_7  and  N_8
REMARK    4  A    between atoms: N_12  and  C_13
REMARK    5  A    between atoms: C_13  and  C_14
REMARK    6  A    between atoms: C_14  and  C_15
REMARK    7  A    between atoms: C_15  and  C_16
REMARK    8  A    between atoms: C_15  and  C_22
REMARK                            x       y       z     vdW  Elec       q    Type
REMARK                         _______ _______ _______ _____ _____    ______ ____
ROOT
ATOM      1  N   UNL     1       2.110   3.647  20.431  0.00  0.00    +0.000 NA
ATOM      2  C   UNL     1       3.570   3.550  20.274  0.00  0.00    +0.000 C 
ATOM      3  C   UNL     1       4.196   2.274  19.691  0.00  0.00    +0.000 C 
ATOM      4  C   UNL     1       3.666   1.638  18.409  0.00  0.00    +0.000 C 
ATOM      5  N   UNL     1       2.859   2.437  17.503  0.00  0.00    +0.000 NA
ATOM      6  C   UNL     1       1.527   2.656  18.070  0.00  0.00    +0.000 C 
ATOM      7  C   UNL     1       1.362   3.747  19.149  0.00  0.00    +0.000 C 
ENDROOT
BRANCH   1   8
ATOM      8  C   UNL     1       1.776   4.880  21.205  0.00  0.00    +0.000 C 
BRANCH   8  12
ATOM      9  C   UNL     1       1.986   8.601  18.962  0.00  0.00    +0.000 A 
ATOM     10  C   UNL     1       2.612   7.449  18.485  0.00  0.00    +0.000 A 
ATOM     11  C   UNL     1       2.553   6.256  19.219  0.00  0.00    +0.000 A 
ATOM     12  C   UNL     1       1.873   6.196  20.451  0.00  0.00    +0.000 A 
ATOM     13  C   UNL     1       1.248   7.360  20.920  0.00  0.00    +0.000 A 
ATOM     14  C   UNL     1       1.302   8.551  20.180  0.00  0.00    +0.000 A 
BRANCH   9  16
ATOM     15  N   UNL     1       2.097  10.817  17.608  0.00  0.00    +0.000 NA
ATOM     16  C   UNL     1       2.048   9.829  18.207  0.00  0.00    +0.000 C 
ENDBRANCH   9  16
ENDBRANCH   8  12
ENDBRANCH   1   8
BRANCH   5  17
ATOM     17  C   UNL     1       3.500   3.644  16.978  0.00  0.00    +0.000 C 
BRANCH  17  18
ATOM     18  C   UNL     1       4.913   3.414  16.416  0.00  0.00    +0.000 C 
BRANCH  18  19
ATOM     19  C   UNL     1       5.542   4.670  15.756  0.00  0.00    +0.000 C 
BRANCH  19  20
ATOM     20  C   UNL     1       6.505   5.337  16.734  0.00  0.00    +0.000 A 
ATOM     21  C   UNL     1       7.206   4.597  17.698  0.00  0.00    +0.000 A 
ATOM     22  C   UNL     1       7.927   5.244  18.705  0.00  0.00    +0.000 A 
ATOM     23  C   UNL     1       7.957   6.636  18.762  0.00  0.00    +0.000 A 
ATOM     24  C   UNL     1       7.283   7.385  17.801  0.00  0.00    +0.000 A 
ATOM     25  C   UNL     1       6.569   6.740  16.789  0.00  0.00    +0.000 A 
ENDBRANCH  19  20
BRANCH  19  26
ATOM     26  C   UNL     1       6.125   4.390  14.368  0.00  0.00    +0.000 A 
ATOM     27  C   UNL     1       7.277   5.079  13.947  0.00  0.00    +0.000 A 
ATOM     28  C   UNL     1       7.752   4.953  12.638  0.00  0.00    +0.000 A 
ATOM     29  C   UNL     1       7.105   4.113  11.736  0.00  0.00    +0.000 A 
ATOM     30  C   UNL     1       5.995   3.382  12.151  0.00  0.00    +0.000 A 
ATOM     31  C   UNL     1       5.512   3.519  13.455  0.00  0.00    +0.000 A 
ENDBRANCH  19  26
ENDBRANCH  18  19
ENDBRANCH  17  18
ENDBRANCH   5  17
TORSDOF 8
ENDMDL
MODEL 5
REMARK VINA RESULT:      -8.3      1.658      2.150
REMARK  Name = 
REMARK  8 active torsions:
REMARK  status: ('A' for Active; 'I' for Inactive)
REMARK    1  A    between atoms: C_2  and  C_3
REMARK    2  A    between atoms: C_6  and  C_7
REMARK    3  A    between atoms: C_7  and  N_8
REMARK    4  A    between atoms: N_12  and  C_13
REMARK    5  A    between atoms: C_13  and  C_14
REMARK    6  A    between atoms: C_14  and  C_15
REMARK    7  A    between atoms: C_15  and  C_16
REMARK    8  A    between atoms: C_15  and  C_22
REMARK                            x       y       z     vdW  Elec       q    Type
REMARK                         _______ _______ _______ _____ _____    ______ ____
ROOT
ATOM      1  N   UNL     1       2.108   6.049  19.414  0.00  0.00    +0.000 NA
ATOM      2  C   UNL     1       2.853   5.193  20.352  0.00  0.00    +0.000 C 
ATOM      3  C   UNL     1       2.460   3.718  20.522  0.00  0.00    +0.000 C 
ATOM      4  C   UNL     1       2.240   2.806  19.319  0.00  0.00    +0.000 C 
ATOM      5  N   UNL     1       2.799   3.184  18.032  0.00  0.00    +0.000 NA
ATOM      6  C   UNL     1       2.041   4.298  17.459  0.00  0.00    +0.000 C 
ATOM      7  C   UNL     1       2.328   5.722  17.981  0.00  0.00    +0.000 C 
ENDROOT
BRANCH   1   8
ATOM      8  C   UNL     1       2.540   7.469  19.589  0.00  0.00    +0.000 C 
BRANCH   8  12
ATOM      9  C   UNL     1      -0.551  10.529  19.628  0.00  0.00    +0.000 A 
ATOM     10  C   UNL     1      -0.283   9.778  20.772  0.00  0.00    +0.000 A 
ATOM     11  C   UNL     1       0.706   8.783  20.750  0.00  0.00    +0.000 A 
ATOM     12  C   UNL     1       1.438   8.515  19.577  0.00  0.00    +0.000 A 
ATOM     13  C   UNL     1       1.159   9.276  18.434  0.00  0.00    +0.000 A 
ATOM     14  C   UNL     1       0.175  10.276  18.460  0.00  0.00    +0.000 A 
BRANCH   9  16
ATOM     15  N   UNL     1      -2.385  12.369  19.662  0.00  0.00    +0.000 NA
ATOM     16  C   UNL     1      -1.568  11.551  19.650  0.00  0.00    +0.000 C 
ENDBRANCH   9  16
ENDBRANCH   8  12
ENDBRANCH   1   8
BRANCH   5  17
ATOM     17  C   UNL     1       4.252   3.357  17.998  0.00  0.00    +0.000 C 
BRANCH  17  18
ATOM     18  C   UNL     1       4.875   3.176  16.604  0.00  0.00    +0.000 C 
BRANCH  18  19
ATOM     19  C   UNL     1       5.281   4.506  15.916  0.00  0.00    +0.000 C 
BRANCH  19  20
ATOM     20  C   UNL     1       6.087   5.364  16.888  0.00  0.00    +0.000 A 
ATOM     21  C   UNL     1       6.043   6.765  16.844  0.00  0.00    +0.000 A 
ATOM     22  C   UNL     1       6.932   7.528  17.606  0.00  0.00    +0.000 A 
ATOM     23  C   UNL     1       7.874   6.902  18.420  0.00  0.00    +0.000 A 
ATOM     24  C   UNL     1       7.917   5.512  18.490  0.00  0.00    +0.000 A 
ATOM     25  C   UNL     1       7.024   4.748  17.735  0.00  0.00    +0.000 A 
ENDBRANCH  19  20
BRANCH  19  26
ATOM     26  C   UNL     1       5.935   4.299  14.547  0.00  0.00    +0.000 A 
ATOM     27  C   UNL     1       7.122   4.985  14.233  0.00  0.00    +0.000 A 
ATOM     28  C   UNL     1       7.668   4.928  12.947  0.00  0.00    +0.000 A 
ATOM     29  C   UNL     1       7.055   4.162  11.960  0.00  0.00    +0.000 A 
ATOM     30  C   UNL     1       5.909   3.434  12.266  0.00  0.00    +0.000 A 
ATOM     31  C   UNL     1       5.356   3.501  13.548  0.00  0.00    +0.000 A 
ENDBRANCH  19  26
ENDBRANCH  18  19
ENDBRANCH  17  18
ENDBRANCH   5  17
TORSDOF 8
ENDMDL
MODEL 6
REMARK VINA RESULT:      -8.3      1.831      2.427
REMARK  Name = 
REMARK  8 active torsions:
REMARK  status: ('A' for Active; 'I' for Inactive)
REMARK    1  A    between atoms: C_2  and  C_3
REMARK    2  A    between atoms: C_6  and  C_7
REMARK    3  A    between atoms: C_7  and  N_8
REMARK    4  A    between atoms: N_12  and  C_13
REMARK    5  A    between atoms: C_13  and  C_14
REMARK    6  A    between atoms: C_14  and  C_15
REMARK    7  A    between atoms: C_15  and  C_16
REMARK    8  A    between atoms: C_15  and  C_22
REMARK                            x       y       z     vdW  Elec       q    Type
REMARK                         _______ _______ _______ _____ _____    ______ ____
ROOT
ATOM      1  N   UNL     1       2.120   6.119  19.224  0.00  0.00    +0.000 NA
ATOM      2  C   UNL     1       3.179   5.565  20.082  0.00  0.00    +0.000 C 
ATOM      3  C   UNL     1       3.090   4.110  20.570  0.00  0.00    +0.000 C 
ATOM      4  C   UNL     1       2.784   2.964  19.611  0.00  0.00    +0.000 C 
ATOM      5  N   UNL     1       2.991   3.159  18.185  0.00  0.00    +0.000 NA
ATOM      6  C   UNL     1       1.949   4.033  17.639  0.00  0.00    +0.000 C 
ATOM      7  C   UNL     1       2.089   5.555  17.848  0.00  0.00    +0.000 C 
ENDROOT
BRANCH   1   8
ATOM      8  C   UNL     1       2.328   7.590  19.067  0.00  0.00    +0.000 C 
BRANCH   8  12
ATOM      9  C   UNL     1      -0.073  10.180  21.607  0.00  0.00    +0.000 A 
ATOM     10  C   UNL     1       0.339   8.926  22.060  0.00  0.00    +0.000 A 
ATOM     11  C   UNL     1       1.102   8.090  21.232  0.00  0.00    +0.000 A 
ATOM     12  C   UNL     1       1.458   8.489  19.929  0.00  0.00    +0.000 A 
ATOM     13  C   UNL     1       1.038   9.751  19.485  0.00  0.00    +0.000 A 
ATOM     14  C   UNL     1       0.281  10.590  20.318  0.00  0.00    +0.000 A 
BRANCH   9  16
ATOM     15  N   UNL     1      -1.490  11.725  23.143  0.00  0.00    +0.000 NA
ATOM     16  C   UNL     1      -0.857  11.040  22.459  0.00  0.00    +0.000 C 
ENDBRANCH   9  16
ENDBRANCH   8  12
ENDBRANCH   1   8
BRANCH   5  17
ATOM     17  C   UNL     1       4.352   3.513  17.783  0.00  0.00    +0.000 C 
BRANCH  17  18
ATOM     18  C   UNL     1       4.602   3.435  16.268  0.00  0.00    +0.000 C 
BRANCH  18  19
ATOM     19  C   UNL     1       5.269   4.704  15.673  0.00  0.00    +0.000 C 
BRANCH  19  20
ATOM     20  C   UNL     1       6.100   5.401  16.747  0.00  0.00    +0.000 A 
ATOM     21  C   UNL     1       6.079   6.795  16.905  0.00  0.00    +0.000 A 
ATOM     22  C   UNL     1       6.989   7.428  17.756  0.00  0.00    +0.000 A 
ATOM     23  C   UNL     1       7.929   6.677  18.460  0.00  0.00    +0.000 A 
ATOM     24  C   UNL     1       7.949   5.291  18.329  0.00  0.00    +0.000 A 
ATOM     25  C   UNL     1       7.036   4.656  17.485  0.00  0.00    +0.000 A 
ENDBRANCH  19  20
BRANCH  19  26
ATOM     26  C   UNL     1       6.012   4.432  14.361  0.00  0.00    +0.000 A 
ATOM     27  C   UNL     1       7.180   5.156  14.062  0.00  0.00    +0.000 A 
ATOM     28  C   UNL     1       7.802   5.035  12.815  0.00  0.00    +0.000 A 
ATOM     29  C   UNL     1       7.286   4.166  11.857  0.00  0.00    +0.000 A 
ATOM     30  C   UNL     1       6.162   3.402  12.155  0.00  0.00    +0.000 A 
ATOM     31  C   UNL     1       5.533   3.533  13.396  0.00  0.00    +0.000 A 
ENDBRANCH  19  26
ENDBRANCH  18  19
ENDBRANCH  17  18
ENDBRANCH   5  17
TORSDOF 8
ENDMDL
MODEL 7
REMARK VINA RESULT:      -8.3      1.515      3.863
REMARK  Name = 
REMARK  8 active torsions:
REMARK  status: ('A' for Active; 'I' for Inactive)
REMARK    1  A    between atoms: C_2  and  C_3
REMARK    2  A    between atoms: C_6  and  C_7
REMARK    3  A    between atoms: C_7  and  N_8
REMARK    4  A    between atoms: N_12  and  C_13
REMARK    5  A    between atoms: C_13  and  C_14
REMARK    6  A    between atoms: C_14  and  C_15
REMARK    7  A    between atoms: C_15  and  C_16
REMARK    8  A    between atoms: C_15  and  C_22
REMARK                            x       y       z     vdW  Elec       q    Type
REMARK                         _______ _______ _______ _____ _____    ______ ____
ROOT
ATOM      1  N   UNL     1       2.209   5.552  19.473  0.00  0.00    +0.000 NA
ATOM      2  C   UNL     1       2.964   4.545  20.235  0.00  0.00    +0.000 C 
ATOM      3  C   UNL     1       2.469   3.091  20.285  0.00  0.00    +0.000 C 
ATOM      4  C   UNL     1       2.068   2.340  19.019  0.00  0.00    +0.000 C 
ATOM      5  N   UNL     1       2.538   2.822  17.731  0.00  0.00    +0.000 NA
ATOM      6  C   UNL     1       1.823   4.045  17.358  0.00  0.00    +0.000 C 
ATOM      7  C   UNL     1       2.271   5.376  17.997  0.00  0.00    +0.000 C 
ENDROOT
BRANCH   1   8
ATOM      8  C   UNL     1       2.768   6.909  19.754  0.00  0.00    +0.000 C 
BRANCH   8  12
ATOM      9  C   UNL     1      -0.167  10.116  19.881  0.00  0.00    +0.000 A 
ATOM     10  C   UNL     1       0.592   9.895  18.732  0.00  0.00    +0.000 A 
ATOM     11  C   UNL     1       1.547   8.868  18.702  0.00  0.00    +0.000 A 
ATOM     12  C   UNL     1       1.766   8.049  19.826  0.00  0.00    +0.000 A 
ATOM     13  C   UNL     1       0.997   8.280  20.975  0.00  0.00    +0.000 A 
ATOM     14  C   UNL     1       0.037   9.304  21.001  0.00  0.00    +0.000 A 
BRANCH   9  16
ATOM     15  N   UNL     1      -1.935  12.020  19.945  0.00  0.00    +0.000 NA
ATOM     16  C   UNL     1      -1.149  11.173  19.913  0.00  0.00    +0.000 C 
ENDBRANCH   9  16
ENDBRANCH   8  12
ENDBRANCH   1   8
BRANCH   5  17
ATOM     17  C   UNL     1       3.990   2.895  17.571  0.00  0.00    +0.000 C 
BRANCH  17  18
ATOM     18  C   UNL     1       4.458   3.903  16.509  0.00  0.00    +0.000 C 
BRANCH  18  19
ATOM     19  C   UNL     1       6.000   3.983  16.350  0.00  0.00    +0.000 C 
BRANCH  19  20
ATOM     20  C   UNL     1       6.363   4.009  14.867  0.00  0.00    +0.000 A 
ATOM     21  C   UNL     1       7.432   4.779  14.384  0.00  0.00    +0.000 A 
ATOM     22  C   UNL     1       7.625   4.944  13.010  0.00  0.00    +0.000 A 
ATOM     23  C   UNL     1       6.755   4.343  12.102  0.00  0.00    +0.000 A 
ATOM     24  C   UNL     1       5.701   3.559  12.566  0.00  0.00    +0.000 A 
ATOM     25  C   UNL     1       5.511   3.386  13.939  0.00  0.00    +0.000 A 
ENDBRANCH  19  20
BRANCH  19  26
ATOM     26  C   UNL     1       6.632   5.099  17.186  0.00  0.00    +0.000 A 
ATOM     27  C   UNL     1       6.424   6.442  16.823  0.00  0.00    +0.000 A 
ATOM     28  C   UNL     1       7.099   7.477  17.478  0.00  0.00    +0.000 A 
ATOM     29  C   UNL     1       7.969   7.191  18.527  0.00  0.00    +0.000 A 
ATOM     30  C   UNL     1       8.147   5.873  18.934  0.00  0.00    +0.000 A 
ATOM     31  C   UNL     1       7.483   4.838  18.272  0.00  0.00    +0.000 A 
ENDBRANCH  19  26
ENDBRANCH  18  19
ENDBRANCH  17  18
ENDBRANCH   5  17
TORSDOF 8
ENDMDL
MODEL 8
REMARK VINA RESULT:      -8.2      1.373      3.845
REMARK  Name = 
REMARK  8 active torsions:
REMARK  status: ('A' for Active; 'I' for Inactive)
REMARK    1  A    between atoms: C_2  and  C_3
REMARK    2  A    between atoms: C_6  and  C_7
REMARK    3  A    between atoms: C_7  and  N_8
REMARK    4  A    between atoms: N_12  and  C_13
REMARK    5  A    between atoms: C_13  and  C_14
REMARK    6  A    between atoms: C_14  and  C_15
REMARK    7  A    between atoms: C_15  and  C_16
REMARK    8  A    between atoms: C_15  and  C_22
REMARK                            x       y       z     vdW  Elec       q    Type
REMARK                         _______ _______ _______ _____ _____    ______ ____
ROOT
ATOM      1  N   UNL     1       2.071   5.561  19.792  0.00  0.00    +0.000 NA
ATOM      2  C   UNL     1       2.902   4.508  20.397  0.00  0.00    +0.000 C 
ATOM      3  C   UNL     1       2.565   3.029  20.154  0.00  0.00    +0.000 C 
ATOM      4  C   UNL     1       2.290   2.492  18.752  0.00  0.00    +0.000 C 
ATOM      5  N   UNL     1       2.750   3.251  17.601  0.00  0.00    +0.000 NA
ATOM      6  C   UNL     1       1.922   4.446  17.420  0.00  0.00    +0.000 C 
ATOM      7  C   UNL     1       2.202   5.671  18.315  0.00  0.00    +0.000 C 
ENDROOT
BRANCH   1   8
ATOM      8  C   UNL     1       2.472   6.889  20.347  0.00  0.00    +0.000 C 
BRANCH   8  12
ATOM      9  C   UNL     1       0.040  10.236  19.003  0.00  0.00    +0.000 A 
ATOM     10  C   UNL     1       1.020   9.692  18.172  0.00  0.00    +0.000 A 
ATOM     11  C   UNL     1       1.810   8.622  18.615  0.00  0.00    +0.000 A 
ATOM     12  C   UNL     1       1.641   8.082  19.905  0.00  0.00    +0.000 A 
ATOM     13  C   UNL     1       0.654   8.636  20.731  0.00  0.00    +0.000 A 
ATOM     14  C   UNL     1      -0.142   9.702  20.283  0.00  0.00    +0.000 A 
BRANCH   9  16
ATOM     15  N   UNL     1      -1.420  12.220  18.177  0.00  0.00    +0.000 NA
ATOM     16  C   UNL     1      -0.773  11.337  18.547  0.00  0.00    +0.000 C 
ENDBRANCH   9  16
ENDBRANCH   8  12
ENDBRANCH   1   8
BRANCH   5  17
ATOM     17  C   UNL     1       4.191   3.496  17.536  0.00  0.00    +0.000 C 
BRANCH  17  18
ATOM     18  C   UNL     1       4.680   4.031  16.180  0.00  0.00    +0.000 C 
BRANCH  18  19
ATOM     19  C   UNL     1       6.224   4.048  16.027  0.00  0.00    +0.000 C 
BRANCH  19  20
ATOM     20  C   UNL     1       6.594   4.084  14.547  0.00  0.00    +0.000 A 
ATOM     21  C   UNL     1       7.587   4.947  14.057  0.00  0.00    +0.000 A 
ATOM     22  C   UNL     1       7.773   5.107  12.682  0.00  0.00    +0.000 A 
ATOM     23  C   UNL     1       6.972   4.411  11.779  0.00  0.00    +0.000 A 
ATOM     24  C   UNL     1       5.996   3.536  12.250  0.00  0.00    +0.000 A 
ATOM     25  C   UNL     1       5.813   3.368  13.624  0.00  0.00    +0.000 A 
ENDBRANCH  19  20
BRANCH  19  26
ATOM     26  C   UNL     1       6.900   5.120  16.886  0.00  0.00    +0.000 A 
ATOM     27  C   UNL     1       7.621   4.739  18.033  0.00  0.00    +0.000 A 
ATOM     28  C   UNL     1       8.130   5.697  18.915  0.00  0.00    +0.000 A 
ATOM     29  C   UNL     1       7.955   7.053  18.651  0.00  0.00    +0.000 A 
ATOM     30  C   UNL     1       7.290   7.450  17.495  0.00  0.00    +0.000 A 
ATOM     31  C   UNL     1       6.771   6.492  16.620  0.00  0.00    +0.000 A 
ENDBRANCH  19  26
ENDBRANCH  18  19
ENDBRANCH  17  18
ENDBRANCH   5  17
TORSDOF 8
ENDMDL
MODEL 9
REMARK VINA RESULT:      -8.2      1.741      4.107
REMARK  Name = 
REMARK  8 active torsions:
REMARK  status: ('A' for Active; 'I' for Inactive)
REMARK    1  A    between atoms: C_2  and  C_3
REMARK    2  A    between atoms: C_6  and  C_7
REMARK    3  A    between atoms: C_7  and  N_8
REMARK    4  A    between atoms: N_12  and  C_13
REMARK    5  A    between atoms: C_13  and  C_14
REMARK    6  A    between atoms: C_14  and  C_15
REMARK    7  A    between atoms: C_15  and  C_16
REMARK    8  A    between atoms: C_15  and  C_22
REMARK                            x       y       z     vdW  Elec       q    Type
REMARK                         _______ _______ _______ _____ _____    ______ ____
ROOT
ATOM      1  N   UNL     1       2.184   6.270  18.997  0.00  0.00    +0.000 NA
ATOM      2  C   UNL     1       3.113   5.702  19.988  0.00  0.00    +0.000 C 
ATOM      3  C   UNL     1       2.852   4.305  20.573  0.00  0.00    +0.000 C 
ATOM      4  C   UNL     1       2.526   3.113  19.679  0.00  0.00    +0.000 C 
ATOM      5  N   UNL     1       2.868   3.172  18.267  0.00  0.00    +0.000 NA
ATOM      6  C   UNL     1       1.960   4.081  17.564  0.00  0.00    +0.000 C 
ATOM      7  C   UNL     1       2.219   5.598  17.671  0.00  0.00    +0.000 C 
ENDROOT
BRANCH   1   8
ATOM      8  C   UNL     1       2.537   7.700  18.750  0.00  0.00    +0.000 C 
BRANCH   8  12
ATOM      9  C   UNL     1      -0.380  10.617  20.131  0.00  0.00    +0.000 A 
ATOM     10  C   UNL     1       0.089  10.650  18.817  0.00  0.00    +0.000 A 
ATOM     11  C   UNL     1       1.040   9.716  18.381  0.00  0.00    +0.000 A 
ATOM     12  C   UNL     1       1.547   8.736  19.256  0.00  0.00    +0.000 A 
ATOM     13  C   UNL     1       1.068   8.712  20.574  0.00  0.00    +0.000 A 
ATOM     14  C   UNL     1       0.111   9.643  21.006  0.00  0.00    +0.000 A 
BRANCH   9  16
ATOM     15  N   UNL     1      -2.136  12.352  20.941  0.00  0.00    +0.000 NA
ATOM     16  C   UNL     1      -1.357  11.578  20.580  0.00  0.00    +0.000 C 
ENDBRANCH   9  16
ENDBRANCH   8  12
ENDBRANCH   1   8
BRANCH   5  17
ATOM     17  C   UNL     1       4.285   3.376  17.965  0.00  0.00    +0.000 C 
BRANCH  17  18
ATOM     18  C   UNL     1       4.574   3.717  16.494  0.00  0.00    +0.000 C 
BRANCH  18  19
ATOM     19  C   UNL     1       6.071   3.990  16.191  0.00  0.00    +0.000 C 
BRANCH  19  20
ATOM     20  C   UNL     1       6.267   4.172  14.689  0.00  0.00    +0.000 A 
ATOM     21  C   UNL     1       5.470   3.494  13.755  0.00  0.00    +0.000 A 
ATOM     22  C   UNL     1       5.791   3.521  12.395  0.00  0.00    +0.000 A 
ATOM     23  C   UNL     1       6.910   4.223  11.951  0.00  0.00    +0.000 A 
ATOM     24  C   UNL     1       7.700   4.918  12.864  0.00  0.00    +0.000 A 
ATOM     25  C   UNL     1       7.376   4.900  14.222  0.00  0.00    +0.000 A 
ENDBRANCH  19  20
BRANCH  19  26
ATOM     26  C   UNL     1       6.665   5.105  17.057  0.00  0.00    +0.000 A 
ATOM     27  C   UNL     1       6.383   6.449  16.749  0.00  0.00    +0.000 A 
ATOM     28  C   UNL     1       7.019   7.492  17.430  0.00  0.00    +0.000 A 
ATOM     29  C   UNL     1       7.924   7.212  18.450  0.00  0.00    +0.000 A 
ATOM     30  C   UNL     1       8.176   5.890  18.804  0.00  0.00    +0.000 A 
ATOM     31  C   UNL     1       7.550   4.848  18.116  0.00  0.00    +0.000 A 
ENDBRANCH  19  26
ENDBRANCH  18  19
ENDBRANCH  17  18
ENDBRANCH   5  17
TORSDOF 8
ENDMDL
