MODEL 1
REMARK VINA RESULT:      -7.0      0.000      0.000
REMARK  Name = 
REMARK  7 active torsions:
REMARK  status: ('A' for Active; 'I' for Inactive)
REMARK    1  A    between atoms: C_1  and  C_2
REMARK    2  A    between atoms: C_2  and  O_3
REMARK    3  A    between atoms: O_3  and  C_4
REMARK    4  A    between atoms: C_7  and  C_8
REMARK    5  A    between atoms: C_8  and  S_9
REMARK    6  A    between atoms: S_9  and  C_10
REMARK    7  A    between atoms: C_14  and  N_15
REMARK                            x       y       z     vdW  Elec       q    Type
REMARK                         _______ _______ _______ _____ _____    ______ ____
ROOT
ATOM      1  C   UNL     1       5.624   6.481  16.877  0.00  0.00    +0.000 A 
ATOM      2  C   UNL     1       4.451   6.708  17.605  0.00  0.00    +0.000 A 
ATOM      3  C   UNL     1       3.491   5.704  17.760  0.00  0.00    +0.000 A 
ATOM      4  C   UNL     1       3.645   4.444  17.167  0.00  0.00    +0.000 A 
ATOM      5  C   UNL     1       4.817   4.195  16.441  0.00  0.00    +0.000 A 
ATOM      6  C   UNL     1       5.784   5.214  16.306  0.00  0.00    +0.000 A 
ENDROOT
BRANCH   6   7
ATOM      7  N   UNL     1       6.988   4.894  15.558  0.00  0.00    +0.000 N 
ATOM      8  O   UNL     1       7.923   4.366  16.175  0.00  0.00    +0.000 OA
ATOM      9  O   UNL     1       7.016   5.243  14.369  0.00  0.00    +0.000 OA
ENDBRANCH   6   7
BRANCH   1  10
ATOM     10  O   UNL     1       6.611   7.421  16.721  0.00  0.00    +0.000 OA
BRANCH  10  12
ATOM     11  C   UNL     1       8.174   8.880  17.861  0.00  0.00    +0.000 C 
ATOM     12  C   UNL     1       7.597   7.481  17.758  0.00  0.00    +0.000 C 
ENDBRANCH  10  12
ENDBRANCH   1  10
BRANCH   4  13
ATOM     13  C   UNL     1       2.570   3.391  17.334  0.00  0.00    +0.000 C 
BRANCH  13  14
ATOM     14  S   UNL     1       2.505   2.792  19.053  0.00  0.00    +0.000 S 
BRANCH  14  15
ATOM     15  C   UNL     1       3.978   1.896  19.131  0.00  0.00    +0.000 C 
ATOM     16  N   UNL     1       4.925   2.237  19.924  0.00  0.00    +0.000 NA
ATOM     17  N   UNL     1       4.027   0.782  18.374  0.00  0.00    +0.000 N 
ATOM     18  H   UNL     1       4.636   3.071  20.442  0.00  0.00    +0.000 HD
ATOM     19  H   UNL     1       3.119   0.382  18.170  0.00  0.00    +0.000 HD
ATOM     20  H   UNL     1       4.698   0.111  18.726  0.00  0.00    +0.000 HD
ENDBRANCH  14  15
ENDBRANCH  13  14
ENDBRANCH   4  13
TORSDOF 6
ENDMDL
MODEL 2
REMARK VINA RESULT:      -7.0      0.087      1.098
REMARK  Name = 
REMARK  7 active torsions:
REMARK  status: ('A' for Active; 'I' for Inactive)
REMARK    1  A    between atoms: C_1  and  C_2
REMARK    2  A    between atoms: C_2  and  O_3
REMARK    3  A    between atoms: O_3  and  C_4
REMARK    4  A    between atoms: C_7  and  C_8
REMARK    5  A    between atoms: C_8  and  S_9
REMARK    6  A    between atoms: S_9  and  C_10
REMARK    7  A    between atoms: C_14  and  N_15
REMARK                            x       y       z     vdW  Elec       q    Type
REMARK                         _______ _______ _______ _____ _____    ______ ____
ROOT
ATOM      1  C   UNL     1       5.643   6.573  16.886  0.00  0.00    +0.000 A 
ATOM      2  C   UNL     1       4.471   6.808  17.611  0.00  0.00    +0.000 A 
ATOM      3  C   UNL     1       3.509   5.807  17.774  0.00  0.00    +0.000 A 
ATOM      4  C   UNL     1       3.661   4.542  17.190  0.00  0.00    +0.000 A 
ATOM      5  C   UNL     1       4.832   4.285  16.466  0.00  0.00    +0.000 A 
ATOM      6  C   UNL     1       5.801   5.302  16.324  0.00  0.00    +0.000 A 
ENDROOT
BRANCH   6   7
ATOM      7  N   UNL     1       7.005   4.973  15.579  0.00  0.00    +0.000 N 
ATOM      8  O   UNL     1       7.015   5.223  14.366  0.00  0.00    +0.000 OA
ATOM      9  O   UNL     1       7.908   4.398  16.205  0.00  0.00    +0.000 OA
ENDBRANCH   6   7
BRANCH   1  10
ATOM     10  O   UNL     1       6.633   7.510  16.723  0.00  0.00    +0.000 OA
BRANCH  10  12
ATOM     11  C   UNL     1       8.152   8.971  17.918  0.00  0.00    +0.000 C 
ATOM     12  C   UNL     1       7.635   7.555  17.745  0.00  0.00    +0.000 C 
ENDBRANCH  10  12
ENDBRANCH   1  10
BRANCH   4  13
ATOM     13  C   UNL     1       2.583   3.492  17.364  0.00  0.00    +0.000 C 
BRANCH  13  14
ATOM     14  S   UNL     1       2.528   2.893  19.084  0.00  0.00    +0.000 S 
BRANCH  14  15
ATOM     15  C   UNL     1       3.916   1.866  19.105  0.00  0.00    +0.000 C 
ATOM     16  N   UNL     1       4.000   0.843  18.339  0.00  0.00    +0.000 NA
ATOM     17  N   UNL     1       4.923   2.259  19.911  0.00  0.00    +0.000 N 
ATOM     18  H   UNL     1       3.149   0.784  17.775  0.00  0.00    +0.000 HD
ATOM     19  H   UNL     1       4.941   3.255  20.094  0.00  0.00    +0.000 HD
ATOM     20  H   UNL     1       5.816   1.884  19.615  0.00  0.00    +0.000 HD
ENDBRANCH  14  15
ENDBRANCH  13  14
ENDBRANCH   4  13
TORSDOF 6
ENDMDL
MODEL 3
REMARK VINA RESULT:      -6.7      1.667      1.988
REMARK  Name = 
REMARK  7 active torsions:
REMARK  status: ('A' for Active; 'I' for Inactive)
REMARK    1  A    between atoms: C_1  and  C_2
REMARK    2  A    between atoms: C_2  and  O_3
REMARK    3  A    between atoms: O_3  and  C_4
REMARK    4  A    between atoms: C_7  and  C_8
REMARK    5  A    between atoms: C_8  and  S_9
REMARK    6  A    between atoms: S_9  and  C_10
REMARK    7  A    between atoms: C_14  and  N_15
REMARK                            x       y       z     vdW  Elec       q    Type
REMARK                         _______ _______ _______ _____ _____    ______ ____
ROOT
ATOM      1  C   UNL     1       5.963   6.606  16.948  0.00  0.00    +0.000 A 
ATOM      2  C   UNL     1       4.720   7.037  17.422  0.00  0.00    +0.000 A 
ATOM      3  C   UNL     1       3.663   6.140  17.599  0.00  0.00    +0.000 A 
ATOM      4  C   UNL     1       3.793   4.782  17.277  0.00  0.00    +0.000 A 
ATOM      5  C   UNL     1       5.033   4.329  16.809  0.00  0.00    +0.000 A 
ATOM      6  C   UNL     1       6.095   5.246  16.650  0.00  0.00    +0.000 A 
ENDROOT
BRANCH   6   7
ATOM      7  N   UNL     1       7.364   4.718  16.180  0.00  0.00    +0.000 N 
ATOM      8  O   UNL     1       7.583   4.751  14.961  0.00  0.00    +0.000 OA
ATOM      9  O   UNL     1       8.105   4.205  17.031  0.00  0.00    +0.000 OA
ENDBRANCH   6   7
BRANCH   1  10
ATOM     10  O   UNL     1       7.042   7.440  16.787  0.00  0.00    +0.000 OA
BRANCH  10  12
ATOM     11  C   UNL     1       8.253   9.135  18.023  0.00  0.00    +0.000 C 
ATOM     12  C   UNL     1       7.837   7.678  17.954  0.00  0.00    +0.000 C 
ENDBRANCH  10  12
ENDBRANCH   1  10
BRANCH   4  13
ATOM     13  C   UNL     1       2.616   3.845  17.455  0.00  0.00    +0.000 C 
BRANCH  13  14
ATOM     14  S   UNL     1       2.735   2.941  19.032  0.00  0.00    +0.000 S 
BRANCH  14  15
ATOM     15  C   UNL     1       1.067   2.625  19.342  0.00  0.00    +0.000 C 
ATOM     16  N   UNL     1       0.363   1.911  18.543  0.00  0.00    +0.000 NA
ATOM     17  N   UNL     1       0.586   3.104  20.506  0.00  0.00    +0.000 N 
ATOM     18  H   UNL     1       0.956   1.606  17.767  0.00  0.00    +0.000 HD
ATOM     19  H   UNL     1       1.291   3.231  21.223  0.00  0.00    +0.000 HD
ATOM     20  H   UNL     1      -0.228   2.591  20.823  0.00  0.00    +0.000 HD
ENDBRANCH  14  15
ENDBRANCH  13  14
ENDBRANCH   4  13
TORSDOF 6
ENDMDL
MODEL 4
REMARK VINA RESULT:      -6.7      0.826      1.051
REMARK  Name = 
REMARK  7 active torsions:
REMARK  status: ('A' for Active; 'I' for Inactive)
REMARK    1  A    between atoms: C_1  and  C_2
REMARK    2  A    between atoms: C_2  and  O_3
REMARK    3  A    between atoms: O_3  and  C_4
REMARK    4  A    between atoms: C_7  and  C_8
REMARK    5  A    between atoms: C_8  and  S_9
REMARK    6  A    between atoms: S_9  and  C_10
REMARK    7  A    between atoms: C_14  and  N_15
REMARK                            x       y       z     vdW  Elec       q    Type
REMARK                         _______ _______ _______ _____ _____    ______ ____
ROOT
ATOM      1  C   UNL     1       5.668   6.334  16.772  0.00  0.00    +0.000 A 
ATOM      2  C   UNL     1       4.529   6.724  17.484  0.00  0.00    +0.000 A 
ATOM      3  C   UNL     1       3.508   5.812  17.771  0.00  0.00    +0.000 A 
ATOM      4  C   UNL     1       3.567   4.484  17.330  0.00  0.00    +0.000 A 
ATOM      5  C   UNL     1       4.705   4.071  16.623  0.00  0.00    +0.000 A 
ATOM      6  C   UNL     1       5.733   5.001  16.355  0.00  0.00    +0.000 A 
ENDROOT
BRANCH   6   7
ATOM      7  N   UNL     1       6.897   4.513  15.634  0.00  0.00    +0.000 N 
ATOM      8  O   UNL     1       7.938   4.334  16.281  0.00  0.00    +0.000 OA
ATOM      9  O   UNL     1       6.779   4.383  14.407  0.00  0.00    +0.000 OA
ENDBRANCH   6   7
BRANCH   1  10
ATOM     10  O   UNL     1       6.711   7.180  16.492  0.00  0.00    +0.000 OA
BRANCH  10  12
ATOM     11  C   UNL     1       8.016   6.903  18.513  0.00  0.00    +0.000 C 
ATOM     12  C   UNL     1       7.281   7.873  17.608  0.00  0.00    +0.000 C 
ENDBRANCH  10  12
ENDBRANCH   1  10
BRANCH   4  13
ATOM     13  C   UNL     1       2.429   3.533  17.636  0.00  0.00    +0.000 C 
BRANCH  13  14
ATOM     14  S   UNL     1       3.059   1.941  18.263  0.00  0.00    +0.000 S 
BRANCH  14  15
ATOM     15  C   UNL     1       3.745   2.443  19.765  0.00  0.00    +0.000 C 
ATOM     16  N   UNL     1       3.011   2.882  20.720  0.00  0.00    +0.000 NA
ATOM     17  N   UNL     1       5.074   2.264  19.891  0.00  0.00    +0.000 N 
ATOM     18  H   UNL     1       2.034   2.867  20.417  0.00  0.00    +0.000 HD
ATOM     19  H   UNL     1       5.449   1.528  19.304  0.00  0.00    +0.000 HD
ATOM     20  H   UNL     1       5.360   2.196  20.860  0.00  0.00    +0.000 HD
ENDBRANCH  14  15
ENDBRANCH  13  14
ENDBRANCH   4  13
TORSDOF 6
ENDMDL
MODEL 5
REMARK VINA RESULT:      -6.7      1.710      1.877
REMARK  Name = 
REMARK  7 active torsions:
REMARK  status: ('A' for Active; 'I' for Inactive)
REMARK    1  A    between atoms: C_1  and  C_2
REMARK    2  A    between atoms: C_2  and  O_3
REMARK    3  A    between atoms: O_3  and  C_4
REMARK    4  A    between atoms: C_7  and  C_8
REMARK    5  A    between atoms: C_8  and  S_9
REMARK    6  A    between atoms: S_9  and  C_10
REMARK    7  A    between atoms: C_14  and  N_15
REMARK                            x       y       z     vdW  Elec       q    Type
REMARK                         _______ _______ _______ _____ _____    ______ ____
ROOT
ATOM      1  C   UNL     1       5.798   6.522  17.095  0.00  0.00    +0.000 A 
ATOM      2  C   UNL     1       4.576   6.935  17.634  0.00  0.00    +0.000 A 
ATOM      3  C   UNL     1       3.605   6.007  18.020  0.00  0.00    +0.000 A 
ATOM      4  C   UNL     1       3.800   4.629  17.851  0.00  0.00    +0.000 A 
ATOM      5  C   UNL     1       5.022   4.195  17.320  0.00  0.00    +0.000 A 
ATOM      6  C   UNL     1       5.998   5.145  16.950  0.00  0.00    +0.000 A 
ENDROOT
BRANCH   6   7
ATOM      7  N   UNL     1       7.254   4.637  16.423  0.00  0.00    +0.000 N 
ATOM      8  O   UNL     1       7.390   4.609  15.192  0.00  0.00    +0.000 OA
ATOM      9  O   UNL     1       8.069   4.200  17.249  0.00  0.00    +0.000 OA
ENDBRANCH   6   7
BRANCH   1  10
ATOM     10  O   UNL     1       6.797   7.390  16.730  0.00  0.00    +0.000 OA
BRANCH  10  12
ATOM     11  C   UNL     1       8.037   9.174  17.801  0.00  0.00    +0.000 C 
ATOM     12  C   UNL     1       7.779   7.681  17.731  0.00  0.00    +0.000 C 
ENDBRANCH  10  12
ENDBRANCH   1  10
BRANCH   4  13
ATOM     13  C   UNL     1       2.713   3.655  18.254  0.00  0.00    +0.000 C 
BRANCH  13  14
ATOM     14  S   UNL     1       3.189   2.729  19.750  0.00  0.00    +0.000 S 
BRANCH  14  15
ATOM     15  C   UNL     1       1.736   2.853  20.674  0.00  0.00    +0.000 C 
ATOM     16  N   UNL     1       1.729   2.640  21.938  0.00  0.00    +0.000 NA
ATOM     17  N   UNL     1       0.645   3.265  19.998  0.00  0.00    +0.000 N 
ATOM     18  H   UNL     1       2.679   2.407  22.237  0.00  0.00    +0.000 HD
ATOM     19  H   UNL     1       0.854   3.818  19.175  0.00  0.00    +0.000 HD
ATOM     20  H   UNL     1      -0.045   3.686  20.608  0.00  0.00    +0.000 HD
ENDBRANCH  14  15
ENDBRANCH  13  14
ENDBRANCH   4  13
TORSDOF 6
ENDMDL
MODEL 6
REMARK VINA RESULT:      -6.6      3.642      5.246
REMARK  Name = 
REMARK  7 active torsions:
REMARK  status: ('A' for Active; 'I' for Inactive)
REMARK    1  A    between atoms: C_1  and  C_2
REMARK    2  A    between atoms: C_2  and  O_3
REMARK    3  A    between atoms: O_3  and  C_4
REMARK    4  A    between atoms: C_7  and  C_8
REMARK    5  A    between atoms: C_8  and  S_9
REMARK    6  A    between atoms: S_9  and  C_10
REMARK    7  A    between atoms: C_14  and  N_15
REMARK                            x       y       z     vdW  Elec       q    Type
REMARK                         _______ _______ _______ _____ _____    ______ ____
ROOT
ATOM      1  C   UNL     1       2.505   4.717  18.668  0.00  0.00    +0.000 A 
ATOM      2  C   UNL     1       2.873   6.064  18.592  0.00  0.00    +0.000 A 
ATOM      3  C   UNL     1       4.006   6.464  17.876  0.00  0.00    +0.000 A 
ATOM      4  C   UNL     1       4.835   5.532  17.237  0.00  0.00    +0.000 A 
ATOM      5  C   UNL     1       4.477   4.179  17.294  0.00  0.00    +0.000 A 
ATOM      6  C   UNL     1       3.322   3.793  18.009  0.00  0.00    +0.000 A 
ENDROOT
BRANCH   6   7
ATOM      7  N   UNL     1       2.989   2.379  18.019  0.00  0.00    +0.000 N 
ATOM      8  O   UNL     1       3.686   1.631  18.717  0.00  0.00    +0.000 OA
ATOM      9  O   UNL     1       2.072   2.017  17.268  0.00  0.00    +0.000 OA
ENDBRANCH   6   7
BRANCH   1  10
ATOM     10  O   UNL     1       1.386   4.275  19.331  0.00  0.00    +0.000 OA
BRANCH  10  12
ATOM     11  C   UNL     1       1.451   2.821  21.268  0.00  0.00    +0.000 C 
ATOM     12  C   UNL     1       1.467   4.251  20.760  0.00  0.00    +0.000 C 
ENDBRANCH  10  12
ENDBRANCH   1  10
BRANCH   4  13
ATOM     13  C   UNL     1       6.069   6.001  16.495  0.00  0.00    +0.000 C 
BRANCH  13  14
ATOM     14  S   UNL     1       7.243   6.813  17.628  0.00  0.00    +0.000 S 
BRANCH  14  15
ATOM     15  C   UNL     1       7.702   5.475  18.618  0.00  0.00    +0.000 C 
ATOM     16  N   UNL     1       7.650   5.543  19.897  0.00  0.00    +0.000 NA
ATOM     17  N   UNL     1       8.034   4.347  17.961  0.00  0.00    +0.000 N 
ATOM     18  H   UNL     1       7.311   6.471  20.163  0.00  0.00    +0.000 HD
ATOM     19  H   UNL     1       7.615   4.266  17.042  0.00  0.00    +0.000 HD
ATOM     20  H   UNL     1       7.914   3.522  18.536  0.00  0.00    +0.000 HD
ENDBRANCH  14  15
ENDBRANCH  13  14
ENDBRANCH   4  13
TORSDOF 6
ENDMDL
MODEL 7
REMARK VINA RESULT:      -6.6      1.690      1.872
REMARK  Name = 
REMARK  7 active torsions:
REMARK  status: ('A' for Active; 'I' for Inactive)
REMARK    1  A    between atoms: C_1  and  C_2
REMARK    2  A    between atoms: C_2  and  O_3
REMARK    3  A    between atoms: O_3  and  C_4
REMARK    4  A    between atoms: C_7  and  C_8
REMARK    5  A    between atoms: C_8  and  S_9
REMARK    6  A    between atoms: S_9  and  C_10
REMARK    7  A    between atoms: C_14  and  N_15
REMARK                            x       y       z     vdW  Elec       q    Type
REMARK                         _______ _______ _______ _____ _____    ______ ____
ROOT
ATOM      1  C   UNL     1       5.492   6.219  16.811  0.00  0.00    +0.000 A 
ATOM      2  C   UNL     1       4.353   6.662  17.493  0.00  0.00    +0.000 A 
ATOM      3  C   UNL     1       3.363   5.765  17.905  0.00  0.00    +0.000 A 
ATOM      4  C   UNL     1       3.452   4.395  17.624  0.00  0.00    +0.000 A 
ATOM      5  C   UNL     1       4.589   3.931  16.950  0.00  0.00    +0.000 A 
ATOM      6  C   UNL     1       5.587   4.848  16.554  0.00  0.00    +0.000 A 
ENDROOT
BRANCH   6   7
ATOM      7  N   UNL     1       6.753   4.308  15.875  0.00  0.00    +0.000 N 
ATOM      8  O   UNL     1       7.811   4.245  16.515  0.00  0.00    +0.000 OA
ATOM      9  O   UNL     1       6.617   4.019  14.677  0.00  0.00    +0.000 OA
ENDBRANCH   6   7
BRANCH   1  10
ATOM     10  O   UNL     1       6.507   7.053  16.413  0.00  0.00    +0.000 OA
BRANCH  10  12
ATOM     11  C   UNL     1       7.936   6.985  18.367  0.00  0.00    +0.000 C 
ATOM     12  C   UNL     1       7.108   7.852  17.438  0.00  0.00    +0.000 C 
ENDBRANCH  10  12
ENDBRANCH   1  10
BRANCH   4  13
ATOM     13  C   UNL     1       2.346   3.458  18.062  0.00  0.00    +0.000 C 
BRANCH  13  14
ATOM     14  S   UNL     1       2.856   2.478  19.511  0.00  0.00    +0.000 S 
BRANCH  14  15
ATOM     15  C   UNL     1       1.678   2.984  20.666  0.00  0.00    +0.000 C 
ATOM     16  N   UNL     1       0.549   3.468  20.300  0.00  0.00    +0.000 NA
ATOM     17  N   UNL     1       1.990   2.759  21.958  0.00  0.00    +0.000 N 
ATOM     18  H   UNL     1       0.514   3.483  19.277  0.00  0.00    +0.000 HD
ATOM     19  H   UNL     1       2.644   1.999  22.098  0.00  0.00    +0.000 HD
ATOM     20  H   UNL     1       1.166   2.700  22.544  0.00  0.00    +0.000 HD
ENDBRANCH  14  15
ENDBRANCH  13  14
ENDBRANCH   4  13
TORSDOF 6
ENDMDL
MODEL 8
REMARK VINA RESULT:      -6.6      3.659      5.366
REMARK  Name = 
REMARK  7 active torsions:
REMARK  status: ('A' for Active; 'I' for Inactive)
REMARK    1  A    between atoms: C_1  and  C_2
REMARK    2  A    between atoms: C_2  and  O_3
REMARK    3  A    between atoms: O_3  and  C_4
REMARK    4  A    between atoms: C_7  and  C_8
REMARK    5  A    between atoms: C_8  and  S_9
REMARK    6  A    between atoms: S_9  and  C_10
REMARK    7  A    between atoms: C_14  and  N_15
REMARK                            x       y       z     vdW  Elec       q    Type
REMARK                         _______ _______ _______ _____ _____    ______ ____
ROOT
ATOM      1  C   UNL     1       2.517   4.672  18.762  0.00  0.00    +0.000 A 
ATOM      2  C   UNL     1       2.844   6.027  18.650  0.00  0.00    +0.000 A 
ATOM      3  C   UNL     1       3.935   6.446  17.882  0.00  0.00    +0.000 A 
ATOM      4  C   UNL     1       4.764   5.528  17.224  0.00  0.00    +0.000 A 
ATOM      5  C   UNL     1       4.447   4.166  17.317  0.00  0.00    +0.000 A 
ATOM      6  C   UNL     1       3.333   3.761  18.084  0.00  0.00    +0.000 A 
ENDROOT
BRANCH   6   7
ATOM      7  N   UNL     1       3.040   2.338  18.130  0.00  0.00    +0.000 N 
ATOM      8  O   UNL     1       2.121   1.918  17.414  0.00  0.00    +0.000 OA
ATOM      9  O   UNL     1       3.689   1.661  18.942  0.00  0.00    +0.000 OA
ENDBRANCH   6   7
BRANCH   1  10
ATOM     10  O   UNL     1       1.439   4.211  19.476  0.00  0.00    +0.000 OA
BRANCH  10  12
ATOM     11  C   UNL     1       1.489   2.831  21.466  0.00  0.00    +0.000 C 
ATOM     12  C   UNL     1       1.568   4.237  20.902  0.00  0.00    +0.000 C 
ENDBRANCH  10  12
ENDBRANCH   1  10
BRANCH   4  13
ATOM     13  C   UNL     1       5.954   6.018  16.426  0.00  0.00    +0.000 C 
BRANCH  13  14
ATOM     14  S   UNL     1       7.227   6.728  17.520  0.00  0.00    +0.000 S 
BRANCH  14  15
ATOM     15  C   UNL     1       7.766   5.307  18.339  0.00  0.00    +0.000 C 
ATOM     16  N   UNL     1       8.087   4.246  17.695  0.00  0.00    +0.000 NA
ATOM     17  N   UNL     1       7.904   5.418  19.675  0.00  0.00    +0.000 N 
ATOM     18  H   UNL     1       7.963   4.420  16.694  0.00  0.00    +0.000 HD
ATOM     19  H   UNL     1       8.067   6.365  19.996  0.00  0.00    +0.000 HD
ATOM     20  H   UNL     1       8.560   4.744  20.048  0.00  0.00    +0.000 HD
ENDBRANCH  14  15
ENDBRANCH  13  14
ENDBRANCH   4  13
TORSDOF 6
ENDMDL
MODEL 9
REMARK VINA RESULT:      -6.5      3.686      5.576
REMARK  Name = 
REMARK  7 active torsions:
REMARK  status: ('A' for Active; 'I' for Inactive)
REMARK    1  A    between atoms: C_1  and  C_2
REMARK    2  A    between atoms: C_2  and  O_3
REMARK    3  A    between atoms: O_3  and  C_4
REMARK    4  A    between atoms: C_7  and  C_8
REMARK    5  A    between atoms: C_8  and  S_9
REMARK    6  A    between atoms: S_9  and  C_10
REMARK    7  A    between atoms: C_14  and  N_15
REMARK                            x       y       z     vdW  Elec       q    Type
REMARK                         _______ _______ _______ _____ _____    ______ ____
ROOT
ATOM      1  C   UNL     1       2.548   3.866  18.799  0.00  0.00    +0.000 A 
ATOM      2  C   UNL     1       2.333   5.160  18.315  0.00  0.00    +0.000 A 
ATOM      3  C   UNL     1       3.385   5.922  17.796  0.00  0.00    +0.000 A 
ATOM      4  C   UNL     1       4.699   5.435  17.771  0.00  0.00    +0.000 A 
ATOM      5  C   UNL     1       4.932   4.137  18.244  0.00  0.00    +0.000 A 
ATOM      6  C   UNL     1       3.857   3.376  18.751  0.00  0.00    +0.000 A 
ENDROOT
BRANCH   6   7
ATOM      7  N   UNL     1       4.154   2.029  19.209  0.00  0.00    +0.000 N 
ATOM      8  O   UNL     1       4.807   1.910  20.255  0.00  0.00    +0.000 OA
ATOM      9  O   UNL     1       3.791   1.098  18.476  0.00  0.00    +0.000 OA
ENDBRANCH   6   7
BRANCH   1  10
ATOM     10  O   UNL     1       1.546   3.066  19.289  0.00  0.00    +0.000 OA
BRANCH  10  12
ATOM     11  C   UNL     1       1.870   3.175  21.688  0.00  0.00    +0.000 C 
ATOM     12  C   UNL     1       0.949   3.484  20.522  0.00  0.00    +0.000 C 
ENDBRANCH  10  12
ENDBRANCH   1  10
BRANCH   4  13
ATOM     13  C   UNL     1       5.817   6.300  17.228  0.00  0.00    +0.000 C 
BRANCH  13  14
ATOM     14  S   UNL     1       7.436   5.497  17.460  0.00  0.00    +0.000 S 
BRANCH  14  15
ATOM     15  C   UNL     1       7.912   6.176  18.974  0.00  0.00    +0.000 C 
ATOM     16  N   UNL     1       7.832   5.503  20.061  0.00  0.00    +0.000 NA
ATOM     17  N   UNL     1       8.442   7.414  18.919  0.00  0.00    +0.000 N 
ATOM     18  H   UNL     1       7.463   4.573  19.846  0.00  0.00    +0.000 HD
ATOM     19  H   UNL     1       8.863   7.643  18.027  0.00  0.00    +0.000 HD
ATOM     20  H   UNL     1       9.040   7.607  19.713  0.00  0.00    +0.000 HD
ENDBRANCH  14  15
ENDBRANCH  13  14
ENDBRANCH   4  13
TORSDOF 6
ENDMDL
