MODEL 1
REMARK VINA RESULT:      -6.7      0.000      0.000
REMARK  Name = 
REMARK  13 active torsions:
REMARK  status: ('A' for Active; 'I' for Inactive)
REMARK    1  A    between atoms: C_1  and  C_2
REMARK    2  A    between atoms: C_2  and  C_3
REMARK    3  A    between atoms: C_2  and  C_4
REMARK    4  A    between atoms: C_2  and  C_5
REMARK    5  A    between atoms: C_8  and  C_9
REMARK    6  A    between atoms: C_9  and  C_10
REMARK    7  A    between atoms: C_10  and  C_11
REMARK    8  A    between atoms: C_11  and  C_12
REMARK    9  A    between atoms: C_11  and  C_16
REMARK   10  A    between atoms: C_12  and  C_13
REMARK   11  A    between atoms: C_13  and  O_15
REMARK   12  A    between atoms: C_16  and  C_17
REMARK   13  A    between atoms: C_17  and  O_19
REMARK                            x       y       z     vdW  Elec       q    Type
REMARK                         _______ _______ _______ _____ _____    ______ ____
ROOT
ATOM      1  C   UNL     1       4.518   3.751  18.484  0.00  0.00    +0.000 C 
ENDROOT
BRANCH   1   2
ATOM      2  C   UNL     1       3.195   4.315  17.944  0.00  0.00    +0.000 C 
BRANCH   2   6
ATOM      3  C   UNL     1       1.542   7.576  20.301  0.00  0.00    +0.000 A 
ATOM      4  C   UNL     1       2.132   7.792  19.044  0.00  0.00    +0.000 A 
ATOM      5  C   UNL     1       2.651   6.743  18.289  0.00  0.00    +0.000 A 
ATOM      6  C   UNL     1       2.645   5.438  18.784  0.00  0.00    +0.000 A 
ATOM      7  C   UNL     1       2.112   5.208  20.054  0.00  0.00    +0.000 A 
ATOM      8  C   UNL     1       1.576   6.264  20.804  0.00  0.00    +0.000 A 
BRANCH   3  10
ATOM      9  C   UNL     1      -0.510   8.319  21.605  0.00  0.00    +0.000 C 
ATOM     10  C   UNL     1       0.881   8.735  21.066  0.00  0.00    +0.000 C 
ATOM     11  C   UNL     1       0.714   9.943  20.128  0.00  0.00    +0.000 C 
ATOM     12  C   UNL     1       1.703   9.185  22.296  0.00  0.00    +0.000 C 
ENDBRANCH   3  10
ENDBRANCH   2   6
ENDBRANCH   1   2
BRANCH   1  13
ATOM     13  C   UNL     1       5.785   4.569  18.131  0.00  0.00    +0.000 C 
BRANCH  13  14
ATOM     14  C   UNL     1       5.697   5.249  16.752  0.00  0.00    +0.000 C 
BRANCH  14  15
ATOM     15  C   UNL     1       6.913   5.025  15.879  0.00  0.00    +0.000 C 
ATOM     16  O   UNL     1       6.988   5.372  14.714  0.00  0.00    +0.000 OA
BRANCH  15  17
ATOM     17  O   UNL     1       7.931   4.410  16.521  0.00  0.00    +0.000 OA
ATOM     18  H   UNL     1       8.626   5.020  16.852  0.00  0.00    +0.000 HD
ENDBRANCH  15  17
ENDBRANCH  14  15
ENDBRANCH  13  14
BRANCH  13  19
ATOM     19  C   UNL     1       6.069   5.542  19.295  0.00  0.00    +0.000 C 
BRANCH  19  20
ATOM     20  C   UNL     1       7.540   5.832  19.491  0.00  0.00    +0.000 C 
ATOM     21  O   UNL     1       8.183   6.560  18.742  0.00  0.00    +0.000 OA
BRANCH  20  22
ATOM     22  O   UNL     1       8.088   5.233  20.563  0.00  0.00    +0.000 OA
ATOM     23  H   UNL     1       7.857   4.286  20.675  0.00  0.00    +0.000 HD
ENDBRANCH  20  22
ENDBRANCH  19  20
ENDBRANCH  13  19
ENDBRANCH   1  13
TORSDOF 10
ENDMDL
MODEL 2
REMARK VINA RESULT:      -6.7      1.623      2.367
REMARK  Name = 
REMARK  13 active torsions:
REMARK  status: ('A' for Active; 'I' for Inactive)
REMARK    1  A    between atoms: C_1  and  C_2
REMARK    2  A    between atoms: C_2  and  C_3
REMARK    3  A    between atoms: C_2  and  C_4
REMARK    4  A    between atoms: C_2  and  C_5
REMARK    5  A    between atoms: C_8  and  C_9
REMARK    6  A    between atoms: C_9  and  C_10
REMARK    7  A    between atoms: C_10  and  C_11
REMARK    8  A    between atoms: C_11  and  C_12
REMARK    9  A    between atoms: C_11  and  C_16
REMARK   10  A    between atoms: C_12  and  C_13
REMARK   11  A    between atoms: C_13  and  O_15
REMARK   12  A    between atoms: C_16  and  C_17
REMARK   13  A    between atoms: C_17  and  O_19
REMARK                            x       y       z     vdW  Elec       q    Type
REMARK                         _______ _______ _______ _____ _____    ______ ____
ROOT
ATOM      1  C   UNL     1       4.540   6.868  17.054  0.00  0.00    +0.000 C 
ENDROOT
BRANCH   1   2
ATOM      2  C   UNL     1       3.513   6.421  18.105  0.00  0.00    +0.000 C 
BRANCH   2   6
ATOM      3  C   UNL     1       0.888   9.638  19.403  0.00  0.00    +0.000 A 
ATOM      4  C   UNL     1       1.463   9.619  18.120  0.00  0.00    +0.000 A 
ATOM      5  C   UNL     1       2.295   8.582  17.706  0.00  0.00    +0.000 A 
ATOM      6  C   UNL     1       2.625   7.543  18.578  0.00  0.00    +0.000 A 
ATOM      7  C   UNL     1       2.109   7.570  19.875  0.00  0.00    +0.000 A 
ATOM      8  C   UNL     1       1.259   8.607  20.283  0.00  0.00    +0.000 A 
BRANCH   3  10
ATOM      9  C   UNL     1      -1.408  10.635  18.957  0.00  0.00    +0.000 C 
ATOM     10  C   UNL     1      -0.111  10.739  19.797  0.00  0.00    +0.000 C 
ATOM     11  C   UNL     1       0.526  12.121  19.566  0.00  0.00    +0.000 C 
ATOM     12  C   UNL     1      -0.548  10.647  21.278  0.00  0.00    +0.000 C 
ENDBRANCH   3  10
ENDBRANCH   2   6
ENDBRANCH   1   2
BRANCH   1  13
ATOM     13  C   UNL     1       5.523   5.771  16.575  0.00  0.00    +0.000 C 
BRANCH  13  14
ATOM     14  C   UNL     1       5.511   5.578  15.047  0.00  0.00    +0.000 C 
BRANCH  14  15
ATOM     15  C   UNL     1       6.705   4.814  14.516  0.00  0.00    +0.000 C 
ATOM     16  O   UNL     1       7.744   5.339  14.156  0.00  0.00    +0.000 OA
BRANCH  15  17
ATOM     17  O   UNL     1       6.519   3.476  14.488  0.00  0.00    +0.000 OA
ATOM     18  H   UNL     1       5.764   3.185  13.933  0.00  0.00    +0.000 HD
ENDBRANCH  15  17
ENDBRANCH  14  15
ENDBRANCH  13  14
BRANCH  13  19
ATOM     19  C   UNL     1       6.918   6.088  17.158  0.00  0.00    +0.000 C 
BRANCH  19  20
ATOM     20  C   UNL     1       7.396   5.065  18.162  0.00  0.00    +0.000 C 
ATOM     21  O   UNL     1       7.112   5.113  19.353  0.00  0.00    +0.000 OA
BRANCH  20  22
ATOM     22  O   UNL     1       8.157   4.085  17.640  0.00  0.00    +0.000 OA
ATOM     23  H   UNL     1       8.517   3.446  18.291  0.00  0.00    +0.000 HD
ENDBRANCH  20  22
ENDBRANCH  19  20
ENDBRANCH  13  19
ENDBRANCH   1  13
TORSDOF 10
ENDMDL
MODEL 3
REMARK VINA RESULT:      -6.6      1.403      2.461
REMARK  Name = 
REMARK  13 active torsions:
REMARK  status: ('A' for Active; 'I' for Inactive)
REMARK    1  A    between atoms: C_1  and  C_2
REMARK    2  A    between atoms: C_2  and  C_3
REMARK    3  A    between atoms: C_2  and  C_4
REMARK    4  A    between atoms: C_2  and  C_5
REMARK    5  A    between atoms: C_8  and  C_9
REMARK    6  A    between atoms: C_9  and  C_10
REMARK    7  A    between atoms: C_10  and  C_11
REMARK    8  A    between atoms: C_11  and  C_12
REMARK    9  A    between atoms: C_11  and  C_16
REMARK   10  A    between atoms: C_12  and  C_13
REMARK   11  A    between atoms: C_13  and  O_15
REMARK   12  A    between atoms: C_16  and  C_17
REMARK   13  A    between atoms: C_17  and  O_19
REMARK                            x       y       z     vdW  Elec       q    Type
REMARK                         _______ _______ _______ _____ _____    ______ ____
ROOT
ATOM      1  C   UNL     1       4.140   4.640  17.330  0.00  0.00    +0.000 C 
ENDROOT
BRANCH   1   2
ATOM      2  C   UNL     1       3.903   5.171  18.751  0.00  0.00    +0.000 C 
BRANCH   2   6
ATOM      3  C   UNL     1       1.637   8.882  18.905  0.00  0.00    +0.000 A 
ATOM      4  C   UNL     1       1.639   7.968  19.973  0.00  0.00    +0.000 A 
ATOM      5  C   UNL     1       2.374   6.785  19.923  0.00  0.00    +0.000 A 
ATOM      6  C   UNL     1       3.100   6.446  18.779  0.00  0.00    +0.000 A 
ATOM      7  C   UNL     1       3.068   7.314  17.686  0.00  0.00    +0.000 A 
ATOM      8  C   UNL     1       2.340   8.511  17.746  0.00  0.00    +0.000 A 
BRANCH   3  10
ATOM      9  C   UNL     1       1.782  11.387  18.495  0.00  0.00    +0.000 C 
ATOM     10  C   UNL     1       0.903  10.228  19.029  0.00  0.00    +0.000 C 
ATOM     11  C   UNL     1       0.564  10.497  20.506  0.00  0.00    +0.000 C 
ATOM     12  C   UNL     1      -0.410  10.270  18.214  0.00  0.00    +0.000 C 
ENDBRANCH   3  10
ENDBRANCH   2   6
ENDBRANCH   1   2
BRANCH   1  13
ATOM     13  C   UNL     1       5.573   4.833  16.776  0.00  0.00    +0.000 C 
BRANCH  13  14
ATOM     14  C   UNL     1       5.594   5.449  15.365  0.00  0.00    +0.000 C 
BRANCH  14  15
ATOM     15  C   UNL     1       6.554   4.768  14.413  0.00  0.00    +0.000 C 
ATOM     16  O   UNL     1       6.270   3.791  13.743  0.00  0.00    +0.000 OA
BRANCH  15  17
ATOM     17  O   UNL     1       7.769   5.357  14.360  0.00  0.00    +0.000 OA
ATOM     18  H   UNL     1       7.867   6.016  13.640  0.00  0.00    +0.000 HD
ENDBRANCH  15  17
ENDBRANCH  14  15
ENDBRANCH  13  14
BRANCH  13  19
ATOM     19  C   UNL     1       6.390   5.624  17.821  0.00  0.00    +0.000 C 
BRANCH  19  20
ATOM     20  C   UNL     1       7.687   4.951  18.206  0.00  0.00    +0.000 C 
ATOM     21  O   UNL     1       8.257   5.158  19.272  0.00  0.00    +0.000 OA
BRANCH  20  22
ATOM     22  O   UNL     1       8.166   4.095  17.284  0.00  0.00    +0.000 OA
ATOM     23  H   UNL     1       9.000   3.642  17.531  0.00  0.00    +0.000 HD
ENDBRANCH  20  22
ENDBRANCH  19  20
ENDBRANCH  13  19
ENDBRANCH   1  13
TORSDOF 10
ENDMDL
MODEL 4
REMARK VINA RESULT:      -6.6      1.704      3.439
REMARK  Name = 
REMARK  13 active torsions:
REMARK  status: ('A' for Active; 'I' for Inactive)
REMARK    1  A    between atoms: C_1  and  C_2
REMARK    2  A    between atoms: C_2  and  C_3
REMARK    3  A    between atoms: C_2  and  C_4
REMARK    4  A    between atoms: C_2  and  C_5
REMARK    5  A    between atoms: C_8  and  C_9
REMARK    6  A    between atoms: C_9  and  C_10
REMARK    7  A    between atoms: C_10  and  C_11
REMARK    8  A    between atoms: C_11  and  C_12
REMARK    9  A    between atoms: C_11  and  C_16
REMARK   10  A    between atoms: C_12  and  C_13
REMARK   11  A    between atoms: C_13  and  O_15
REMARK   12  A    between atoms: C_16  and  C_17
REMARK   13  A    between atoms: C_17  and  O_19
REMARK                            x       y       z     vdW  Elec       q    Type
REMARK                         _______ _______ _______ _____ _____    ______ ____
ROOT
ATOM      1  C   UNL     1       4.532   6.953  16.636  0.00  0.00    +0.000 C 
ENDROOT
BRANCH   1   2
ATOM      2  C   UNL     1       3.671   6.349  17.755  0.00  0.00    +0.000 C 
BRANCH   2   6
ATOM      3  C   UNL     1       1.073   9.263  19.674  0.00  0.00    +0.000 A 
ATOM      4  C   UNL     1       1.515   8.109  20.342  0.00  0.00    +0.000 A 
ATOM      5  C   UNL     1       2.355   7.183  19.726  0.00  0.00    +0.000 A 
ATOM      6  C   UNL     1       2.748   7.352  18.397  0.00  0.00    +0.000 A 
ATOM      7  C   UNL     1       2.276   8.465  17.698  0.00  0.00    +0.000 A 
ATOM      8  C   UNL     1       1.444   9.402  18.325  0.00  0.00    +0.000 A 
BRANCH   3  10
ATOM      9  C   UNL     1       1.072  11.596  20.687  0.00  0.00    +0.000 C 
ATOM     10  C   UNL     1       0.234  10.322  20.411  0.00  0.00    +0.000 C 
ATOM     11  C   UNL     1      -0.259   9.747  21.750  0.00  0.00    +0.000 C 
ATOM     12  C   UNL     1      -0.997  10.782  19.597  0.00  0.00    +0.000 C 
ENDBRANCH   3  10
ENDBRANCH   2   6
ENDBRANCH   1   2
BRANCH   1  13
ATOM     13  C   UNL     1       5.885   6.244  16.380  0.00  0.00    +0.000 C 
BRANCH  13  14
ATOM     14  C   UNL     1       6.731   6.083  17.657  0.00  0.00    +0.000 C 
BRANCH  14  15
ATOM     15  C   UNL     1       7.224   4.671  17.891  0.00  0.00    +0.000 C 
ATOM     16  O   UNL     1       8.239   4.213  17.397  0.00  0.00    +0.000 OA
BRANCH  15  17
ATOM     17  O   UNL     1       6.434   3.955  18.722  0.00  0.00    +0.000 OA
ATOM     18  H   UNL     1       5.817   3.343  18.265  0.00  0.00    +0.000 HD
ENDBRANCH  15  17
ENDBRANCH  14  15
ENDBRANCH  13  14
BRANCH  13  19
ATOM     19  C   UNL     1       5.600   4.917  15.642  0.00  0.00    +0.000 C 
BRANCH  19  20
ATOM     20  C   UNL     1       6.470   4.709  14.423  0.00  0.00    +0.000 C 
ATOM     21  O   UNL     1       6.134   4.008  13.475  0.00  0.00    +0.000 OA
BRANCH  20  22
ATOM     22  O   UNL     1       7.645   5.363  14.458  0.00  0.00    +0.000 OA
ATOM     23  H   UNL     1       8.352   4.921  14.974  0.00  0.00    +0.000 HD
ENDBRANCH  20  22
ENDBRANCH  19  20
ENDBRANCH  13  19
ENDBRANCH   1  13
TORSDOF 10
ENDMDL
MODEL 5
REMARK VINA RESULT:      -6.6      1.483      3.109
REMARK  Name = 
REMARK  13 active torsions:
REMARK  status: ('A' for Active; 'I' for Inactive)
REMARK    1  A    between atoms: C_1  and  C_2
REMARK    2  A    between atoms: C_2  and  C_3
REMARK    3  A    between atoms: C_2  and  C_4
REMARK    4  A    between atoms: C_2  and  C_5
REMARK    5  A    between atoms: C_8  and  C_9
REMARK    6  A    between atoms: C_9  and  C_10
REMARK    7  A    between atoms: C_10  and  C_11
REMARK    8  A    between atoms: C_11  and  C_12
REMARK    9  A    between atoms: C_11  and  C_16
REMARK   10  A    between atoms: C_12  and  C_13
REMARK   11  A    between atoms: C_13  and  O_15
REMARK   12  A    between atoms: C_16  and  C_17
REMARK   13  A    between atoms: C_17  and  O_19
REMARK                            x       y       z     vdW  Elec       q    Type
REMARK                         _______ _______ _______ _____ _____    ______ ____
ROOT
ATOM      1  C   UNL     1       4.180   5.043  17.120  0.00  0.00    +0.000 C 
ENDROOT
BRANCH   1   2
ATOM      2  C   UNL     1       3.808   5.324  18.583  0.00  0.00    +0.000 C 
BRANCH   2   6
ATOM      3  C   UNL     1       1.493   8.982  19.019  0.00  0.00    +0.000 A 
ATOM      4  C   UNL     1       2.231   8.704  17.856  0.00  0.00    +0.000 A 
ATOM      5  C   UNL     1       2.962   7.526  17.717  0.00  0.00    +0.000 A 
ATOM      6  C   UNL     1       3.025   6.600  18.760  0.00  0.00    +0.000 A 
ATOM      7  C   UNL     1       2.344   6.882  19.945  0.00  0.00    +0.000 A 
ATOM      8  C   UNL     1       1.595   8.060  20.075  0.00  0.00    +0.000 A 
BRANCH   3  10
ATOM      9  C   UNL     1      -0.001  10.389  20.519  0.00  0.00    +0.000 C 
ATOM     10  C   UNL     1       0.609  10.238  19.104  0.00  0.00    +0.000 C 
ATOM     11  C   UNL     1      -0.531  10.136  18.075  0.00  0.00    +0.000 C 
ATOM     12  C   UNL     1       1.394  11.541  18.830  0.00  0.00    +0.000 C 
ENDBRANCH   3  10
ENDBRANCH   2   6
ENDBRANCH   1   2
BRANCH   1  13
ATOM     13  C   UNL     1       5.677   5.226  16.766  0.00  0.00    +0.000 C 
BRANCH  13  14
ATOM     14  C   UNL     1       6.564   5.454  18.004  0.00  0.00    +0.000 C 
BRANCH  14  15
ATOM     15  C   UNL     1       7.505   6.632  17.875  0.00  0.00    +0.000 C 
ATOM     16  O   UNL     1       7.573   7.345  16.889  0.00  0.00    +0.000 OA
BRANCH  15  17
ATOM     17  O   UNL     1       8.266   6.837  18.973  0.00  0.00    +0.000 OA
ATOM     18  H   UNL     1       8.394   7.782  19.205  0.00  0.00    +0.000 HD
ENDBRANCH  15  17
ENDBRANCH  14  15
ENDBRANCH  13  14
BRANCH  13  19
ATOM     19  C   UNL     1       6.113   4.032  15.890  0.00  0.00    +0.000 C 
BRANCH  19  20
ATOM     20  C   UNL     1       6.677   4.444  14.549  0.00  0.00    +0.000 C 
ATOM     21  O   UNL     1       6.298   3.962  13.488  0.00  0.00    +0.000 OA
BRANCH  20  22
ATOM     22  O   UNL     1       7.629   5.393  14.613  0.00  0.00    +0.000 OA
ATOM     23  H   UNL     1       7.679   5.986  13.833  0.00  0.00    +0.000 HD
ENDBRANCH  20  22
ENDBRANCH  19  20
ENDBRANCH  13  19
ENDBRANCH   1  13
TORSDOF 10
ENDMDL
MODEL 6
REMARK VINA RESULT:      -6.6      1.439      3.108
REMARK  Name = 
REMARK  13 active torsions:
REMARK  status: ('A' for Active; 'I' for Inactive)
REMARK    1  A    between atoms: C_1  and  C_2
REMARK    2  A    between atoms: C_2  and  C_3
REMARK    3  A    between atoms: C_2  and  C_4
REMARK    4  A    between atoms: C_2  and  C_5
REMARK    5  A    between atoms: C_8  and  C_9
REMARK    6  A    between atoms: C_9  and  C_10
REMARK    7  A    between atoms: C_10  and  C_11
REMARK    8  A    between atoms: C_11  and  C_12
REMARK    9  A    between atoms: C_11  and  C_16
REMARK   10  A    between atoms: C_12  and  C_13
REMARK   11  A    between atoms: C_13  and  O_15
REMARK   12  A    between atoms: C_16  and  C_17
REMARK   13  A    between atoms: C_17  and  O_19
REMARK                            x       y       z     vdW  Elec       q    Type
REMARK                         _______ _______ _______ _____ _____    ______ ____
ROOT
ATOM      1  C   UNL     1       4.789   6.809  16.571  0.00  0.00    +0.000 C 
ENDROOT
BRANCH   1   2
ATOM      2  C   UNL     1       3.839   5.949  17.417  0.00  0.00    +0.000 C 
BRANCH   2   6
ATOM      3  C   UNL     1       1.447   8.290  20.196  0.00  0.00    +0.000 A 
ATOM      4  C   UNL     1       1.867   6.983  20.496  0.00  0.00    +0.000 A 
ATOM      5  C   UNL     1       2.641   6.240  19.606  0.00  0.00    +0.000 A 
ATOM      6  C   UNL     1       2.986   6.761  18.358  0.00  0.00    +0.000 A 
ATOM      7  C   UNL     1       2.534   8.037  18.017  0.00  0.00    +0.000 A 
ATOM      8  C   UNL     1       1.768   8.787  18.921  0.00  0.00    +0.000 A 
BRANCH   3  10
ATOM      9  C   UNL     1      -0.626   8.417  21.663  0.00  0.00    +0.000 C 
ATOM     10  C   UNL     1       0.684   9.126  21.238  0.00  0.00    +0.000 C 
ATOM     11  C   UNL     1       0.339  10.502  20.642  0.00  0.00    +0.000 C 
ATOM     12  C   UNL     1       1.496   9.348  22.535  0.00  0.00    +0.000 C 
ENDBRANCH   3  10
ENDBRANCH   2   6
ENDBRANCH   1   2
BRANCH   1  13
ATOM     13  C   UNL     1       6.164   6.169  16.254  0.00  0.00    +0.000 C 
BRANCH  13  14
ATOM     14  C   UNL     1       7.104   6.130  17.473  0.00  0.00    +0.000 C 
BRANCH  14  15
ATOM     15  C   UNL     1       7.228   4.761  18.108  0.00  0.00    +0.000 C 
ATOM     16  O   UNL     1       6.437   4.312  18.918  0.00  0.00    +0.000 OA
BRANCH  15  17
ATOM     17  O   UNL     1       8.304   4.065  17.679  0.00  0.00    +0.000 OA
ATOM     18  H   UNL     1       8.737   3.524  18.374  0.00  0.00    +0.000 HD
ENDBRANCH  15  17
ENDBRANCH  14  15
ENDBRANCH  13  14
BRANCH  13  19
ATOM     19  C   UNL     1       5.915   4.790  15.607  0.00  0.00    +0.000 C 
BRANCH  19  20
ATOM     20  C   UNL     1       6.751   4.545  14.372  0.00  0.00    +0.000 C 
ATOM     21  O   UNL     1       7.676   5.276  14.035  0.00  0.00    +0.000 OA
BRANCH  20  22
ATOM     22  O   UNL     1       6.403   3.450  13.671  0.00  0.00    +0.000 OA
ATOM     23  H   UNL     1       7.004   3.221  12.931  0.00  0.00    +0.000 HD
ENDBRANCH  20  22
ENDBRANCH  19  20
ENDBRANCH  13  19
ENDBRANCH   1  13
TORSDOF 10
ENDMDL
MODEL 7
REMARK VINA RESULT:      -6.6      2.045      3.218
REMARK  Name = 
REMARK  13 active torsions:
REMARK  status: ('A' for Active; 'I' for Inactive)
REMARK    1  A    between atoms: C_1  and  C_2
REMARK    2  A    between atoms: C_2  and  C_3
REMARK    3  A    between atoms: C_2  and  C_4
REMARK    4  A    between atoms: C_2  and  C_5
REMARK    5  A    between atoms: C_8  and  C_9
REMARK    6  A    between atoms: C_9  and  C_10
REMARK    7  A    between atoms: C_10  and  C_11
REMARK    8  A    between atoms: C_11  and  C_12
REMARK    9  A    between atoms: C_11  and  C_16
REMARK   10  A    between atoms: C_12  and  C_13
REMARK   11  A    between atoms: C_13  and  O_15
REMARK   12  A    between atoms: C_16  and  C_17
REMARK   13  A    between atoms: C_17  and  O_19
REMARK                            x       y       z     vdW  Elec       q    Type
REMARK                         _______ _______ _______ _____ _____    ______ ____
ROOT
ATOM      1  C   UNL     1       4.453   5.554  18.858  0.00  0.00    +0.000 C 
ENDROOT
BRANCH   1   2
ATOM      2  C   UNL     1       3.518   6.244  17.855  0.00  0.00    +0.000 C 
BRANCH   2   6
ATOM      3  C   UNL     1       1.072   9.402  19.577  0.00  0.00    +0.000 A 
ATOM      4  C   UNL     1       1.571   9.481  18.266  0.00  0.00    +0.000 A 
ATOM      5  C   UNL     1       2.346   8.462  17.716  0.00  0.00    +0.000 A 
ATOM      6  C   UNL     1       2.694   7.343  18.474  0.00  0.00    +0.000 A 
ATOM      7  C   UNL     1       2.253   7.270  19.797  0.00  0.00    +0.000 A 
ATOM      8  C   UNL     1       1.460   8.288  20.342  0.00  0.00    +0.000 A 
BRANCH   3  10
ATOM      9  C   UNL     1      -1.141  10.611  19.247  0.00  0.00    +0.000 C 
ATOM     10  C   UNL     1       0.131  10.489  20.124  0.00  0.00    +0.000 C 
ATOM     11  C   UNL     1       0.861  11.844  20.137  0.00  0.00    +0.000 C 
ATOM     12  C   UNL     1      -0.361  10.189  21.559  0.00  0.00    +0.000 C 
ENDBRANCH   3  10
ENDBRANCH   2   6
ENDBRANCH   1   2
BRANCH   1  13
ATOM     13  C   UNL     1       5.062   4.210  18.387  0.00  0.00    +0.000 C 
BRANCH  13  14
ATOM     14  C   UNL     1       4.094   3.023  18.545  0.00  0.00    +0.000 C 
BRANCH  14  15
ATOM     15  C   UNL     1       4.113   2.395  19.922  0.00  0.00    +0.000 C 
ATOM     16  O   UNL     1       3.237   2.553  20.754  0.00  0.00    +0.000 OA
BRANCH  15  17
ATOM     17  O   UNL     1       5.197   1.621  20.146  0.00  0.00    +0.000 OA
ATOM     18  H   UNL     1       5.353   1.408  21.092  0.00  0.00    +0.000 HD
ENDBRANCH  15  17
ENDBRANCH  14  15
ENDBRANCH  13  14
BRANCH  13  19
ATOM     19  C   UNL     1       5.595   4.401  16.950  0.00  0.00    +0.000 C 
BRANCH  19  20
ATOM     20  C   UNL     1       7.044   4.826  16.897  0.00  0.00    +0.000 C 
ATOM     21  O   UNL     1       7.470   5.653  16.098  0.00  0.00    +0.000 OA
BRANCH  20  22
ATOM     22  O   UNL     1       7.834   4.227  17.807  0.00  0.00    +0.000 OA
ATOM     23  H   UNL     1       7.645   4.460  18.741  0.00  0.00    +0.000 HD
ENDBRANCH  20  22
ENDBRANCH  19  20
ENDBRANCH  13  19
ENDBRANCH   1  13
TORSDOF 10
ENDMDL
MODEL 8
REMARK VINA RESULT:      -6.6      1.350      2.986
REMARK  Name = 
REMARK  13 active torsions:
REMARK  status: ('A' for Active; 'I' for Inactive)
REMARK    1  A    between atoms: C_1  and  C_2
REMARK    2  A    between atoms: C_2  and  C_3
REMARK    3  A    between atoms: C_2  and  C_4
REMARK    4  A    between atoms: C_2  and  C_5
REMARK    5  A    between atoms: C_8  and  C_9
REMARK    6  A    between atoms: C_9  and  C_10
REMARK    7  A    between atoms: C_10  and  C_11
REMARK    8  A    between atoms: C_11  and  C_12
REMARK    9  A    between atoms: C_11  and  C_16
REMARK   10  A    between atoms: C_12  and  C_13
REMARK   11  A    between atoms: C_13  and  O_15
REMARK   12  A    between atoms: C_16  and  C_17
REMARK   13  A    between atoms: C_17  and  O_19
REMARK                            x       y       z     vdW  Elec       q    Type
REMARK                         _______ _______ _______ _____ _____    ______ ____
ROOT
ATOM      1  C   UNL     1       4.887   5.469  18.252  0.00  0.00    +0.000 C 
ENDROOT
BRANCH   1   2
ATOM      2  C   UNL     1       3.372   5.482  17.999  0.00  0.00    +0.000 C 
BRANCH   2   6
ATOM      3  C   UNL     1       1.379   9.126  19.292  0.00  0.00    +0.000 A 
ATOM      4  C   UNL     1       1.846   8.961  17.977  0.00  0.00    +0.000 A 
ATOM      5  C   UNL     1       2.475   7.789  17.565  0.00  0.00    +0.000 A 
ATOM      6  C   UNL     1       2.706   6.750  18.468  0.00  0.00    +0.000 A 
ATOM      7  C   UNL     1       2.298   6.914  19.794  0.00  0.00    +0.000 A 
ATOM      8  C   UNL     1       1.651   8.089  20.200  0.00  0.00    +0.000 A 
BRANCH   3  10
ATOM      9  C   UNL     1       1.233  11.655  19.074  0.00  0.00    +0.000 C 
ATOM     10  C   UNL     1       0.593  10.387  19.692  0.00  0.00    +0.000 C 
ATOM     11  C   UNL     1       0.586  10.526  21.224  0.00  0.00    +0.000 C 
ATOM     12  C   UNL     1      -0.873  10.359  19.200  0.00  0.00    +0.000 C 
ENDBRANCH   3  10
ENDBRANCH   2   6
ENDBRANCH   1   2
BRANCH   1  13
ATOM     13  C   UNL     1       5.715   6.455  17.390  0.00  0.00    +0.000 C 
BRANCH  13  14
ATOM     14  C   UNL     1       7.187   6.552  17.835  0.00  0.00    +0.000 C 
BRANCH  14  15
ATOM     15  C   UNL     1       7.652   5.382  18.676  0.00  0.00    +0.000 C 
ATOM     16  O   UNL     1       7.998   4.309  18.215  0.00  0.00    +0.000 OA
BRANCH  15  17
ATOM     17  O   UNL     1       7.662   5.642  20.002  0.00  0.00    +0.000 OA
ATOM     18  H   UNL     1       6.771   5.745  20.399  0.00  0.00    +0.000 HD
ENDBRANCH  15  17
ENDBRANCH  14  15
ENDBRANCH  13  14
BRANCH  13  19
ATOM     19  C   UNL     1       5.531   6.068  15.907  0.00  0.00    +0.000 C 
BRANCH  19  20
ATOM     20  C   UNL     1       6.585   5.112  15.399  0.00  0.00    +0.000 C 
ATOM     21  O   UNL     1       7.575   5.478  14.775  0.00  0.00    +0.000 OA
BRANCH  20  22
ATOM     22  O   UNL     1       6.354   3.819  15.694  0.00  0.00    +0.000 OA
ATOM     23  H   UNL     1       6.068   3.648  16.617  0.00  0.00    +0.000 HD
ENDBRANCH  20  22
ENDBRANCH  19  20
ENDBRANCH  13  19
ENDBRANCH   1  13
TORSDOF 10
ENDMDL
MODEL 9
REMARK VINA RESULT:      -6.5      3.282      4.479
REMARK  Name = 
REMARK  13 active torsions:
REMARK  status: ('A' for Active; 'I' for Inactive)
REMARK    1  A    between atoms: C_1  and  C_2
REMARK    2  A    between atoms: C_2  and  C_3
REMARK    3  A    between atoms: C_2  and  C_4
REMARK    4  A    between atoms: C_2  and  C_5
REMARK    5  A    between atoms: C_8  and  C_9
REMARK    6  A    between atoms: C_9  and  C_10
REMARK    7  A    between atoms: C_10  and  C_11
REMARK    8  A    between atoms: C_11  and  C_12
REMARK    9  A    between atoms: C_11  and  C_16
REMARK   10  A    between atoms: C_12  and  C_13
REMARK   11  A    between atoms: C_13  and  O_15
REMARK   12  A    between atoms: C_16  and  C_17
REMARK   13  A    between atoms: C_17  and  O_19
REMARK                            x       y       z     vdW  Elec       q    Type
REMARK                         _______ _______ _______ _____ _____    ______ ____
ROOT
ATOM      1  C   UNL     1       3.598   4.778  17.294  0.00  0.00    +0.000 C 
ENDROOT
BRANCH   1   2
ATOM      2  C   UNL     1       4.229   5.909  18.119  0.00  0.00    +0.000 C 
BRANCH   2   6
ATOM      3  C   UNL     1       1.388   9.097  18.949  0.00  0.00    +0.000 A 
ATOM      4  C   UNL     1       2.137   9.060  17.761  0.00  0.00    +0.000 A 
ATOM      5  C   UNL     1       3.038   8.032  17.495  0.00  0.00    +0.000 A 
ATOM      6  C   UNL     1       3.263   7.022  18.433  0.00  0.00    +0.000 A 
ATOM      7  C   UNL     1       2.569   7.069  19.643  0.00  0.00    +0.000 A 
ATOM      8  C   UNL     1       1.651   8.096  19.900  0.00  0.00    +0.000 A 
BRANCH   3  10
ATOM      9  C   UNL     1      -0.800  10.082  18.107  0.00  0.00    +0.000 C 
ATOM     10  C   UNL     1       0.322  10.184  19.170  0.00  0.00    +0.000 C 
ATOM     11  C   UNL     1       0.977  11.574  19.076  0.00  0.00    +0.000 C 
ATOM     12  C   UNL     1      -0.374  10.068  20.546  0.00  0.00    +0.000 C 
ENDBRANCH   3  10
ENDBRANCH   2   6
ENDBRANCH   1   2
BRANCH   1  13
ATOM     13  C   UNL     1       2.938   3.642  18.114  0.00  0.00    +0.000 C 
BRANCH  13  14
ATOM     14  C   UNL     1       3.606   3.424  19.485  0.00  0.00    +0.000 C 
BRANCH  14  15
ATOM     15  C   UNL     1       4.327   2.099  19.611  0.00  0.00    +0.000 C 
ATOM     16  O   UNL     1       5.077   1.816  20.528  0.00  0.00    +0.000 OA
BRANCH  15  17
ATOM     17  O   UNL     1       4.050   1.237  18.607  0.00  0.00    +0.000 OA
ATOM     18  H   UNL     1       4.288   1.568  17.714  0.00  0.00    +0.000 HD
ENDBRANCH  15  17
ENDBRANCH  14  15
ENDBRANCH  13  14
BRANCH  13  19
ATOM     19  C   UNL     1       1.422   3.923  18.191  0.00  0.00    +0.000 C 
BRANCH  19  20
ATOM     20  C   UNL     1       0.675   2.956  19.081  0.00  0.00    +0.000 C 
ATOM     21  O   UNL     1       0.336   1.836  18.714  0.00  0.00    +0.000 OA
BRANCH  20  22
ATOM     22  O   UNL     1       0.417   3.421  20.317  0.00  0.00    +0.000 OA
ATOM     23  H   UNL     1       1.149   3.317  20.962  0.00  0.00    +0.000 HD
ENDBRANCH  20  22
ENDBRANCH  19  20
ENDBRANCH  13  19
ENDBRANCH   1  13
TORSDOF 10
ENDMDL
