MODEL 1
REMARK VINA RESULT:      -8.4      0.000      0.000
REMARK  Name = 
REMARK  5 active torsions:
REMARK  status: ('A' for Active; 'I' for Inactive)
REMARK    1  A    between atoms: N_1  and  C_2
REMARK    2  A    between atoms: C_5  and  N_6
REMARK    3  A    between atoms: N_6  and  C_7
REMARK    4  A    between atoms: C_13  and  C_14
REMARK    5  A    between atoms: C_21  and  C_22
REMARK                            x       y       z     vdW  Elec       q    Type
REMARK                         _______ _______ _______ _____ _____    ______ ____
ROOT
ATOM      1  C   UNL     1       4.058   4.516  16.760  0.00  0.00    +0.000 A 
ATOM      2  C   UNL     1       4.925   3.583  16.040  0.00  0.00    +0.000 A 
ATOM      3  C   UNL     1       6.164   3.919  15.671  0.00  0.00    +0.000 A 
ATOM      4  N   UNL     1       6.657   5.153  15.976  0.00  0.00    +0.000 N 
ATOM      5  C   UNL     1       5.958   6.100  16.684  0.00  0.00    +0.000 A 
ATOM      6  O   UNL     1       6.493   7.167  16.978  0.00  0.00    +0.000 OA
ATOM      7  C   UNL     1       4.561   5.726  17.107  0.00  0.00    +0.000 A 
ATOM      8  H   UNL     1       7.594   5.421  15.701  0.00  0.00    +0.000 HD
ENDROOT
BRANCH   7   9
ATOM      9  C   UNL     1       3.875   6.660  17.927  0.00  0.00    +0.000 A 
ATOM     10  N   UNL     1       3.352   6.553  19.136  0.00  0.00    +0.000 NA
ATOM     11  C   UNL     1       2.501   7.617  19.260  0.00  0.00    +0.000 A 
ATOM     12  C   UNL     1       2.542   8.418  18.148  0.00  0.00    +0.000 A 
ATOM     13  N   UNL     1       3.474   7.842  17.330  0.00  0.00    +0.000 N 
ATOM     14  C   UNL     1       1.696   9.603  17.879  0.00  0.00    +0.000 C 
ATOM     15  C   UNL     1       0.489   9.600  18.846  0.00  0.00    +0.000 C 
ATOM     16  C   UNL     1       0.872   9.194  20.296  0.00  0.00    +0.000 C 
ATOM     17  C   UNL     1       1.531   7.796  20.365  0.00  0.00    +0.000 C 
ATOM     18  H   UNL     1       3.708   8.133  16.394  0.00  0.00    +0.000 HD
BRANCH  16  19
ATOM     19  C   UNL     1      -0.349   9.215  21.200  0.00  0.00    +0.000 C 
ATOM     20  F   UNL     1      -0.635   7.957  21.617  0.00  0.00    +0.000 F 
ATOM     21  F   UNL     1      -0.077   9.935  22.318  0.00  0.00    +0.000 F 
ENDBRANCH  16  19
ENDBRANCH   7   9
BRANCH   1  22
ATOM     22  N   UNL     1       2.797   4.016  17.098  0.00  0.00    +0.000 N 
ATOM     23  H   UNL     1       2.120   4.776  17.157  0.00  0.00    +0.000 HD
BRANCH  22  27
ATOM     24  C   UNL     1       2.345   3.104  21.261  0.00  0.00    +0.000 C 
ATOM     25  C   UNL     1       1.130   2.911  20.348  0.00  0.00    +0.000 C 
ATOM     26  C   UNL     1       1.312   3.540  18.966  0.00  0.00    +0.000 C 
ATOM     27  C   UNL     1       2.609   3.115  18.260  0.00  0.00    +0.000 C 
ATOM     28  C   UNL     1       3.835   3.198  19.193  0.00  0.00    +0.000 C 
ATOM     29  C   UNL     1       3.599   2.567  20.566  0.00  0.00    +0.000 C 
BRANCH  24  30
ATOM     30  N   UNL     1       2.521   4.508  21.640  0.00  0.00    +0.000 NA
ATOM     31  H   UNL     1       1.766   5.066  21.241  0.00  0.00    +0.000 HD
ATOM     32  H   UNL     1       3.381   4.887  21.249  0.00  0.00    +0.000 HD
ENDBRANCH  24  30
ENDBRANCH  22  27
ENDBRANCH   1  22
TORSDOF 5
ENDMDL
MODEL 2
REMARK VINA RESULT:      -8.0      4.611      6.818
REMARK  Name = 
REMARK  5 active torsions:
REMARK  status: ('A' for Active; 'I' for Inactive)
REMARK    1  A    between atoms: N_1  and  C_2
REMARK    2  A    between atoms: C_5  and  N_6
REMARK    3  A    between atoms: N_6  and  C_7
REMARK    4  A    between atoms: C_13  and  C_14
REMARK    5  A    between atoms: C_21  and  C_22
REMARK                            x       y       z     vdW  Elec       q    Type
REMARK                         _______ _______ _______ _____ _____    ______ ____
ROOT
ATOM      1  C   UNL     1       6.552   4.745  18.382  0.00  0.00    +0.000 A 
ATOM      2  C   UNL     1       6.950   5.153  19.729  0.00  0.00    +0.000 A 
ATOM      3  C   UNL     1       7.719   6.225  19.939  0.00  0.00    +0.000 A 
ATOM      4  N   UNL     1       8.142   6.979  18.884  0.00  0.00    +0.000 N 
ATOM      5  C   UNL     1       7.802   6.723  17.578  0.00  0.00    +0.000 A 
ATOM      6  O   UNL     1       8.168   7.487  16.687  0.00  0.00    +0.000 OA
ATOM      7  C   UNL     1       6.931   5.518  17.335  0.00  0.00    +0.000 A 
ATOM      8  H   UNL     1       8.727   7.793  19.029  0.00  0.00    +0.000 HD
ENDROOT
BRANCH   7   9
ATOM      9  C   UNL     1       6.492   5.312  16.002  0.00  0.00    +0.000 A 
ATOM     10  N   UNL     1       5.403   4.744  15.510  0.00  0.00    +0.000 NA
ATOM     11  C   UNL     1       5.690   4.485  14.197  0.00  0.00    +0.000 A 
ATOM     12  C   UNL     1       6.936   4.946  13.860  0.00  0.00    +0.000 A 
ATOM     13  N   UNL     1       7.415   5.537  14.996  0.00  0.00    +0.000 N 
ATOM     14  C   UNL     1       7.625   4.765  12.562  0.00  0.00    +0.000 C 
ATOM     15  C   UNL     1       6.913   3.654  11.756  0.00  0.00    +0.000 C 
ATOM     16  C   UNL     1       5.364   3.736  11.842  0.00  0.00    +0.000 C 
ATOM     17  C   UNL     1       4.848   3.662  13.299  0.00  0.00    +0.000 C 
ATOM     18  H   UNL     1       8.338   5.922  15.124  0.00  0.00    +0.000 HD
BRANCH  16  19
ATOM     19  C   UNL     1       4.721   2.627  11.028  0.00  0.00    +0.000 C 
ATOM     20  F   UNL     1       5.208   1.424  11.421  0.00  0.00    +0.000 F 
ATOM     21  F   UNL     1       3.386   2.596  11.272  0.00  0.00    +0.000 F 
ENDBRANCH  16  19
ENDBRANCH   7   9
BRANCH   1  22
ATOM     22  N   UNL     1       5.728   3.616  18.321  0.00  0.00    +0.000 N 
ATOM     23  H   UNL     1       5.541   3.368  17.351  0.00  0.00    +0.000 HD
BRANCH  22  27
ATOM     24  C   UNL     1       1.467   3.602  18.775  0.00  0.00    +0.000 C 
ATOM     25  C   UNL     1       2.220   2.293  19.029  0.00  0.00    +0.000 C 
ATOM     26  C   UNL     1       3.673   2.334  18.556  0.00  0.00    +0.000 C 
ATOM     27  C   UNL     1       4.463   3.540  19.089  0.00  0.00    +0.000 C 
ATOM     28  C   UNL     1       3.680   4.861  18.942  0.00  0.00    +0.000 C 
ATOM     29  C   UNL     1       2.228   4.765  19.417  0.00  0.00    +0.000 C 
BRANCH  24  30
ATOM     30  N   UNL     1       1.263   3.841  17.344  0.00  0.00    +0.000 NA
ATOM     31  H   UNL     1       2.119   3.617  16.837  0.00  0.00    +0.000 HD
ATOM     32  H   UNL     1       1.083   4.826  17.160  0.00  0.00    +0.000 HD
ENDBRANCH  24  30
ENDBRANCH  22  27
ENDBRANCH   1  22
TORSDOF 5
ENDMDL
MODEL 3
REMARK VINA RESULT:      -7.8      1.171      1.722
REMARK  Name = 
REMARK  5 active torsions:
REMARK  status: ('A' for Active; 'I' for Inactive)
REMARK    1  A    between atoms: N_1  and  C_2
REMARK    2  A    between atoms: C_5  and  N_6
REMARK    3  A    between atoms: N_6  and  C_7
REMARK    4  A    between atoms: C_13  and  C_14
REMARK    5  A    between atoms: C_21  and  C_22
REMARK                            x       y       z     vdW  Elec       q    Type
REMARK                         _______ _______ _______ _____ _____    ______ ____
ROOT
ATOM      1  C   UNL     1       4.806   4.726  16.703  0.00  0.00    +0.000 A 
ATOM      2  C   UNL     1       6.071   4.058  16.396  0.00  0.00    +0.000 A 
ATOM      3  C   UNL     1       7.234   4.716  16.415  0.00  0.00    +0.000 A 
ATOM      4  N   UNL     1       7.265   6.040  16.739  0.00  0.00    +0.000 N 
ATOM      5  C   UNL     1       6.152   6.767  17.086  0.00  0.00    +0.000 A 
ATOM      6  O   UNL     1       6.268   7.941  17.430  0.00  0.00    +0.000 OA
ATOM      7  C   UNL     1       4.838   6.030  17.071  0.00  0.00    +0.000 A 
ATOM      8  H   UNL     1       8.139   6.550  16.755  0.00  0.00    +0.000 HD
ENDROOT
BRANCH   7   9
ATOM      9  C   UNL     1       3.703   6.749  17.530  0.00  0.00    +0.000 A 
ATOM     10  N   UNL     1       3.114   7.845  17.082  0.00  0.00    +0.000 NA
ATOM     11  C   UNL     1       2.331   8.285  18.114  0.00  0.00    +0.000 A 
ATOM     12  C   UNL     1       2.389   7.428  19.182  0.00  0.00    +0.000 A 
ATOM     13  N   UNL     1       3.210   6.412  18.778  0.00  0.00    +0.000 N 
ATOM     14  C   UNL     1       1.753   7.618  20.506  0.00  0.00    +0.000 C 
ATOM     15  C   UNL     1       1.327   9.097  20.660  0.00  0.00    +0.000 C 
ATOM     16  C   UNL     1       0.696   9.687  19.369  0.00  0.00    +0.000 C 
ATOM     17  C   UNL     1       1.646   9.597  18.151  0.00  0.00    +0.000 C 
ATOM     18  H   UNL     1       3.528   5.641  19.344  0.00  0.00    +0.000 HD
BRANCH  16  19
ATOM     19  C   UNL     1       0.292  11.136  19.582  0.00  0.00    +0.000 C 
ATOM     20  F   UNL     1      -0.974  11.196  20.064  0.00  0.00    +0.000 F 
ATOM     21  F   UNL     1       1.088  11.697  20.528  0.00  0.00    +0.000 F 
ENDBRANCH  16  19
ENDBRANCH   7   9
BRANCH   1  22
ATOM     22  N   UNL     1       3.675   3.905  16.664  0.00  0.00    +0.000 N 
ATOM     23  H   UNL     1       2.839   4.462  16.490  0.00  0.00    +0.000 HD
BRANCH  22  27
ATOM     24  C   UNL     1       2.451   2.747  20.605  0.00  0.00    +0.000 C 
ATOM     25  C   UNL     1       1.531   2.392  19.434  0.00  0.00    +0.000 C 
ATOM     26  C   UNL     1       1.910   3.102  18.134  0.00  0.00    +0.000 C 
ATOM     27  C   UNL     1       3.388   2.934  17.747  0.00  0.00    +0.000 C 
ATOM     28  C   UNL     1       4.335   3.183  18.939  0.00  0.00    +0.000 C 
ATOM     29  C   UNL     1       3.906   2.461  20.218  0.00  0.00    +0.000 C 
BRANCH  24  30
ATOM     30  N   UNL     1       2.289   4.142  21.020  0.00  0.00    +0.000 NA
ATOM     31  H   UNL     1       2.613   4.758  20.274  0.00  0.00    +0.000 HD
ATOM     32  H   UNL     1       2.873   4.354  21.826  0.00  0.00    +0.000 HD
ENDBRANCH  24  30
ENDBRANCH  22  27
ENDBRANCH   1  22
TORSDOF 5
ENDMDL
MODEL 4
REMARK VINA RESULT:      -7.6      2.080      4.150
REMARK  Name = 
REMARK  5 active torsions:
REMARK  status: ('A' for Active; 'I' for Inactive)
REMARK    1  A    between atoms: N_1  and  C_2
REMARK    2  A    between atoms: C_5  and  N_6
REMARK    3  A    between atoms: N_6  and  C_7
REMARK    4  A    between atoms: C_13  and  C_14
REMARK    5  A    between atoms: C_21  and  C_22
REMARK                            x       y       z     vdW  Elec       q    Type
REMARK                         _______ _______ _______ _____ _____    ______ ____
ROOT
ATOM      1  C   UNL     1       4.339   3.348  19.027  0.00  0.00    +0.000 A 
ATOM      2  C   UNL     1       4.435   1.949  18.612  0.00  0.00    +0.000 A 
ATOM      3  C   UNL     1       3.356   1.246  18.257  0.00  0.00    +0.000 A 
ATOM      4  N   UNL     1       2.125   1.834  18.263  0.00  0.00    +0.000 N 
ATOM      5  C   UNL     1       1.910   3.150  18.592  0.00  0.00    +0.000 A 
ATOM      6  O   UNL     1       0.781   3.628  18.510  0.00  0.00    +0.000 OA
ATOM      7  C   UNL     1       3.125   3.950  18.989  0.00  0.00    +0.000 A 
ATOM      8  H   UNL     1       1.299   1.312  17.998  0.00  0.00    +0.000 HD
ENDROOT
BRANCH   7   9
ATOM      9  C   UNL     1       2.922   5.334  19.228  0.00  0.00    +0.000 A 
ATOM     10  N   UNL     1       2.449   5.988  20.276  0.00  0.00    +0.000 NA
ATOM     11  C   UNL     1       2.122   7.232  19.811  0.00  0.00    +0.000 A 
ATOM     12  C   UNL     1       2.446   7.369  18.486  0.00  0.00    +0.000 A 
ATOM     13  N   UNL     1       3.022   6.179  18.137  0.00  0.00    +0.000 N 
ATOM     14  C   UNL     1       2.157   8.534  17.620  0.00  0.00    +0.000 C 
ATOM     15  C   UNL     1       1.097   9.429  18.304  0.00  0.00    +0.000 C 
ATOM     16  C   UNL     1       1.335   9.597  19.830  0.00  0.00    +0.000 C 
ATOM     17  C   UNL     1       1.358   8.243  20.578  0.00  0.00    +0.000 C 
ATOM     18  H   UNL     1       3.318   5.908  17.212  0.00  0.00    +0.000 HD
BRANCH  16  19
ATOM     19  C   UNL     1       0.270  10.489  20.445  0.00  0.00    +0.000 C 
ATOM     20  F   UNL     1      -0.715  10.721  19.542  0.00  0.00    +0.000 F 
ATOM     21  F   UNL     1      -0.314   9.848  21.490  0.00  0.00    +0.000 F 
ENDBRANCH  16  19
ENDBRANCH   7   9
BRANCH   1  22
ATOM     22  N   UNL     1       5.555   3.958  19.348  0.00  0.00    +0.000 N 
ATOM     23  H   UNL     1       5.410   4.690  20.044  0.00  0.00    +0.000 HD
BRANCH  22  27
ATOM     24  C   UNL     1       6.581   6.345  15.940  0.00  0.00    +0.000 C 
ATOM     25  C   UNL     1       7.211   6.709  17.287  0.00  0.00    +0.000 C 
ATOM     26  C   UNL     1       6.557   5.994  18.470  0.00  0.00    +0.000 C 
ATOM     27  C   UNL     1       6.464   4.470  18.296  0.00  0.00    +0.000 C 
ATOM     28  C   UNL     1       5.931   4.073  16.903  0.00  0.00    +0.000 C 
ATOM     29  C   UNL     1       6.608   4.825  15.755  0.00  0.00    +0.000 C 
BRANCH  24  30
ATOM     30  N   UNL     1       5.214   6.857  15.824  0.00  0.00    +0.000 NA
ATOM     31  H   UNL     1       4.801   6.531  14.950  0.00  0.00    +0.000 HD
ATOM     32  H   UNL     1       5.208   7.874  15.769  0.00  0.00    +0.000 HD
ENDBRANCH  24  30
ENDBRANCH  22  27
ENDBRANCH   1  22
TORSDOF 5
ENDMDL
MODEL 5
REMARK VINA RESULT:      -7.6      1.040      1.257
REMARK  Name = 
REMARK  5 active torsions:
REMARK  status: ('A' for Active; 'I' for Inactive)
REMARK    1  A    between atoms: N_1  and  C_2
REMARK    2  A    between atoms: C_5  and  N_6
REMARK    3  A    between atoms: N_6  and  C_7
REMARK    4  A    between atoms: C_13  and  C_14
REMARK    5  A    between atoms: C_21  and  C_22
REMARK                            x       y       z     vdW  Elec       q    Type
REMARK                         _______ _______ _______ _____ _____    ______ ____
ROOT
ATOM      1  C   UNL     1       5.111   4.373  17.368  0.00  0.00    +0.000 A 
ATOM      2  C   UNL     1       5.936   3.581  16.456  0.00  0.00    +0.000 A 
ATOM      3  C   UNL     1       6.274   4.032  15.245  0.00  0.00    +0.000 A 
ATOM      4  N   UNL     1       5.861   5.265  14.835  0.00  0.00    +0.000 N 
ATOM      5  C   UNL     1       5.119   6.119  15.615  0.00  0.00    +0.000 A 
ATOM      6  O   UNL     1       4.839   7.243  15.201  0.00  0.00    +0.000 OA
ATOM      7  C   UNL     1       4.738   5.618  16.984  0.00  0.00    +0.000 A 
ATOM      8  H   UNL     1       6.108   5.618  13.919  0.00  0.00    +0.000 HD
ENDROOT
BRANCH   7   9
ATOM      9  C   UNL     1       4.063   6.537  17.829  0.00  0.00    +0.000 A 
ATOM     10  N   UNL     1       3.567   6.411  19.049  0.00  0.00    +0.000 NA
ATOM     11  C   UNL     1       2.711   7.467  19.203  0.00  0.00    +0.000 A 
ATOM     12  C   UNL     1       2.720   8.280  18.100  0.00  0.00    +0.000 A 
ATOM     13  N   UNL     1       3.639   7.722  17.256  0.00  0.00    +0.000 N 
ATOM     14  C   UNL     1       1.858   9.461  17.863  0.00  0.00    +0.000 C 
ATOM     15  C   UNL     1       0.673   9.436  18.857  0.00  0.00    +0.000 C 
ATOM     16  C   UNL     1       1.091   9.017  20.293  0.00  0.00    +0.000 C 
ATOM     17  C   UNL     1       1.764   7.624  20.332  0.00  0.00    +0.000 C 
ATOM     18  H   UNL     1       3.849   8.026  16.318  0.00  0.00    +0.000 HD
BRANCH  16  19
ATOM     19  C   UNL     1      -0.109   9.017  21.224  0.00  0.00    +0.000 C 
ATOM     20  F   UNL     1      -0.499   7.743  21.474  0.00  0.00    +0.000 F 
ATOM     21  F   UNL     1       0.241   9.551  22.422  0.00  0.00    +0.000 F 
ENDBRANCH  16  19
ENDBRANCH   7   9
BRANCH   1  22
ATOM     22  N   UNL     1       4.858   3.780  18.609  0.00  0.00    +0.000 N 
ATOM     23  H   UNL     1       5.701   3.329  18.964  0.00  0.00    +0.000 HD
BRANCH  22  27
ATOM     24  C   UNL     1       0.868   2.787  19.817  0.00  0.00    +0.000 C 
ATOM     25  C   UNL     1       1.189   2.776  18.320  0.00  0.00    +0.000 C 
ATOM     26  C   UNL     1       2.533   3.424  17.988  0.00  0.00    +0.000 C 
ATOM     27  C   UNL     1       3.707   2.869  18.809  0.00  0.00    +0.000 C 
ATOM     28  C   UNL     1       3.371   2.770  20.312  0.00  0.00    +0.000 C 
ATOM     29  C   UNL     1       2.012   2.125  20.591  0.00  0.00    +0.000 C 
BRANCH  24  30
ATOM     30  N   UNL     1       0.626   4.145  20.310  0.00  0.00    +0.000 NA
ATOM     31  H   UNL     1       0.343   4.106  21.289  0.00  0.00    +0.000 HD
ATOM     32  H   UNL     1      -0.151   4.580  19.816  0.00  0.00    +0.000 HD
ENDBRANCH  24  30
ENDBRANCH  22  27
ENDBRANCH   1  22
TORSDOF 5
ENDMDL
MODEL 6
REMARK VINA RESULT:      -7.6      2.407      4.574
REMARK  Name = 
REMARK  5 active torsions:
REMARK  status: ('A' for Active; 'I' for Inactive)
REMARK    1  A    between atoms: N_1  and  C_2
REMARK    2  A    between atoms: C_5  and  N_6
REMARK    3  A    between atoms: N_6  and  C_7
REMARK    4  A    between atoms: C_13  and  C_14
REMARK    5  A    between atoms: C_21  and  C_22
REMARK                            x       y       z     vdW  Elec       q    Type
REMARK                         _______ _______ _______ _____ _____    ______ ____
ROOT
ATOM      1  C   UNL     1       4.279   4.802  19.480  0.00  0.00    +0.000 A 
ATOM      2  C   UNL     1       4.829   3.446  19.452  0.00  0.00    +0.000 A 
ATOM      3  C   UNL     1       4.066   2.375  19.687  0.00  0.00    +0.000 A 
ATOM      4  N   UNL     1       2.736   2.527  19.947  0.00  0.00    +0.000 N 
ATOM      5  C   UNL     1       2.095   3.741  19.960  0.00  0.00    +0.000 A 
ATOM      6  O   UNL     1       0.880   3.793  20.138  0.00  0.00    +0.000 OA
ATOM      7  C   UNL     1       2.949   4.954  19.692  0.00  0.00    +0.000 A 
ATOM      8  H   UNL     1       2.147   1.723  20.129  0.00  0.00    +0.000 HD
ENDROOT
BRANCH   7   9
ATOM      9  C   UNL     1       2.271   6.198  19.600  0.00  0.00    +0.000 A 
ATOM     10  N   UNL     1       2.244   7.118  18.651  0.00  0.00    +0.000 NA
ATOM     11  C   UNL     1       1.756   8.246  19.252  0.00  0.00    +0.000 A 
ATOM     12  C   UNL     1       1.426   8.008  20.561  0.00  0.00    +0.000 A 
ATOM     13  N   UNL     1       1.689   6.681  20.758  0.00  0.00    +0.000 N 
ATOM     14  C   UNL     1       0.958   9.005  21.552  0.00  0.00    +0.000 C 
ATOM     15  C   UNL     1       1.255  10.428  21.024  0.00  0.00    +0.000 C 
ATOM     16  C   UNL     1       0.952  10.592  19.509  0.00  0.00    +0.000 C 
ATOM     17  C   UNL     1       1.746   9.592  18.635  0.00  0.00    +0.000 C 
ATOM     18  H   UNL     1       1.625   6.183  21.632  0.00  0.00    +0.000 HD
BRANCH  16  19
ATOM     19  C   UNL     1       1.256  12.007  19.050  0.00  0.00    +0.000 C 
ATOM     20  F   UNL     1       1.635  12.764  20.110  0.00  0.00    +0.000 F 
ATOM     21  F   UNL     1       2.310  11.994  18.195  0.00  0.00    +0.000 F 
ENDBRANCH  16  19
ENDBRANCH   7   9
BRANCH   1  22
ATOM     22  N   UNL     1       5.193   5.821  19.194  0.00  0.00    +0.000 N 
ATOM     23  H   UNL     1       4.798   6.728  19.439  0.00  0.00    +0.000 HD
BRANCH  22  27
ATOM     24  C   UNL     1       6.437   4.353  15.364  0.00  0.00    +0.000 C 
ATOM     25  C   UNL     1       5.335   5.416  15.402  0.00  0.00    +0.000 C 
ATOM     26  C   UNL     1       4.769   5.645  16.804  0.00  0.00    +0.000 C 
ATOM     27  C   UNL     1       5.844   5.924  17.867  0.00  0.00    +0.000 C 
ATOM     28  C   UNL     1       7.020   4.929  17.781  0.00  0.00    +0.000 C 
ATOM     29  C   UNL     1       7.542   4.724  16.357  0.00  0.00    +0.000 C 
BRANCH  24  30
ATOM     30  N   UNL     1       5.911   3.016  15.649  0.00  0.00    +0.000 NA
ATOM     31  H   UNL     1       4.892   3.034  15.604  0.00  0.00    +0.000 HD
ATOM     32  H   UNL     1       6.140   2.727  16.599  0.00  0.00    +0.000 HD
ENDBRANCH  24  30
ENDBRANCH  22  27
ENDBRANCH   1  22
TORSDOF 5
ENDMDL
MODEL 7
REMARK VINA RESULT:      -7.5      3.908      6.950
REMARK  Name = 
REMARK  5 active torsions:
REMARK  status: ('A' for Active; 'I' for Inactive)
REMARK    1  A    between atoms: N_1  and  C_2
REMARK    2  A    between atoms: C_5  and  N_6
REMARK    3  A    between atoms: N_6  and  C_7
REMARK    4  A    between atoms: C_13  and  C_14
REMARK    5  A    between atoms: C_21  and  C_22
REMARK                            x       y       z     vdW  Elec       q    Type
REMARK                         _______ _______ _______ _____ _____    ______ ____
ROOT
ATOM      1  C   UNL     1       2.196   4.499  19.899  0.00  0.00    +0.000 A 
ATOM      2  C   UNL     1       1.709   4.054  21.204  0.00  0.00    +0.000 A 
ATOM      3  C   UNL     1       2.271   3.029  21.851  0.00  0.00    +0.000 A 
ATOM      4  N   UNL     1       3.336   2.377  21.303  0.00  0.00    +0.000 N 
ATOM      5  C   UNL     1       3.911   2.727  20.105  0.00  0.00    +0.000 A 
ATOM      6  O   UNL     1       4.911   2.134  19.707  0.00  0.00    +0.000 OA
ATOM      7  C   UNL     1       3.283   3.885  19.372  0.00  0.00    +0.000 A 
ATOM      8  H   UNL     1       3.771   1.598  21.782  0.00  0.00    +0.000 HD
ENDROOT
BRANCH   7   9
ATOM      9  C   UNL     1       3.937   4.314  18.188  0.00  0.00    +0.000 A 
ATOM     10  N   UNL     1       3.771   3.982  16.919  0.00  0.00    +0.000 NA
ATOM     11  C   UNL     1       4.906   4.402  16.281  0.00  0.00    +0.000 A 
ATOM     12  C   UNL     1       5.752   5.048  17.145  0.00  0.00    +0.000 A 
ATOM     13  N   UNL     1       5.097   5.053  18.346  0.00  0.00    +0.000 N 
ATOM     14  C   UNL     1       7.109   5.556  16.842  0.00  0.00    +0.000 C 
ATOM     15  C   UNL     1       7.608   4.923  15.522  0.00  0.00    +0.000 C 
ATOM     16  C   UNL     1       6.509   4.852  14.426  0.00  0.00    +0.000 C 
ATOM     17  C   UNL     1       5.264   4.057  14.887  0.00  0.00    +0.000 C 
ATOM     18  H   UNL     1       5.462   5.389  19.223  0.00  0.00    +0.000 HD
BRANCH  16  19
ATOM     19  C   UNL     1       7.058   4.230  13.154  0.00  0.00    +0.000 C 
ATOM     20  F   UNL     1       6.036   3.794  12.376  0.00  0.00    +0.000 F 
ATOM     21  F   UNL     1       7.714   5.172  12.430  0.00  0.00    +0.000 F 
ENDBRANCH  16  19
ENDBRANCH   7   9
BRANCH   1  22
ATOM     22  N   UNL     1       1.522   5.597  19.355  0.00  0.00    +0.000 N 
ATOM     23  H   UNL     1       1.282   5.416  18.380  0.00  0.00    +0.000 HD
BRANCH  22  27
ATOM     24  C   UNL     1       1.366   9.865  19.001  0.00  0.00    +0.000 C 
ATOM     25  C   UNL     1       1.384   9.261  20.408  0.00  0.00    +0.000 C 
ATOM     26  C   UNL     1       1.140   7.752  20.418  0.00  0.00    +0.000 C 
ATOM     27  C   UNL     1       2.064   6.971  19.469  0.00  0.00    +0.000 C 
ATOM     28  C   UNL     1       2.148   7.620  18.072  0.00  0.00    +0.000 C 
ATOM     29  C   UNL     1       2.380   9.132  18.117  0.00  0.00    +0.000 C 
BRANCH  24  30
ATOM     30  N   UNL     1       0.029   9.817  18.406  0.00  0.00    +0.000 NA
ATOM     31  H   UNL     1      -0.585  10.466  18.899  0.00  0.00    +0.000 HD
ATOM     32  H   UNL     1      -0.391   8.898  18.523  0.00  0.00    +0.000 HD
ENDBRANCH  24  30
ENDBRANCH  22  27
ENDBRANCH   1  22
TORSDOF 5
ENDMDL
MODEL 8
REMARK VINA RESULT:      -7.5      2.125      4.204
REMARK  Name = 
REMARK  5 active torsions:
REMARK  status: ('A' for Active; 'I' for Inactive)
REMARK    1  A    between atoms: N_1  and  C_2
REMARK    2  A    between atoms: C_5  and  N_6
REMARK    3  A    between atoms: N_6  and  C_7
REMARK    4  A    between atoms: C_13  and  C_14
REMARK    5  A    between atoms: C_21  and  C_22
REMARK                            x       y       z     vdW  Elec       q    Type
REMARK                         _______ _______ _______ _____ _____    ______ ____
ROOT
ATOM      1  C   UNL     1       4.183   4.635  19.513  0.00  0.00    +0.000 A 
ATOM      2  C   UNL     1       4.412   3.207  19.289  0.00  0.00    +0.000 A 
ATOM      3  C   UNL     1       3.422   2.315  19.379  0.00  0.00    +0.000 A 
ATOM      4  N   UNL     1       2.156   2.727  19.673  0.00  0.00    +0.000 N 
ATOM      5  C   UNL     1       1.806   4.042  19.863  0.00  0.00    +0.000 A 
ATOM      6  O   UNL     1       0.630   4.343  20.059  0.00  0.00    +0.000 OA
ATOM      7  C   UNL     1       2.918   5.054  19.758  0.00  0.00    +0.000 A 
ATOM      8  H   UNL     1       1.397   2.061  19.746  0.00  0.00    +0.000 HD
ENDROOT
BRANCH   7   9
ATOM      9  C   UNL     1       2.542   6.419  19.849  0.00  0.00    +0.000 A 
ATOM     10  N   UNL     1       1.976   7.115  20.822  0.00  0.00    +0.000 NA
ATOM     11  C   UNL     1       1.505   8.254  20.227  0.00  0.00    +0.000 A 
ATOM     12  C   UNL     1       1.830   8.291  18.896  0.00  0.00    +0.000 A 
ATOM     13  N   UNL     1       2.554   7.153  18.676  0.00  0.00    +0.000 N 
ATOM     14  C   UNL     1       1.412   9.315  17.911  0.00  0.00    +0.000 C 
ATOM     15  C   UNL     1       0.240  10.138  18.495  0.00  0.00    +0.000 C 
ATOM     16  C   UNL     1       0.432  10.492  19.996  0.00  0.00    +0.000 C 
ATOM     17  C   UNL     1       0.611   9.236  20.882  0.00  0.00    +0.000 C 
ATOM     18  H   UNL     1       2.895   6.825  17.785  0.00  0.00    +0.000 HD
BRANCH  16  19
ATOM     19  C   UNL     1      -0.744  11.303  20.511  0.00  0.00    +0.000 C 
ATOM     20  F   UNL     1      -1.804  11.159  19.678  0.00  0.00    +0.000 F 
ATOM     21  F   UNL     1      -1.139  10.820  21.717  0.00  0.00    +0.000 F 
ENDBRANCH  16  19
ENDBRANCH   7   9
BRANCH   1  22
ATOM     22  N   UNL     1       5.310   5.449  19.362  0.00  0.00    +0.000 N 
ATOM     23  H   UNL     1       5.167   6.340  19.836  0.00  0.00    +0.000 HD
BRANCH  22  27
ATOM     24  C   UNL     1       6.440   4.411  15.361  0.00  0.00    +0.000 C 
ATOM     25  C   UNL     1       5.315   5.433  15.547  0.00  0.00    +0.000 C 
ATOM     26  C   UNL     1       4.798   5.504  16.984  0.00  0.00    +0.000 C 
ATOM     27  C   UNL     1       5.907   5.704  18.030  0.00  0.00    +0.000 C 
ATOM     28  C   UNL     1       7.103   4.756  17.801  0.00  0.00    +0.000 C 
ATOM     29  C   UNL     1       7.574   4.712  16.346  0.00  0.00    +0.000 C 
BRANCH  24  30
ATOM     30  N   UNL     1       5.959   3.038  15.527  0.00  0.00    +0.000 NA
ATOM     31  H   UNL     1       6.735   2.388  15.404  0.00  0.00    +0.000 HD
ATOM     32  H   UNL     1       5.281   2.798  14.807  0.00  0.00    +0.000 HD
ENDBRANCH  24  30
ENDBRANCH  22  27
ENDBRANCH   1  22
TORSDOF 5
ENDMDL
MODEL 9
REMARK VINA RESULT:      -7.4      4.454      8.428
REMARK  Name = 
REMARK  5 active torsions:
REMARK  status: ('A' for Active; 'I' for Inactive)
REMARK    1  A    between atoms: N_1  and  C_2
REMARK    2  A    between atoms: C_5  and  N_6
REMARK    3  A    between atoms: N_6  and  C_7
REMARK    4  A    between atoms: C_13  and  C_14
REMARK    5  A    between atoms: C_21  and  C_22
REMARK                            x       y       z     vdW  Elec       q    Type
REMARK                         _______ _______ _______ _____ _____    ______ ____
ROOT
ATOM      1  C   UNL     1      -1.153  11.100  20.533  0.00  0.00    +0.000 A 
ATOM      2  C   UNL     1      -2.029  12.094  21.154  0.00  0.00    +0.000 A 
ATOM      3  C   UNL     1      -2.105  12.231  22.481  0.00  0.00    +0.000 A 
ATOM      4  N   UNL     1      -1.345  11.443  23.294  0.00  0.00    +0.000 N 
ATOM      5  C   UNL     1      -0.456  10.503  22.832  0.00  0.00    +0.000 A 
ATOM      6  O   UNL     1       0.243   9.876  23.625  0.00  0.00    +0.000 OA
ATOM      7  C   UNL     1      -0.362  10.347  21.336  0.00  0.00    +0.000 A 
ATOM      8  H   UNL     1      -1.395  11.535  24.301  0.00  0.00    +0.000 HD
ENDROOT
BRANCH   7   9
ATOM      9  C   UNL     1       0.630   9.454  20.853  0.00  0.00    +0.000 A 
ATOM     10  N   UNL     1       1.373   9.470  19.759  0.00  0.00    +0.000 NA
ATOM     11  C   UNL     1       1.854   8.195  19.628  0.00  0.00    +0.000 A 
ATOM     12  C   UNL     1       1.457   7.404  20.674  0.00  0.00    +0.000 A 
ATOM     13  N   UNL     1       0.736   8.231  21.490  0.00  0.00    +0.000 N 
ATOM     14  C   UNL     1       1.702   5.952  20.829  0.00  0.00    +0.000 C 
ATOM     15  C   UNL     1       2.137   5.359  19.468  0.00  0.00    +0.000 C 
ATOM     16  C   UNL     1       3.133   6.269  18.698  0.00  0.00    +0.000 C 
ATOM     17  C   UNL     1       2.562   7.682  18.433  0.00  0.00    +0.000 C 
ATOM     18  H   UNL     1       0.235   7.959  22.322  0.00  0.00    +0.000 HD
BRANCH  16  19
ATOM     19  C   UNL     1       3.529   5.634  17.376  0.00  0.00    +0.000 C 
ATOM     20  F   UNL     1       4.866   5.412  17.353  0.00  0.00    +0.000 F 
ATOM     21  F   UNL     1       2.938   4.417  17.259  0.00  0.00    +0.000 F 
ENDBRANCH  16  19
ENDBRANCH   7   9
BRANCH   1  22
ATOM     22  N   UNL     1      -1.163  11.089  19.135  0.00  0.00    +0.000 N 
ATOM     23  H   UNL     1      -0.999  12.028  18.773  0.00  0.00    +0.000 HD
BRANCH  22  27
ATOM     24  C   UNL     1      -3.666  10.521  15.703  0.00  0.00    +0.000 C 
ATOM     25  C   UNL     1      -2.704   9.392  16.085  0.00  0.00    +0.000 C 
ATOM     26  C   UNL     1      -1.666   9.814  17.125  0.00  0.00    +0.000 C 
ATOM     27  C   UNL     1      -2.274  10.469  18.375  0.00  0.00    +0.000 C 
ATOM     28  C   UNL     1      -3.328  11.538  18.019  0.00  0.00    +0.000 C 
ATOM     29  C   UNL     1      -4.335  11.073  16.966  0.00  0.00    +0.000 C 
BRANCH  24  30
ATOM     30  N   UNL     1      -2.986  11.588  14.967  0.00  0.00    +0.000 NA
ATOM     31  H   UNL     1      -1.996  11.361  14.876  0.00  0.00    +0.000 HD
ATOM     32  H   UNL     1      -3.021  12.467  15.481  0.00  0.00    +0.000 HD
ENDBRANCH  24  30
ENDBRANCH  22  27
ENDBRANCH   1  22
TORSDOF 5
ENDMDL
