MODEL 1
REMARK VINA RESULT:      -9.5      0.000      0.000
REMARK  Name = 
REMARK  5 active torsions:
REMARK  status: ('A' for Active; 'I' for Inactive)
REMARK    1  A    between atoms: C_1  and  C_2
REMARK    2  A    between atoms: C_2  and  O_3
REMARK    3  A    between atoms: C_2  and  C_13
REMARK    4  A    between atoms: O_3  and  C_4
REMARK    5  A    between atoms: N_6  and  C_7
REMARK                            x       y       z     vdW  Elec       q    Type
REMARK                         _______ _______ _______ _____ _____    ______ ____
ROOT
ATOM      1  C   UNL     1      -1.178  11.048  18.742  0.00  0.00    +0.000 C 
ATOM      2  C   UNL     1      -2.090  10.481  17.621  0.00  0.00    +0.000 A 
ATOM      3  C   UNL     1      -1.891   9.580  16.584  0.00  0.00    +0.000 A 
ATOM      4  C   UNL     1      -2.765   9.608  15.478  0.00  0.00    +0.000 A 
ATOM      5  C   UNL     1      -3.791  10.553  15.390  0.00  0.00    +0.000 A 
ATOM      6  C   UNL     1      -4.070  11.350  16.484  0.00  0.00    +0.000 A 
ATOM      7  C   UNL     1      -3.273  11.222  17.613  0.00  0.00    +0.000 A 
ATOM      8  C   UNL     1      -3.412  11.910  18.841  0.00  0.00    +0.000 A 
ATOM      9  C   UNL     1      -4.577  12.400  19.380  0.00  0.00    +0.000 A 
ATOM     10  C   UNL     1      -4.550  13.233  20.474  0.00  0.00    +0.000 A 
ATOM     11  C   UNL     1      -3.372  13.194  21.187  0.00  0.00    +0.000 A 
ATOM     12  C   UNL     1      -2.189  12.704  20.701  0.00  0.00    +0.000 A 
ATOM     13  N   UNL     1      -1.331  13.215  21.679  0.00  0.00    +0.000 N 
ATOM     14  C   UNL     1      -2.095  13.631  22.810  0.00  0.00    +0.000 A 
ATOM     15  C   UNL     1      -1.834  14.295  24.017  0.00  0.00    +0.000 A 
ATOM     16  C   UNL     1      -2.848  14.266  25.007  0.00  0.00    +0.000 A 
ATOM     17  C   UNL     1      -4.038  13.560  24.830  0.00  0.00    +0.000 A 
ATOM     18  C   UNL     1      -4.345  13.070  23.573  0.00  0.00    +0.000 A 
ATOM     19  C   UNL     1      -3.422  13.249  22.536  0.00  0.00    +0.000 A 
ATOM     20  C   UNL     1      -2.175  11.966  19.523  0.00  0.00    +0.000 A 
ATOM     21  C   UNL     1      -5.842  13.847  20.741  0.00  0.00    +0.000 C 
ATOM     22  N   UNL     1      -6.667  12.835  20.123  0.00  0.00    +0.000 N 
ATOM     23  C   UNL     1      -5.962  12.039  19.194  0.00  0.00    +0.000 C 
ATOM     24  O   UNL     1      -6.507  11.130  18.581  0.00  0.00    +0.000 OA
ATOM     25  H   UNL     1      -0.328  13.300  21.612  0.00  0.00    +0.000 HD
ATOM     26  H   UNL     1      -7.221  12.262  20.746  0.00  0.00    +0.000 HD
ENDROOT
BRANCH   1  28
ATOM     27  C   UNL     1      -0.469  10.138  21.075  0.00  0.00    +0.000 C 
ATOM     28  C   UNL     1      -0.265  10.103  19.552  0.00  0.00    +0.000 C 
BRANCH  28  29
ATOM     29  O   UNL     1       1.147  10.290  19.312  0.00  0.00    +0.000 OA
BRANCH  29  30
ATOM     30  C   UNL     1       1.667   9.371  18.439  0.00  0.00    +0.000 C 
ATOM     31  O   UNL     1       1.723   9.553  17.238  0.00  0.00    +0.000 OA
ATOM     32  N   UNL     1       2.028   8.215  19.097  0.00  0.00    +0.000 N 
ATOM     33  H   UNL     1       1.715   8.131  20.054  0.00  0.00    +0.000 HD
BRANCH  32  34
ATOM     34  C   UNL     1       2.675   7.121  18.480  0.00  0.00    +0.000 A 
ATOM     35  C   UNL     1       3.834   7.276  17.705  0.00  0.00    +0.000 A 
ATOM     36  C   UNL     1       4.441   6.184  17.085  0.00  0.00    +0.000 A 
ATOM     37  C   UNL     1       3.897   4.914  17.238  0.00  0.00    +0.000 A 
ATOM     38  C   UNL     1       2.761   4.738  18.029  0.00  0.00    +0.000 A 
ATOM     39  C   UNL     1       2.156   5.836  18.656  0.00  0.00    +0.000 A 
ENDBRANCH  32  34
ENDBRANCH  29  30
ENDBRANCH  28  29
ENDBRANCH   1  28
TORSDOF 4
ENDMDL
MODEL 2
REMARK VINA RESULT:      -9.2      2.888      4.737
REMARK  Name = 
REMARK  5 active torsions:
REMARK  status: ('A' for Active; 'I' for Inactive)
REMARK    1  A    between atoms: C_1  and  C_2
REMARK    2  A    between atoms: C_2  and  O_3
REMARK    3  A    between atoms: C_2  and  C_13
REMARK    4  A    between atoms: O_3  and  C_4
REMARK    5  A    between atoms: N_6  and  C_7
REMARK                            x       y       z     vdW  Elec       q    Type
REMARK                         _______ _______ _______ _____ _____    ______ ____
ROOT
ATOM      1  C   UNL     1      -1.305  11.714  18.685  0.00  0.00    +0.000 C 
ATOM      2  C   UNL     1      -2.160  10.926  17.658  0.00  0.00    +0.000 A 
ATOM      3  C   UNL     1      -1.855  10.092  16.591  0.00  0.00    +0.000 A 
ATOM      4  C   UNL     1      -2.821   9.889  15.585  0.00  0.00    +0.000 A 
ATOM      5  C   UNL     1      -4.054  10.548  15.621  0.00  0.00    +0.000 A 
ATOM      6  C   UNL     1      -4.404  11.261  16.752  0.00  0.00    +0.000 A 
ATOM      7  C   UNL     1      -3.485  11.349  17.788  0.00  0.00    +0.000 A 
ATOM      8  C   UNL     1      -3.659  11.993  19.035  0.00  0.00    +0.000 A 
ATOM      9  C   UNL     1      -4.845  12.182  19.702  0.00  0.00    +0.000 A 
ATOM     10  C   UNL     1      -4.910  13.007  20.800  0.00  0.00    +0.000 A 
ATOM     11  C   UNL     1      -3.690  13.271  21.384  0.00  0.00    +0.000 A 
ATOM     12  C   UNL     1      -2.482  13.086  20.768  0.00  0.00    +0.000 A 
ATOM     13  N   UNL     1      -1.679  13.806  21.657  0.00  0.00    +0.000 N 
ATOM     14  C   UNL     1      -2.397  14.030  22.869  0.00  0.00    +0.000 A 
ATOM     15  C   UNL     1      -2.183  14.751  24.053  0.00  0.00    +0.000 A 
ATOM     16  C   UNL     1      -3.047  14.480  25.144  0.00  0.00    +0.000 A 
ATOM     17  C   UNL     1      -4.034  13.497  25.082  0.00  0.00    +0.000 A 
ATOM     18  C   UNL     1      -4.342  12.933  23.857  0.00  0.00    +0.000 A 
ATOM     19  C   UNL     1      -3.609  13.326  22.731  0.00  0.00    +0.000 A 
ATOM     20  C   UNL     1      -2.409  12.362  19.582  0.00  0.00    +0.000 A 
ATOM     21  C   UNL     1      -6.279  13.283  21.213  0.00  0.00    +0.000 C 
ATOM     22  N   UNL     1      -6.886  12.091  20.668  0.00  0.00    +0.000 N 
ATOM     23  C   UNL     1      -6.108  11.486  19.657  0.00  0.00    +0.000 C 
ATOM     24  O   UNL     1      -6.472  10.463  19.090  0.00  0.00    +0.000 OA
ATOM     25  H   UNL     1      -0.742  14.137  21.486  0.00  0.00    +0.000 HD
ATOM     26  H   UNL     1      -7.210  11.404  21.337  0.00  0.00    +0.000 HD
ENDROOT
BRANCH   1  28
ATOM     27  C   UNL     1      -0.465  10.051  20.503  0.00  0.00    +0.000 C 
ATOM     28  C   UNL     1      -0.104  11.035  19.379  0.00  0.00    +0.000 C 
BRANCH  28  29
ATOM     29  O   UNL     1       0.868  11.956  19.921  0.00  0.00    +0.000 OA
BRANCH  29  30
ATOM     30  C   UNL     1       1.174  12.979  19.060  0.00  0.00    +0.000 C 
ATOM     31  O   UNL     1       1.773  12.810  18.015  0.00  0.00    +0.000 OA
ATOM     32  N   UNL     1       0.787  14.194  19.581  0.00  0.00    +0.000 N 
ATOM     33  H   UNL     1       0.507  14.194  20.552  0.00  0.00    +0.000 HD
BRANCH  32  34
ATOM     34  C   UNL     1       0.888  15.421  18.888  0.00  0.00    +0.000 A 
ATOM     35  C   UNL     1       2.123  15.972  18.515  0.00  0.00    +0.000 A 
ATOM     36  C   UNL     1       2.198  17.198  17.854  0.00  0.00    +0.000 A 
ATOM     37  C   UNL     1       1.031  17.889  17.549  0.00  0.00    +0.000 A 
ATOM     38  C   UNL     1      -0.207  17.342  17.888  0.00  0.00    +0.000 A 
ATOM     39  C   UNL     1      -0.280  16.107  18.547  0.00  0.00    +0.000 A 
ENDBRANCH  32  34
ENDBRANCH  29  30
ENDBRANCH  28  29
ENDBRANCH   1  28
TORSDOF 4
ENDMDL
MODEL 3
REMARK VINA RESULT:      -9.1      2.856      4.351
REMARK  Name = 
REMARK  5 active torsions:
REMARK  status: ('A' for Active; 'I' for Inactive)
REMARK    1  A    between atoms: C_1  and  C_2
REMARK    2  A    between atoms: C_2  and  O_3
REMARK    3  A    between atoms: C_2  and  C_13
REMARK    4  A    between atoms: O_3  and  C_4
REMARK    5  A    between atoms: N_6  and  C_7
REMARK                            x       y       z     vdW  Elec       q    Type
REMARK                         _______ _______ _______ _____ _____    ______ ____
ROOT
ATOM      1  C   UNL     1      -0.959  11.581  19.093  0.00  0.00    +0.000 C 
ATOM      2  C   UNL     1      -1.969  10.865  18.157  0.00  0.00    +0.000 A 
ATOM      3  C   UNL     1      -1.845   9.898  17.169  0.00  0.00    +0.000 A 
ATOM      4  C   UNL     1      -2.862   9.777  16.200  0.00  0.00    +0.000 A 
ATOM      5  C   UNL     1      -3.961  10.640  16.193  0.00  0.00    +0.000 A 
ATOM      6  C   UNL     1      -4.148  11.502  17.257  0.00  0.00    +0.000 A 
ATOM      7  C   UNL     1      -3.196  11.521  18.266  0.00  0.00    +0.000 A 
ATOM      8  C   UNL     1      -3.219  12.296  19.450  0.00  0.00    +0.000 A 
ATOM      9  C   UNL     1      -4.334  12.748  20.113  0.00  0.00    +0.000 A 
ATOM     10  C   UNL     1      -4.222  13.667  21.130  0.00  0.00    +0.000 A 
ATOM     11  C   UNL     1      -2.958  13.766  21.669  0.00  0.00    +0.000 A 
ATOM     12  C   UNL     1      -1.818  13.319  21.055  0.00  0.00    +0.000 A 
ATOM     13  N   UNL     1      -0.877  13.965  21.861  0.00  0.00    +0.000 N 
ATOM     14  C   UNL     1      -1.508  14.419  23.056  0.00  0.00    +0.000 A 
ATOM     15  C   UNL     1      -1.137  15.195  24.164  0.00  0.00    +0.000 A 
ATOM     16  C   UNL     1      -2.000  15.177  25.289  0.00  0.00    +0.000 A 
ATOM     17  C   UNL     1      -3.144  14.380  25.334  0.00  0.00    +0.000 A 
ATOM     18  C   UNL     1      -3.581  13.770  24.172  0.00  0.00    +0.000 A 
ATOM     19  C   UNL     1      -2.826  13.927  23.003  0.00  0.00    +0.000 A 
ATOM     20  C   UNL     1      -1.908  12.490  19.942  0.00  0.00    +0.000 A 
ATOM     21  C   UNL     1      -5.510  14.212  21.535  0.00  0.00    +0.000 C 
ATOM     22  N   UNL     1      -6.329  13.100  21.114  0.00  0.00    +0.000 N 
ATOM     23  C   UNL     1      -5.699  12.280  20.153  0.00  0.00    +0.000 C 
ATOM     24  O   UNL     1      -6.250  11.290  19.690  0.00  0.00    +0.000 OA
ATOM     25  H   UNL     1       0.097  14.111  21.645  0.00  0.00    +0.000 HD
ATOM     26  H   UNL     1      -6.746  12.543  21.849  0.00  0.00    +0.000 HD
ENDROOT
BRANCH   1  28
ATOM     27  C   UNL     1      -0.367   9.946  21.030  0.00  0.00    +0.000 C 
ATOM     28  C   UNL     1       0.128  10.769  19.830  0.00  0.00    +0.000 C 
BRANCH  28  29
ATOM     29  O   UNL     1       1.247  11.557  20.291  0.00  0.00    +0.000 OA
BRANCH  29  30
ATOM     30  C   UNL     1       1.768  12.368  19.317  0.00  0.00    +0.000 C 
ATOM     31  O   UNL     1       2.196  11.946  18.260  0.00  0.00    +0.000 OA
ATOM     32  N   UNL     1       1.809  13.680  19.738  0.00  0.00    +0.000 N 
ATOM     33  H   UNL     1       1.627  13.839  20.719  0.00  0.00    +0.000 HD
BRANCH  32  34
ATOM     34  C   UNL     1       2.211  14.761  18.922  0.00  0.00    +0.000 A 
ATOM     35  C   UNL     1       1.422  15.910  18.759  0.00  0.00    +0.000 A 
ATOM     36  C   UNL     1       1.828  16.954  17.928  0.00  0.00    +0.000 A 
ATOM     37  C   UNL     1       3.039  16.865  17.251  0.00  0.00    +0.000 A 
ATOM     38  C   UNL     1       3.849  15.742  17.424  0.00  0.00    +0.000 A 
ATOM     39  C   UNL     1       3.442  14.696  18.264  0.00  0.00    +0.000 A 
ENDBRANCH  32  34
ENDBRANCH  29  30
ENDBRANCH  28  29
ENDBRANCH   1  28
TORSDOF 4
ENDMDL
MODEL 4
REMARK VINA RESULT:      -9.0      0.906      1.294
REMARK  Name = 
REMARK  5 active torsions:
REMARK  status: ('A' for Active; 'I' for Inactive)
REMARK    1  A    between atoms: C_1  and  C_2
REMARK    2  A    between atoms: C_2  and  O_3
REMARK    3  A    between atoms: C_2  and  C_13
REMARK    4  A    between atoms: O_3  and  C_4
REMARK    5  A    between atoms: N_6  and  C_7
REMARK                            x       y       z     vdW  Elec       q    Type
REMARK                         _______ _______ _______ _____ _____    ______ ____
ROOT
ATOM      1  C   UNL     1      -1.419  11.793  18.480  0.00  0.00    +0.000 C 
ATOM      2  C   UNL     1      -2.272  10.977  17.471  0.00  0.00    +0.000 A 
ATOM      3  C   UNL     1      -1.965  10.171  16.384  0.00  0.00    +0.000 A 
ATOM      4  C   UNL     1      -2.954   9.935  15.408  0.00  0.00    +0.000 A 
ATOM      5  C   UNL     1      -4.215  10.533  15.496  0.00  0.00    +0.000 A 
ATOM      6  C   UNL     1      -4.559  11.215  16.647  0.00  0.00    +0.000 A 
ATOM      7  C   UNL     1      -3.609  11.334  17.652  0.00  0.00    +0.000 A 
ATOM      8  C   UNL     1      -3.771  11.954  18.913  0.00  0.00    +0.000 A 
ATOM      9  C   UNL     1      -4.940  12.078  19.623  0.00  0.00    +0.000 A 
ATOM     10  C   UNL     1      -5.006  12.885  20.733  0.00  0.00    +0.000 A 
ATOM     11  C   UNL     1      -3.781  13.201  21.279  0.00  0.00    +0.000 A 
ATOM     12  C   UNL     1      -2.587  13.081  20.620  0.00  0.00    +0.000 A 
ATOM     13  N   UNL     1      -1.789  13.828  21.491  0.00  0.00    +0.000 N 
ATOM     14  C   UNL     1      -2.474  14.003  22.729  0.00  0.00    +0.000 A 
ATOM     15  C   UNL     1      -2.254  14.719  23.915  0.00  0.00    +0.000 A 
ATOM     16  C   UNL     1      -3.065  14.394  25.031  0.00  0.00    +0.000 A 
ATOM     17  C   UNL     1      -4.006  13.366  24.990  0.00  0.00    +0.000 A 
ATOM     18  C   UNL     1      -4.329  12.802  23.768  0.00  0.00    +0.000 A 
ATOM     19  C   UNL     1      -3.655  13.244  22.623  0.00  0.00    +0.000 A 
ATOM     20  C   UNL     1      -2.522  12.376  19.423  0.00  0.00    +0.000 A 
ATOM     21  C   UNL     1      -6.371  13.090  21.197  0.00  0.00    +0.000 C 
ATOM     22  N   UNL     1      -6.940  11.877  20.657  0.00  0.00    +0.000 N 
ATOM     23  C   UNL     1      -6.170  11.322  19.612  0.00  0.00    +0.000 C 
ATOM     24  O   UNL     1      -6.504  10.290  19.044  0.00  0.00    +0.000 OA
ATOM     25  H   UNL     1      -0.875  14.206  21.292  0.00  0.00    +0.000 HD
ATOM     26  H   UNL     1      -7.207  11.167  21.327  0.00  0.00    +0.000 HD
ENDROOT
BRANCH   1  28
ATOM     27  C   UNL     1       0.844  12.165  19.710  0.00  0.00    +0.000 C 
ATOM     28  C   UNL     1      -0.164  11.164  19.122  0.00  0.00    +0.000 C 
BRANCH  28  29
ATOM     29  O   UNL     1       0.576  10.285  18.247  0.00  0.00    +0.000 OA
BRANCH  29  30
ATOM     30  C   UNL     1       1.209   9.271  18.918  0.00  0.00    +0.000 C 
ATOM     31  O   UNL     1       1.126   9.119  20.122  0.00  0.00    +0.000 OA
ATOM     32  N   UNL     1       1.993   8.529  18.063  0.00  0.00    +0.000 N 
ATOM     33  H   UNL     1       2.133   8.913  17.139  0.00  0.00    +0.000 HD
BRANCH  32  34
ATOM     34  C   UNL     1       2.696   7.364  18.443  0.00  0.00    +0.000 A 
ATOM     35  C   UNL     1       2.300   6.571  19.531  0.00  0.00    +0.000 A 
ATOM     36  C   UNL     1       3.025   5.439  19.903  0.00  0.00    +0.000 A 
ATOM     37  C   UNL     1       4.159   5.080  19.184  0.00  0.00    +0.000 A 
ATOM     38  C   UNL     1       4.551   5.841  18.082  0.00  0.00    +0.000 A 
ATOM     39  C   UNL     1       3.817   6.975  17.706  0.00  0.00    +0.000 A 
ENDBRANCH  32  34
ENDBRANCH  29  30
ENDBRANCH  28  29
ENDBRANCH   1  28
TORSDOF 4
ENDMDL
MODEL 5
REMARK VINA RESULT:      -8.8      2.705      4.322
REMARK  Name = 
REMARK  5 active torsions:
REMARK  status: ('A' for Active; 'I' for Inactive)
REMARK    1  A    between atoms: C_1  and  C_2
REMARK    2  A    between atoms: C_2  and  O_3
REMARK    3  A    between atoms: C_2  and  C_13
REMARK    4  A    between atoms: O_3  and  C_4
REMARK    5  A    between atoms: N_6  and  C_7
REMARK                            x       y       z     vdW  Elec       q    Type
REMARK                         _______ _______ _______ _____ _____    ______ ____
ROOT
ATOM      1  C   UNL     1      -1.444  11.839  18.639  0.00  0.00    +0.000 C 
ATOM      2  C   UNL     1      -2.268  11.005  17.622  0.00  0.00    +0.000 A 
ATOM      3  C   UNL     1      -1.931  10.188  16.551  0.00  0.00    +0.000 A 
ATOM      4  C   UNL     1      -2.897   9.934  15.556  0.00  0.00    +0.000 A 
ATOM      5  C   UNL     1      -4.163  10.525  15.608  0.00  0.00    +0.000 A 
ATOM      6  C   UNL     1      -4.537  11.219  16.742  0.00  0.00    +0.000 A 
ATOM      7  C   UNL     1      -3.611  11.356  17.768  0.00  0.00    +0.000 A 
ATOM      8  C   UNL     1      -3.805  11.990  19.017  0.00  0.00    +0.000 A 
ATOM      9  C   UNL     1      -4.992  12.116  19.698  0.00  0.00    +0.000 A 
ATOM     10  C   UNL     1      -5.088  12.936  20.797  0.00  0.00    +0.000 A 
ATOM     11  C   UNL     1      -3.877  13.266  21.366  0.00  0.00    +0.000 A 
ATOM     12  C   UNL     1      -2.668  13.146  20.736  0.00  0.00    +0.000 A 
ATOM     13  N   UNL     1      -1.895  13.908  21.615  0.00  0.00    +0.000 N 
ATOM     14  C   UNL     1      -2.609  14.094  22.836  0.00  0.00    +0.000 A 
ATOM     15  C   UNL     1      -2.420  14.826  24.017  0.00  0.00    +0.000 A 
ATOM     16  C   UNL     1      -3.254  14.509  25.119  0.00  0.00    +0.000 A 
ATOM     17  C   UNL     1      -4.188  13.475  25.068  0.00  0.00    +0.000 A 
ATOM     18  C   UNL     1      -4.480  12.894  23.847  0.00  0.00    +0.000 A 
ATOM     19  C   UNL     1      -3.783  13.326  22.712  0.00  0.00    +0.000 A 
ATOM     20  C   UNL     1      -2.571  12.427  19.549  0.00  0.00    +0.000 A 
ATOM     21  C   UNL     1      -6.464  13.138  21.226  0.00  0.00    +0.000 C 
ATOM     22  N   UNL     1      -7.013  11.915  20.689  0.00  0.00    +0.000 N 
ATOM     23  C   UNL     1      -6.216  11.352  19.668  0.00  0.00    +0.000 C 
ATOM     24  O   UNL     1      -6.531  10.311  19.105  0.00  0.00    +0.000 OA
ATOM     25  H   UNL     1      -0.979  14.290  21.433  0.00  0.00    +0.000 HD
ATOM     26  H   UNL     1      -7.292  11.211  21.361  0.00  0.00    +0.000 HD
ENDROOT
BRANCH   1  28
ATOM     27  C   UNL     1      -0.295   9.725  19.632  0.00  0.00    +0.000 C 
ATOM     28  C   UNL     1      -0.200  11.226  19.318  0.00  0.00    +0.000 C 
BRANCH  28  29
ATOM     29  O   UNL     1       0.197  11.888  20.539  0.00  0.00    +0.000 OA
BRANCH  29  30
ATOM     30  C   UNL     1       1.205  12.798  20.350  0.00  0.00    +0.000 C 
ATOM     31  O   UNL     1       2.173  12.878  21.081  0.00  0.00    +0.000 OA
ATOM     32  N   UNL     1       0.921  13.636  19.293  0.00  0.00    +0.000 N 
ATOM     33  H   UNL     1      -0.019  13.588  18.927  0.00  0.00    +0.000 HD
BRANCH  32  34
ATOM     34  C   UNL     1       1.809  14.618  18.800  0.00  0.00    +0.000 A 
ATOM     35  C   UNL     1       2.964  14.287  18.076  0.00  0.00    +0.000 A 
ATOM     36  C   UNL     1       3.840  15.273  17.620  0.00  0.00    +0.000 A 
ATOM     37  C   UNL     1       3.566  16.611  17.880  0.00  0.00    +0.000 A 
ATOM     38  C   UNL     1       2.407  16.959  18.574  0.00  0.00    +0.000 A 
ATOM     39  C   UNL     1       1.525  15.967  19.026  0.00  0.00    +0.000 A 
ENDBRANCH  32  34
ENDBRANCH  29  30
ENDBRANCH  28  29
ENDBRANCH   1  28
TORSDOF 4
ENDMDL
MODEL 6
REMARK VINA RESULT:      -8.8      1.264      1.685
REMARK  Name = 
REMARK  5 active torsions:
REMARK  status: ('A' for Active; 'I' for Inactive)
REMARK    1  A    between atoms: C_1  and  C_2
REMARK    2  A    between atoms: C_2  and  O_3
REMARK    3  A    between atoms: C_2  and  C_13
REMARK    4  A    between atoms: O_3  and  C_4
REMARK    5  A    between atoms: N_6  and  C_7
REMARK                            x       y       z     vdW  Elec       q    Type
REMARK                         _______ _______ _______ _____ _____    ______ ____
ROOT
ATOM      1  C   UNL     1      -0.887  11.768  19.135  0.00  0.00    +0.000 C 
ATOM      2  C   UNL     1      -1.883  10.985  18.238  0.00  0.00    +0.000 A 
ATOM      3  C   UNL     1      -1.734  10.004  17.267  0.00  0.00    +0.000 A 
ATOM      4  C   UNL     1      -2.766   9.814  16.325  0.00  0.00    +0.000 A 
ATOM      5  C   UNL     1      -3.905  10.624  16.326  0.00  0.00    +0.000 A 
ATOM      6  C   UNL     1      -4.109  11.499  17.376  0.00  0.00    +0.000 A 
ATOM      7  C   UNL     1      -3.137  11.584  18.363  0.00  0.00    +0.000 A 
ATOM      8  C   UNL     1      -3.170  12.381  19.530  0.00  0.00    +0.000 A 
ATOM      9  C   UNL     1      -4.290  12.794  20.211  0.00  0.00    +0.000 A 
ATOM     10  C   UNL     1      -4.200  13.739  21.206  0.00  0.00    +0.000 A 
ATOM     11  C   UNL     1      -2.930  13.910  21.713  0.00  0.00    +0.000 A 
ATOM     12  C   UNL     1      -1.784  13.504  21.081  0.00  0.00    +0.000 A 
ATOM     13  N   UNL     1      -0.857  14.211  21.852  0.00  0.00    +0.000 N 
ATOM     14  C   UNL     1      -1.482  14.659  23.053  0.00  0.00    +0.000 A 
ATOM     15  C   UNL     1      -1.124  15.475  24.135  0.00  0.00    +0.000 A 
ATOM     16  C   UNL     1      -1.960  15.441  25.280  0.00  0.00    +0.000 A 
ATOM     17  C   UNL     1      -3.062  14.592  25.368  0.00  0.00    +0.000 A 
ATOM     18  C   UNL     1      -3.496  13.937  24.229  0.00  0.00    +0.000 A 
ATOM     19  C   UNL     1      -2.776  14.105  23.040  0.00  0.00    +0.000 A 
ATOM     20  C   UNL     1      -1.859  12.648  19.987  0.00  0.00    +0.000 A 
ATOM     21  C   UNL     1      -5.502  14.231  21.630  0.00  0.00    +0.000 C 
ATOM     22  N   UNL     1      -6.277  13.072  21.251  0.00  0.00    +0.000 N 
ATOM     23  C   UNL     1      -5.630  12.264  20.292  0.00  0.00    +0.000 C 
ATOM     24  O   UNL     1      -6.144  11.238  19.862  0.00  0.00    +0.000 OA
ATOM     25  H   UNL     1       0.104  14.399  21.610  0.00  0.00    +0.000 HD
ATOM     26  H   UNL     1      -6.650  12.512  22.007  0.00  0.00    +0.000 HD
ENDROOT
BRANCH   1  28
ATOM     27  C   UNL     1       1.330  11.924  20.490  0.00  0.00    +0.000 C 
ATOM     28  C   UNL     1       0.253  11.024  19.862  0.00  0.00    +0.000 C 
BRANCH  28  29
ATOM     29  O   UNL     1       0.942  10.050  19.048  0.00  0.00    +0.000 OA
BRANCH  29  30
ATOM     30  C   UNL     1       1.264   8.909  19.737  0.00  0.00    +0.000 C 
ATOM     31  O   UNL     1       0.964   8.730  20.903  0.00  0.00    +0.000 OA
ATOM     32  N   UNL     1       2.025   8.062  18.961  0.00  0.00    +0.000 N 
ATOM     33  H   UNL     1       2.378   8.447  18.096  0.00  0.00    +0.000 HD
BRANCH  32  34
ATOM     34  C   UNL     1       2.434   6.772  19.364  0.00  0.00    +0.000 A 
ATOM     35  C   UNL     1       1.760   6.049  20.360  0.00  0.00    +0.000 A 
ATOM     36  C   UNL     1       2.198   4.786  20.759  0.00  0.00    +0.000 A 
ATOM     37  C   UNL     1       3.318   4.223  20.158  0.00  0.00    +0.000 A 
ATOM     38  C   UNL     1       3.984   4.917  19.147  0.00  0.00    +0.000 A 
ATOM     39  C   UNL     1       3.539   6.183  18.743  0.00  0.00    +0.000 A 
ENDBRANCH  32  34
ENDBRANCH  29  30
ENDBRANCH  28  29
ENDBRANCH   1  28
TORSDOF 4
ENDMDL
MODEL 7
REMARK VINA RESULT:      -8.7      3.096      6.373
REMARK  Name = 
REMARK  5 active torsions:
REMARK  status: ('A' for Active; 'I' for Inactive)
REMARK    1  A    between atoms: C_1  and  C_2
REMARK    2  A    between atoms: C_2  and  O_3
REMARK    3  A    between atoms: C_2  and  C_13
REMARK    4  A    between atoms: O_3  and  C_4
REMARK    5  A    between atoms: N_6  and  C_7
REMARK                            x       y       z     vdW  Elec       q    Type
REMARK                         _______ _______ _______ _____ _____    ______ ____
ROOT
ATOM      1  C   UNL     1       0.012  12.273  20.018  0.00  0.00    +0.000 C 
ATOM      2  C   UNL     1       1.037  12.987  19.096  0.00  0.00    +0.000 A 
ATOM      3  C   UNL     1       2.122  12.553  18.348  0.00  0.00    +0.000 A 
ATOM      4  C   UNL     1       3.114  13.484  17.980  0.00  0.00    +0.000 A 
ATOM      5  C   UNL     1       3.045  14.817  18.395  0.00  0.00    +0.000 A 
ATOM      6  C   UNL     1       1.898  15.271  19.016  0.00  0.00    +0.000 A 
ATOM      7  C   UNL     1       0.877  14.364  19.261  0.00  0.00    +0.000 A 
ATOM      8  C   UNL     1      -0.383  14.630  19.846  0.00  0.00    +0.000 A 
ATOM      9  C   UNL     1      -1.074  15.817  19.801  0.00  0.00    +0.000 A 
ATOM     10  C   UNL     1      -2.186  16.013  20.585  0.00  0.00    +0.000 A 
ATOM     11  C   UNL     1      -2.753  14.852  21.066  0.00  0.00    +0.000 A 
ATOM     12  C   UNL     1      -2.112  13.643  21.119  0.00  0.00    +0.000 A 
ATOM     13  N   UNL     1      -2.999  12.972  21.965  0.00  0.00    +0.000 N 
ATOM     14  C   UNL     1      -4.227  13.694  22.036  0.00  0.00    +0.000 A 
ATOM     15  C   UNL     1      -5.418  13.594  22.769  0.00  0.00    +0.000 A 
ATOM     16  C   UNL     1      -6.520  14.369  22.327  0.00  0.00    +0.000 A 
ATOM     17  C   UNL     1      -6.460  15.157  21.178  0.00  0.00    +0.000 A 
ATOM     18  C   UNL     1      -5.231  15.378  20.581  0.00  0.00    +0.000 A 
ATOM     19  C   UNL     1      -4.099  14.755  21.119  0.00  0.00    +0.000 A 
ATOM     20  C   UNL     1      -0.915  13.461  20.436  0.00  0.00    +0.000 A 
ATOM     21  C   UNL     1      -2.628  17.400  20.594  0.00  0.00    +0.000 C 
ATOM     22  N   UNL     1      -2.075  17.784  19.316  0.00  0.00    +0.000 N 
ATOM     23  C   UNL     1      -1.041  16.928  18.881  0.00  0.00    +0.000 C 
ATOM     24  O   UNL     1      -0.464  17.105  17.815  0.00  0.00    +0.000 OA
ATOM     25  H   UNL     1      -2.816  12.117  22.469  0.00  0.00    +0.000 HD
ATOM     26  H   UNL     1      -2.739  17.960  18.572  0.00  0.00    +0.000 HD
ENDROOT
BRANCH   1  28
ATOM     27  C   UNL     1       0.219   9.694  19.731  0.00  0.00    +0.000 C 
ATOM     28  C   UNL     1      -0.649  10.953  19.568  0.00  0.00    +0.000 C 
BRANCH  28  29
ATOM     29  O   UNL     1      -1.127  10.961  18.205  0.00  0.00    +0.000 OA
BRANCH  29  30
ATOM     30  C   UNL     1      -2.475  10.732  18.110  0.00  0.00    +0.000 C 
ATOM     31  O   UNL     1      -2.946   9.643  17.842  0.00  0.00    +0.000 OA
ATOM     32  N   UNL     1      -3.187  11.900  18.275  0.00  0.00    +0.000 N 
ATOM     33  H   UNL     1      -2.648  12.755  18.268  0.00  0.00    +0.000 HD
BRANCH  32  34
ATOM     34  C   UNL     1      -4.598  11.969  18.319  0.00  0.00    +0.000 A 
ATOM     35  C   UNL     1      -5.366  12.319  17.199  0.00  0.00    +0.000 A 
ATOM     36  C   UNL     1      -6.756  12.404  17.273  0.00  0.00    +0.000 A 
ATOM     37  C   UNL     1      -7.400  12.134  18.475  0.00  0.00    +0.000 A 
ATOM     38  C   UNL     1      -6.653  11.757  19.592  0.00  0.00    +0.000 A 
ATOM     39  C   UNL     1      -5.256  11.666  19.513  0.00  0.00    +0.000 A 
ENDBRANCH  32  34
ENDBRANCH  29  30
ENDBRANCH  28  29
ENDBRANCH   1  28
TORSDOF 4
ENDMDL
MODEL 8
REMARK VINA RESULT:      -8.7      1.710      2.314
REMARK  Name = 
REMARK  5 active torsions:
REMARK  status: ('A' for Active; 'I' for Inactive)
REMARK    1  A    between atoms: C_1  and  C_2
REMARK    2  A    between atoms: C_2  and  O_3
REMARK    3  A    between atoms: C_2  and  C_13
REMARK    4  A    between atoms: O_3  and  C_4
REMARK    5  A    between atoms: N_6  and  C_7
REMARK                            x       y       z     vdW  Elec       q    Type
REMARK                         _______ _______ _______ _____ _____    ______ ____
ROOT
ATOM      1  C   UNL     1      -2.038  12.115  19.741  0.00  0.00    +0.000 C 
ATOM      2  C   UNL     1      -2.453  11.130  18.615  0.00  0.00    +0.000 A 
ATOM      3  C   UNL     1      -1.806  10.093  17.958  0.00  0.00    +0.000 A 
ATOM      4  C   UNL     1      -2.278   9.686  16.693  0.00  0.00    +0.000 A 
ATOM      5  C   UNL     1      -3.350  10.336  16.077  0.00  0.00    +0.000 A 
ATOM      6  C   UNL     1      -4.075  11.269  16.794  0.00  0.00    +0.000 A 
ATOM      7  C   UNL     1      -3.668  11.570  18.086  0.00  0.00    +0.000 A 
ATOM      8  C   UNL     1      -4.290  12.458  18.994  0.00  0.00    +0.000 A 
ATOM      9  C   UNL     1      -5.624  12.781  19.044  0.00  0.00    +0.000 A 
ATOM     10  C   UNL     1      -6.068  13.815  19.833  0.00  0.00    +0.000 A 
ATOM     11  C   UNL     1      -5.185  14.196  20.820  0.00  0.00    +0.000 A 
ATOM     12  C   UNL     1      -3.851  13.887  20.824  0.00  0.00    +0.000 A 
ATOM     13  N   UNL     1      -3.433  14.776  21.818  0.00  0.00    +0.000 N 
ATOM     14  C   UNL     1      -4.568  15.247  22.543  0.00  0.00    +0.000 A 
ATOM     15  C   UNL     1      -4.804  16.197  23.546  0.00  0.00    +0.000 A 
ATOM     16  C   UNL     1      -6.064  16.158  24.195  0.00  0.00    +0.000 A 
ATOM     17  C   UNL     1      -7.018  15.183  23.904  0.00  0.00    +0.000 A 
ATOM     18  C   UNL     1      -6.835  14.377  22.795  0.00  0.00    +0.000 A 
ATOM     19  C   UNL     1      -5.668  14.529  22.036  0.00  0.00    +0.000 A 
ATOM     20  C   UNL     1      -3.355  12.934  19.942  0.00  0.00    +0.000 A 
ATOM     21  C   UNL     1      -7.454  14.170  19.563  0.00  0.00    +0.000 C 
ATOM     22  N   UNL     1      -7.881  12.890  19.047  0.00  0.00    +0.000 N 
ATOM     23  C   UNL     1      -6.809  12.089  18.597  0.00  0.00    +0.000 C 
ATOM     24  O   UNL     1      -6.992  10.971  18.132  0.00  0.00    +0.000 OA
ATOM     25  H   UNL     1      -2.484  15.066  22.004  0.00  0.00    +0.000 HD
ATOM     26  H   UNL     1      -8.514  12.357  19.629  0.00  0.00    +0.000 HD
ENDROOT
BRANCH   1  28
ATOM     27  C   UNL     1      -1.971  11.928  22.336  0.00  0.00    +0.000 C 
ATOM     28  C   UNL     1      -1.301  11.595  20.994  0.00  0.00    +0.000 C 
BRANCH  28  29
ATOM     29  O   UNL     1       0.076  12.021  21.093  0.00  0.00    +0.000 OA
BRANCH  29  30
ATOM     30  C   UNL     1       0.911  11.332  20.252  0.00  0.00    +0.000 C 
ATOM     31  O   UNL     1       1.725  11.877  19.532  0.00  0.00    +0.000 OA
ATOM     32  N   UNL     1       0.638   9.982  20.284  0.00  0.00    +0.000 N 
ATOM     33  H   UNL     1      -0.211   9.710  20.760  0.00  0.00    +0.000 HD
BRANCH  32  34
ATOM     34  C   UNL     1       1.390   9.005  19.594  0.00  0.00    +0.000 A 
ATOM     35  C   UNL     1       1.763   9.158  18.250  0.00  0.00    +0.000 A 
ATOM     36  C   UNL     1       2.484   8.168  17.583  0.00  0.00    +0.000 A 
ATOM     37  C   UNL     1       2.850   7.009  18.257  0.00  0.00    +0.000 A 
ATOM     38  C   UNL     1       2.512   6.853  19.601  0.00  0.00    +0.000 A 
ATOM     39  C   UNL     1       1.792   7.852  20.272  0.00  0.00    +0.000 A 
ENDBRANCH  32  34
ENDBRANCH  29  30
ENDBRANCH  28  29
ENDBRANCH   1  28
TORSDOF 4
ENDMDL
MODEL 9
REMARK VINA RESULT:      -8.7      3.647      6.884
REMARK  Name = 
REMARK  5 active torsions:
REMARK  status: ('A' for Active; 'I' for Inactive)
REMARK    1  A    between atoms: C_1  and  C_2
REMARK    2  A    between atoms: C_2  and  O_3
REMARK    3  A    between atoms: C_2  and  C_13
REMARK    4  A    between atoms: O_3  and  C_4
REMARK    5  A    between atoms: N_6  and  C_7
REMARK                            x       y       z     vdW  Elec       q    Type
REMARK                         _______ _______ _______ _____ _____    ______ ____
ROOT
ATOM      1  C   UNL     1      -6.034  14.887  20.673  0.00  0.00    +0.000 C 
ATOM      2  C   UNL     1      -6.491  13.774  21.653  0.00  0.00    +0.000 A 
ATOM      3  C   UNL     1      -7.693  13.114  21.865  0.00  0.00    +0.000 A 
ATOM      4  C   UNL     1      -7.917  12.483  23.106  0.00  0.00    +0.000 A 
ATOM      5  C   UNL     1      -6.971  12.552  24.133  0.00  0.00    +0.000 A 
ATOM      6  C   UNL     1      -5.725  13.087  23.868  0.00  0.00    +0.000 A 
ATOM      7  C   UNL     1      -5.481  13.594  22.600  0.00  0.00    +0.000 A 
ATOM      8  C   UNL     1      -4.271  14.145  22.116  0.00  0.00    +0.000 A 
ATOM      9  C   UNL     1      -3.001  13.833  22.537  0.00  0.00    +0.000 A 
ATOM     10  C   UNL     1      -1.924  14.588  22.140  0.00  0.00    +0.000 A 
ATOM     11  C   UNL     1      -2.156  15.369  21.029  0.00  0.00    +0.000 A 
ATOM     12  C   UNL     1      -3.400  15.696  20.561  0.00  0.00    +0.000 A 
ATOM     13  N   UNL     1      -3.033  16.720  19.684  0.00  0.00    +0.000 N 
ATOM     14  C   UNL     1      -1.628  16.658  19.444  0.00  0.00    +0.000 A 
ATOM     15  C   UNL     1      -0.682  17.442  18.768  0.00  0.00    +0.000 A 
ATOM     16  C   UNL     1       0.593  16.866  18.536  0.00  0.00    +0.000 A 
ATOM     17  C   UNL     1       0.892  15.555  18.902  0.00  0.00    +0.000 A 
ATOM     18  C   UNL     1       0.011  14.871  19.721  0.00  0.00    +0.000 A 
ATOM     19  C   UNL     1      -1.178  15.500  20.106  0.00  0.00    +0.000 A 
ATOM     20  C   UNL     1      -4.522  15.032  21.045  0.00  0.00    +0.000 A 
ATOM     21  C   UNL     1      -0.712  14.267  22.881  0.00  0.00    +0.000 C 
ATOM     22  N   UNL     1      -1.060  12.911  23.238  0.00  0.00    +0.000 N 
ATOM     23  C   UNL     1      -2.448  12.662  23.175  0.00  0.00    +0.000 C 
ATOM     24  O   UNL     1      -2.918  11.563  23.442  0.00  0.00    +0.000 OA
ATOM     25  H   UNL     1      -3.645  17.414  19.282  0.00  0.00    +0.000 HD
ATOM     26  H   UNL     1      -0.538  12.176  22.780  0.00  0.00    +0.000 HD
ENDROOT
BRANCH   1  28
ATOM     27  C   UNL     1      -7.498  15.804  18.726  0.00  0.00    +0.000 C 
ATOM     28  C   UNL     1      -6.416  14.812  19.179  0.00  0.00    +0.000 C 
BRANCH  28  29
ATOM     29  O   UNL     1      -6.835  13.501  18.738  0.00  0.00    +0.000 OA
BRANCH  29  30
ATOM     30  C   UNL     1      -5.860  12.834  18.043  0.00  0.00    +0.000 C 
ATOM     31  O   UNL     1      -5.869  12.717  16.832  0.00  0.00    +0.000 OA
ATOM     32  N   UNL     1      -4.945  12.264  18.901  0.00  0.00    +0.000 N 
ATOM     33  H   UNL     1      -5.194  12.260  19.880  0.00  0.00    +0.000 HD
BRANCH  32  34
ATOM     34  C   UNL     1      -3.777  11.588  18.480  0.00  0.00    +0.000 A 
ATOM     35  C   UNL     1      -3.802  10.597  17.488  0.00  0.00    +0.000 A 
ATOM     36  C   UNL     1      -2.640   9.926  17.106  0.00  0.00    +0.000 A 
ATOM     37  C   UNL     1      -1.430  10.245  17.711  0.00  0.00    +0.000 A 
ATOM     38  C   UNL     1      -1.383  11.248  18.680  0.00  0.00    +0.000 A 
ATOM     39  C   UNL     1      -2.551  11.926  19.058  0.00  0.00    +0.000 A 
ENDBRANCH  32  34
ENDBRANCH  29  30
ENDBRANCH  28  29
ENDBRANCH   1  28
TORSDOF 4
ENDMDL
