MODEL 1
REMARK VINA RESULT:      -7.8      0.000      0.000
REMARK  Name = 
REMARK  7 active torsions:
REMARK  status: ('A' for Active; 'I' for Inactive)
REMARK    1  A    between atoms: C_2  and  C_3
REMARK    2  A    between atoms: C_3  and  O_4
REMARK    3  A    between atoms: N_7  and  C1*_8
REMARK    4  A    between atoms: C4*_10  and  C5*_11
REMARK    5  A    between atoms: C5*_11  and  O5*_12
REMARK    6  A    between atoms: C3*_13  and  O3*_14
REMARK    7  A    between atoms: C2*_15  and  O2*_16
REMARK                            x       y       z     vdW  Elec       q    Type
REMARK                         _______ _______ _______ _____ _____    ______ ____
ROOT
ATOM      1  C   UNL     1       6.921   5.280  18.012  0.00  0.00    +0.000 C 
ATOM      2  C   UNL     1       6.178   5.192  19.282  0.00  0.00    +0.000 C 
ATOM      3  C   UNL     1       4.934   4.733  19.322  0.00  0.00    +0.000 C 
ATOM      4  N   UNL     1       4.256   4.356  18.190  0.00  0.00    +0.000 N 
ATOM      5  C   UNL     1       4.808   4.335  16.915  0.00  0.00    +0.000 C 
ATOM      6  O   UNL     1       4.127   3.977  15.933  0.00  0.00    +0.000 OA
ATOM      7  C   UNL     1       6.244   4.799  16.707  0.00  0.00    +0.000 C 
ATOM      8  F   UNL     1       6.987   3.790  16.129  0.00  0.00    +0.000 F 
ATOM      9  F   UNL     1       6.257   5.795  15.757  0.00  0.00    +0.000 F 
ENDROOT
BRANCH   4  10
ATOM     10  C1* UNL     1       2.859   3.954  18.294  0.00  0.00    +0.000 C 
ATOM     11  O4* UNL     1       2.239   4.695  19.358  0.00  0.00    +0.000 OA
ATOM     12  C4* UNL     1       1.455   3.794  20.170  0.00  0.00    +0.000 C 
ATOM     13  C3* UNL     1       1.413   2.462  19.416  0.00  0.00    +0.000 C 
ATOM     14  C2* UNL     1       2.684   2.456  18.582  0.00  0.00    +0.000 C 
BRANCH  13  15
ATOM     15  O3* UNL     1       0.287   2.427  18.522  0.00  0.00    +0.000 OA
ATOM     16  H3* UNL     1      -0.242   1.630  18.706  0.00  0.00    +0.000 HD
ENDBRANCH  13  15
BRANCH  14  17
ATOM     17  O2* UNL     1       2.554   1.667  17.402  0.00  0.00    +0.000 OA
ATOM     18  H2* UNL     1       2.994   0.811  17.571  0.00  0.00    +0.000 HD
ENDBRANCH  14  17
BRANCH  12  19
ATOM     19  C5* UNL     1       2.067   3.704  21.577  0.00  0.00    +0.000 C 
BRANCH  19  20
ATOM     20  O5* UNL     1       1.609   2.539  22.267  0.00  0.00    +0.000 OA
ATOM     21  H5* UNL     1       2.011   1.759  21.844  0.00  0.00    +0.000 HD
ENDBRANCH  19  20
ENDBRANCH  12  19
ENDBRANCH   4  10
BRANCH   1  23
ATOM     22  C   UNL     1       7.713   7.965  17.640  0.00  0.00    +0.000 C 
ATOM     23  C   UNL     1       7.348   6.725  17.811  0.00  0.00    +0.000 C 
ENDBRANCH   1  23
BRANCH   1  24
ATOM     24  O   UNL     1       8.123   4.513  18.246  0.00  0.00    +0.000 OA
ATOM     25  H   UNL     1       7.922   3.816  18.886  0.00  0.00    +0.000 HD
ENDBRANCH   1  24
TORSDOF 7
ENDMDL
MODEL 2
REMARK VINA RESULT:      -7.6      1.038      1.038
REMARK  Name = 
REMARK  7 active torsions:
REMARK  status: ('A' for Active; 'I' for Inactive)
REMARK    1  A    between atoms: C_2  and  C_3
REMARK    2  A    between atoms: C_3  and  O_4
REMARK    3  A    between atoms: N_7  and  C1*_8
REMARK    4  A    between atoms: C4*_10  and  C5*_11
REMARK    5  A    between atoms: C5*_11  and  O5*_12
REMARK    6  A    between atoms: C3*_13  and  O3*_14
REMARK    7  A    between atoms: C2*_15  and  O2*_16
REMARK                            x       y       z     vdW  Elec       q    Type
REMARK                         _______ _______ _______ _____ _____    ______ ____
ROOT
ATOM      1  C   UNL     1       7.164   5.451  18.163  0.00  0.00    +0.000 C 
ATOM      2  C   UNL     1       6.270   5.358  19.331  0.00  0.00    +0.000 C 
ATOM      3  C   UNL     1       5.082   4.775  19.243  0.00  0.00    +0.000 C 
ATOM      4  N   UNL     1       4.601   4.267  18.064  0.00  0.00    +0.000 N 
ATOM      5  C   UNL     1       5.318   4.232  16.874  0.00  0.00    +0.000 C 
ATOM      6  O   UNL     1       4.812   3.750  15.840  0.00  0.00    +0.000 OA
ATOM      7  C   UNL     1       6.717   4.830  16.818  0.00  0.00    +0.000 C 
ATOM      8  F   UNL     1       7.624   3.873  16.412  0.00  0.00    +0.000 F 
ATOM      9  F   UNL     1       6.763   5.766  15.812  0.00  0.00    +0.000 F 
ENDROOT
BRANCH   4  10
ATOM     10  C1* UNL     1       3.247   3.729  18.016  0.00  0.00    +0.000 C 
ATOM     11  O4* UNL     1       2.331   4.728  18.493  0.00  0.00    +0.000 OA
ATOM     12  C4* UNL     1       1.401   4.119  19.415  0.00  0.00    +0.000 C 
ATOM     13  C3* UNL     1       1.625   2.607  19.315  0.00  0.00    +0.000 C 
ATOM     14  C2* UNL     1       3.072   2.465  18.870  0.00  0.00    +0.000 C 
BRANCH  13  15
ATOM     15  O3* UNL     1       0.782   2.042  18.297  0.00  0.00    +0.000 OA
ATOM     16  H3* UNL     1       1.324   1.823  17.518  0.00  0.00    +0.000 HD
ENDBRANCH  13  15
BRANCH  14  17
ATOM     17  O2* UNL     1       3.298   1.259  18.145  0.00  0.00    +0.000 OA
ATOM     18  H2* UNL     1       2.512   1.100  17.586  0.00  0.00    +0.000 HD
ENDBRANCH  14  17
BRANCH  12  19
ATOM     19  C5* UNL     1       1.619   4.698  20.823  0.00  0.00    +0.000 C 
BRANCH  19  20
ATOM     20  O5* UNL     1       2.195   6.004  20.760  0.00  0.00    +0.000 OA
ATOM     21  H5* UNL     1       2.253   6.266  19.824  0.00  0.00    +0.000 HD
ENDBRANCH  19  20
ENDBRANCH  12  19
ENDBRANCH   4  10
BRANCH   1  23
ATOM     22  C   UNL     1       7.741   8.178  17.711  0.00  0.00    +0.000 C 
ATOM     23  C   UNL     1       7.475   6.919  17.919  0.00  0.00    +0.000 C 
ENDBRANCH   1  23
BRANCH   1  24
ATOM     24  O   UNL     1       8.393   4.827  18.601  0.00  0.00    +0.000 OA
ATOM     25  H   UNL     1       9.137   5.327  18.238  0.00  0.00    +0.000 HD
ENDBRANCH   1  24
TORSDOF 7
ENDMDL
MODEL 3
REMARK VINA RESULT:      -7.2      2.460      5.819
REMARK  Name = 
REMARK  7 active torsions:
REMARK  status: ('A' for Active; 'I' for Inactive)
REMARK    1  A    between atoms: C_2  and  C_3
REMARK    2  A    between atoms: C_3  and  O_4
REMARK    3  A    between atoms: N_7  and  C1*_8
REMARK    4  A    between atoms: C4*_10  and  C5*_11
REMARK    5  A    between atoms: C5*_11  and  O5*_12
REMARK    6  A    between atoms: C3*_13  and  O3*_14
REMARK    7  A    between atoms: C2*_15  and  O2*_16
REMARK                            x       y       z     vdW  Elec       q    Type
REMARK                         _______ _______ _______ _____ _____    ______ ____
ROOT
ATOM      1  C   UNL     1       1.903   4.329  19.960  0.00  0.00    +0.000 C 
ATOM      2  C   UNL     1       3.067   5.161  20.316  0.00  0.00    +0.000 C 
ATOM      3  C   UNL     1       4.098   5.291  19.491  0.00  0.00    +0.000 C 
ATOM      4  N   UNL     1       4.161   4.635  18.289  0.00  0.00    +0.000 N 
ATOM      5  C   UNL     1       3.143   3.842  17.773  0.00  0.00    +0.000 C 
ATOM      6  O   UNL     1       3.274   3.278  16.668  0.00  0.00    +0.000 OA
ATOM      7  C   UNL     1       1.874   3.621  18.585  0.00  0.00    +0.000 C 
ATOM      8  F   UNL     1       0.773   4.033  17.862  0.00  0.00    +0.000 F 
ATOM      9  F   UNL     1       1.672   2.269  18.739  0.00  0.00    +0.000 F 
ENDROOT
BRANCH   4  10
ATOM     10  C1* UNL     1       5.366   4.745  17.476  0.00  0.00    +0.000 C 
ATOM     11  O4* UNL     1       6.494   4.312  18.253  0.00  0.00    +0.000 OA
ATOM     12  C4* UNL     1       7.576   5.254  18.087  0.00  0.00    +0.000 C 
ATOM     13  C3* UNL     1       7.154   6.198  16.957  0.00  0.00    +0.000 C 
ATOM     14  C2* UNL     1       5.634   6.178  16.990  0.00  0.00    +0.000 C 
BRANCH  13  15
ATOM     15  O3* UNL     1       7.585   5.681  15.686  0.00  0.00    +0.000 OA
ATOM     16  H3* UNL     1       8.469   5.284  15.785  0.00  0.00    +0.000 HD
ENDBRANCH  13  15
BRANCH  14  17
ATOM     17  O2* UNL     1       5.062   6.457  15.716  0.00  0.00    +0.000 OA
ATOM     18  H2* UNL     1       4.093   6.515  15.835  0.00  0.00    +0.000 HD
ENDBRANCH  14  17
BRANCH  12  19
ATOM     19  C5* UNL     1       7.855   5.958  19.426  0.00  0.00    +0.000 C 
BRANCH  19  20
ATOM     20  O5* UNL     1       8.648   5.136  20.285  0.00  0.00    +0.000 OA
ATOM     21  H5* UNL     1       8.665   4.235  19.913  0.00  0.00    +0.000 HD
ENDBRANCH  19  20
ENDBRANCH  12  19
ENDBRANCH   4  10
BRANCH   1  23
ATOM     22  C   UNL     1       1.583   2.358  21.957  0.00  0.00    +0.000 C 
ATOM     23  C   UNL     1       1.731   3.269  21.035  0.00  0.00    +0.000 C 
ENDBRANCH   1  23
BRANCH   1  24
ATOM     24  O   UNL     1       0.775   5.227  20.068  0.00  0.00    +0.000 OA
ATOM     25  H   UNL     1       0.053   4.760  20.512  0.00  0.00    +0.000 HD
ENDBRANCH   1  24
TORSDOF 7
ENDMDL
MODEL 4
REMARK VINA RESULT:      -7.2      1.742      3.275
REMARK  Name = 
REMARK  7 active torsions:
REMARK  status: ('A' for Active; 'I' for Inactive)
REMARK    1  A    between atoms: C_2  and  C_3
REMARK    2  A    between atoms: C_3  and  O_4
REMARK    3  A    between atoms: N_7  and  C1*_8
REMARK    4  A    between atoms: C4*_10  and  C5*_11
REMARK    5  A    between atoms: C5*_11  and  O5*_12
REMARK    6  A    between atoms: C3*_13  and  O3*_14
REMARK    7  A    between atoms: C2*_15  and  O2*_16
REMARK                            x       y       z     vdW  Elec       q    Type
REMARK                         _______ _______ _______ _____ _____    ______ ____
ROOT
ATOM      1  C   UNL     1       5.814   5.916  16.503  0.00  0.00    +0.000 C 
ATOM      2  C   UNL     1       4.367   5.637  16.547  0.00  0.00    +0.000 C 
ATOM      3  C   UNL     1       3.795   5.140  17.635  0.00  0.00    +0.000 C 
ATOM      4  N   UNL     1       4.513   4.820  18.759  0.00  0.00    +0.000 N 
ATOM      5  C   UNL     1       5.875   5.051  18.912  0.00  0.00    +0.000 C 
ATOM      6  O   UNL     1       6.459   4.734  19.968  0.00  0.00    +0.000 OA
ATOM      7  C   UNL     1       6.672   5.652  17.763  0.00  0.00    +0.000 C 
ATOM      8  F   UNL     1       7.287   6.818  18.172  0.00  0.00    +0.000 F 
ATOM      9  F   UNL     1       7.726   4.819  17.466  0.00  0.00    +0.000 F 
ENDROOT
BRANCH   4  10
ATOM     10  C1* UNL     1       3.837   4.187  19.884  0.00  0.00    +0.000 C 
ATOM     11  O4* UNL     1       3.719   2.778  19.623  0.00  0.00    +0.000 OA
ATOM     12  C4* UNL     1       2.380   2.346  19.946  0.00  0.00    +0.000 C 
ATOM     13  C3* UNL     1       1.709   3.521  20.663  0.00  0.00    +0.000 C 
ATOM     14  C2* UNL     1       2.431   4.751  20.136  0.00  0.00    +0.000 C 
BRANCH  13  15
ATOM     15  O3* UNL     1       1.936   3.437  22.081  0.00  0.00    +0.000 OA
ATOM     16  H3* UNL     1       2.845   3.726  22.277  0.00  0.00    +0.000 HD
ENDBRANCH  13  15
BRANCH  14  17
ATOM     17  O2* UNL     1       2.415   5.828  21.069  0.00  0.00    +0.000 OA
ATOM     18  H2* UNL     1       1.530   6.240  21.028  0.00  0.00    +0.000 HD
ENDBRANCH  14  17
BRANCH  12  19
ATOM     19  C5* UNL     1       1.661   1.897  18.663  0.00  0.00    +0.000 C 
BRANCH  19  20
ATOM     20  O5* UNL     1       2.584   1.738  17.582  0.00  0.00    +0.000 OA
ATOM     21  H5* UNL     1       2.712   0.784  17.430  0.00  0.00    +0.000 HD
ENDBRANCH  19  20
ENDBRANCH  12  19
ENDBRANCH   4  10
BRANCH   1  23
ATOM     22  C   UNL     1       6.931   4.446  14.366  0.00  0.00    +0.000 C 
ATOM     23  C   UNL     1       6.416   5.125  15.353  0.00  0.00    +0.000 C 
ENDBRANCH   1  23
BRANCH   1  24
ATOM     24  O   UNL     1       5.898   7.314  16.143  0.00  0.00    +0.000 OA
ATOM     25  H   UNL     1       6.643   7.709  16.617  0.00  0.00    +0.000 HD
ENDBRANCH   1  24
TORSDOF 7
ENDMDL
MODEL 5
REMARK VINA RESULT:      -6.8      1.985      2.279
REMARK  Name = 
REMARK  7 active torsions:
REMARK  status: ('A' for Active; 'I' for Inactive)
REMARK    1  A    between atoms: C_2  and  C_3
REMARK    2  A    between atoms: C_3  and  O_4
REMARK    3  A    between atoms: N_7  and  C1*_8
REMARK    4  A    between atoms: C4*_10  and  C5*_11
REMARK    5  A    between atoms: C5*_11  and  O5*_12
REMARK    6  A    between atoms: C3*_13  and  O3*_14
REMARK    7  A    between atoms: C2*_15  and  O2*_16
REMARK                            x       y       z     vdW  Elec       q    Type
REMARK                         _______ _______ _______ _____ _____    ______ ____
ROOT
ATOM      1  C   UNL     1       6.737   6.251  16.976  0.00  0.00    +0.000 C 
ATOM      2  C   UNL     1       6.924   5.029  17.778  0.00  0.00    +0.000 C 
ATOM      3  C   UNL     1       5.892   4.402  18.330  0.00  0.00    +0.000 C 
ATOM      4  N   UNL     1       4.608   4.872  18.223  0.00  0.00    +0.000 N 
ATOM      5  C   UNL     1       4.239   5.984  17.475  0.00  0.00    +0.000 C 
ATOM      6  O   UNL     1       3.047   6.349  17.424  0.00  0.00    +0.000 OA
ATOM      7  C   UNL     1       5.306   6.793  16.749  0.00  0.00    +0.000 C 
ATOM      8  F   UNL     1       5.024   6.842  15.399  0.00  0.00    +0.000 F 
ATOM      9  F   UNL     1       5.216   8.107  17.146  0.00  0.00    +0.000 F 
ENDROOT
BRANCH   4  10
ATOM     10  C1* UNL     1       3.535   4.190  18.935  0.00  0.00    +0.000 C 
ATOM     11  O4* UNL     1       4.050   3.681  20.176  0.00  0.00    +0.000 OA
ATOM     12  C4* UNL     1       3.597   2.322  20.357  0.00  0.00    +0.000 C 
ATOM     13  C3* UNL     1       2.553   2.068  19.266  0.00  0.00    +0.000 C 
ATOM     14  C2* UNL     1       2.937   3.018  18.143  0.00  0.00    +0.000 C 
BRANCH  13  15
ATOM     15  O3* UNL     1       1.242   2.428  19.733  0.00  0.00    +0.000 OA
ATOM     16  H3* UNL     1       1.156   2.176  20.669  0.00  0.00    +0.000 HD
ENDBRANCH  13  15
BRANCH  14  17
ATOM     17  O2* UNL     1       1.818   3.392  17.343  0.00  0.00    +0.000 OA
ATOM     18  H2* UNL     1       2.161   3.692  16.479  0.00  0.00    +0.000 HD
ENDBRANCH  14  17
BRANCH  12  19
ATOM     19  C5* UNL     1       4.802   1.368  20.313  0.00  0.00    +0.000 C 
BRANCH  19  20
ATOM     20  O5* UNL     1       5.502   1.362  21.559  0.00  0.00    +0.000 OA
ATOM     21  H5* UNL     1       4.928   1.772  22.232  0.00  0.00    +0.000 HD
ENDBRANCH  19  20
ENDBRANCH  12  19
ENDBRANCH   4  10
BRANCH   1  23
ATOM     22  C   UNL     1       8.273   8.314  18.141  0.00  0.00    +0.000 C 
ATOM     23  C   UNL     1       7.564   7.361  17.602  0.00  0.00    +0.000 C 
ENDBRANCH   1  23
BRANCH   1  24
ATOM     24  O   UNL     1       7.345   5.939  15.701  0.00  0.00    +0.000 OA
ATOM     25  H   UNL     1       6.782   6.291  14.998  0.00  0.00    +0.000 HD
ENDBRANCH   1  24
TORSDOF 7
ENDMDL
MODEL 6
REMARK VINA RESULT:      -6.7      2.839      6.121
REMARK  Name = 
REMARK  7 active torsions:
REMARK  status: ('A' for Active; 'I' for Inactive)
REMARK    1  A    between atoms: C_2  and  C_3
REMARK    2  A    between atoms: C_3  and  O_4
REMARK    3  A    between atoms: N_7  and  C1*_8
REMARK    4  A    between atoms: C4*_10  and  C5*_11
REMARK    5  A    between atoms: C5*_11  and  O5*_12
REMARK    6  A    between atoms: C3*_13  and  O3*_14
REMARK    7  A    between atoms: C2*_15  and  O2*_16
REMARK                            x       y       z     vdW  Elec       q    Type
REMARK                         _______ _______ _______ _____ _____    ______ ____
ROOT
ATOM      1  C   UNL     1       2.694   3.085  20.207  0.00  0.00    +0.000 C 
ATOM      2  C   UNL     1       3.873   2.575  19.485  0.00  0.00    +0.000 C 
ATOM      3  C   UNL     1       4.713   3.398  18.870  0.00  0.00    +0.000 C 
ATOM      4  N   UNL     1       4.514   4.755  18.834  0.00  0.00    +0.000 N 
ATOM      5  C   UNL     1       3.481   5.414  19.490  0.00  0.00    +0.000 C 
ATOM      6  O   UNL     1       3.367   6.654  19.412  0.00  0.00    +0.000 OA
ATOM      7  C   UNL     1       2.451   4.611  20.273  0.00  0.00    +0.000 C 
ATOM      8  F   UNL     1       2.423   5.032  21.587  0.00  0.00    +0.000 F 
ATOM      9  F   UNL     1       1.195   4.923  19.807  0.00  0.00    +0.000 F 
ENDROOT
BRANCH   4  10
ATOM     10  C1* UNL     1       5.421   5.591  18.059  0.00  0.00    +0.000 C 
ATOM     11  O4* UNL     1       4.820   5.873  16.784  0.00  0.00    +0.000 OA
ATOM     12  C4* UNL     1       5.802   5.685  15.743  0.00  0.00    +0.000 C 
ATOM     13  C3* UNL     1       7.148   5.497  16.449  0.00  0.00    +0.000 C 
ATOM     14  C2* UNL     1       6.786   4.930  17.813  0.00  0.00    +0.000 C 
BRANCH  13  15
ATOM     15  O3* UNL     1       7.792   6.768  16.646  0.00  0.00    +0.000 OA
ATOM     16  H3* UNL     1       8.262   7.017  15.830  0.00  0.00    +0.000 HD
ENDBRANCH  13  15
BRANCH  14  17
ATOM     17  O2* UNL     1       7.755   5.253  18.807  0.00  0.00    +0.000 OA
ATOM     18  H2* UNL     1       8.367   4.494  18.879  0.00  0.00    +0.000 HD
ENDBRANCH  14  17
BRANCH  12  19
ATOM     19  C5* UNL     1       5.387   4.503  14.851  0.00  0.00    +0.000 C 
BRANCH  19  20
ATOM     20  O5* UNL     1       6.485   3.615  14.626  0.00  0.00    +0.000 OA
ATOM     21  H5* UNL     1       7.291   4.151  14.521  0.00  0.00    +0.000 HD
ENDBRANCH  19  20
ENDBRANCH  12  19
ENDBRANCH   4  10
BRANCH   1  23
ATOM     22  C   UNL     1       0.393   1.885  19.093  0.00  0.00    +0.000 C 
ATOM     23  C   UNL     1       1.455   2.440  19.608  0.00  0.00    +0.000 C 
ENDBRANCH   1  23
BRANCH   1  24
ATOM     24  O   UNL     1       2.839   2.558  21.546  0.00  0.00    +0.000 OA
ATOM     25  H   UNL     1       3.570   3.020  21.979  0.00  0.00    +0.000 HD
ENDBRANCH   1  24
TORSDOF 7
ENDMDL
MODEL 7
REMARK VINA RESULT:      -6.7      2.648      6.189
REMARK  Name = 
REMARK  7 active torsions:
REMARK  status: ('A' for Active; 'I' for Inactive)
REMARK    1  A    between atoms: C_2  and  C_3
REMARK    2  A    between atoms: C_3  and  O_4
REMARK    3  A    between atoms: N_7  and  C1*_8
REMARK    4  A    between atoms: C4*_10  and  C5*_11
REMARK    5  A    between atoms: C5*_11  and  O5*_12
REMARK    6  A    between atoms: C3*_13  and  O3*_14
REMARK    7  A    between atoms: C2*_15  and  O2*_16
REMARK                            x       y       z     vdW  Elec       q    Type
REMARK                         _______ _______ _______ _____ _____    ______ ____
ROOT
ATOM      1  C   UNL     1       2.742   2.433  18.959  0.00  0.00    +0.000 C 
ATOM      2  C   UNL     1       2.610   2.731  17.521  0.00  0.00    +0.000 C 
ATOM      3  C   UNL     1       3.526   3.443  16.878  0.00  0.00    +0.000 C 
ATOM      4  N   UNL     1       4.619   3.975  17.514  0.00  0.00    +0.000 N 
ATOM      5  C   UNL     1       4.926   3.765  18.853  0.00  0.00    +0.000 C 
ATOM      6  O   UNL     1       5.942   4.282  19.361  0.00  0.00    +0.000 OA
ATOM      7  C   UNL     1       3.990   2.937  19.722  0.00  0.00    +0.000 C 
ATOM      8  F   UNL     1       4.674   1.871  20.271  0.00  0.00    +0.000 F 
ATOM      9  F   UNL     1       3.620   3.682  20.817  0.00  0.00    +0.000 F 
ENDROOT
BRANCH   4  10
ATOM     10  C1* UNL     1       5.535   4.829  16.769  0.00  0.00    +0.000 C 
ATOM     11  O4* UNL     1       4.899   5.239  15.548  0.00  0.00    +0.000 OA
ATOM     12  C4* UNL     1       5.831   5.092  14.454  0.00  0.00    +0.000 C 
ATOM     13  C3* UNL     1       7.192   4.788  15.087  0.00  0.00    +0.000 C 
ATOM     14  C2* UNL     1       6.856   4.130  16.416  0.00  0.00    +0.000 C 
BRANCH  13  15
ATOM     15  O3* UNL     1       7.903   6.009  15.355  0.00  0.00    +0.000 OA
ATOM     16  H3* UNL     1       8.547   5.853  16.069  0.00  0.00    +0.000 HD
ENDBRANCH  13  15
BRANCH  14  17
ATOM     17  O2* UNL     1       7.877   4.328  17.391  0.00  0.00    +0.000 OA
ATOM     18  H2* UNL     1       8.737   4.293  16.927  0.00  0.00    +0.000 HD
ENDBRANCH  14  17
BRANCH  12  19
ATOM     19  C5* UNL     1       5.326   4.005  13.491  0.00  0.00    +0.000 C 
BRANCH  19  20
ATOM     20  O5* UNL     1       6.412   3.254  12.944  0.00  0.00    +0.000 OA
ATOM     21  H5* UNL     1       7.242   3.614  13.306  0.00  0.00    +0.000 HD
ENDBRANCH  19  20
ENDBRANCH  12  19
ENDBRANCH   4  10
BRANCH   1  23
ATOM     22  C   UNL     1       0.454   3.432  20.279  0.00  0.00    +0.000 C 
ATOM     23  C   UNL     1       1.511   2.970  19.669  0.00  0.00    +0.000 C 
ENDBRANCH   1  23
BRANCH   1  24
ATOM     24  O   UNL     1       2.677   0.990  19.033  0.00  0.00    +0.000 OA
ATOM     25  H   UNL     1       3.147   0.623  18.271  0.00  0.00    +0.000 HD
ENDBRANCH   1  24
TORSDOF 7
ENDMDL
MODEL 8
REMARK VINA RESULT:      -6.7      2.393      5.775
REMARK  Name = 
REMARK  7 active torsions:
REMARK  status: ('A' for Active; 'I' for Inactive)
REMARK    1  A    between atoms: C_2  and  C_3
REMARK    2  A    between atoms: C_3  and  O_4
REMARK    3  A    between atoms: N_7  and  C1*_8
REMARK    4  A    between atoms: C4*_10  and  C5*_11
REMARK    5  A    between atoms: C5*_11  and  O5*_12
REMARK    6  A    between atoms: C3*_13  and  O3*_14
REMARK    7  A    between atoms: C2*_15  and  O2*_16
REMARK                            x       y       z     vdW  Elec       q    Type
REMARK                         _______ _______ _______ _____ _____    ______ ____
ROOT
ATOM      1  C   UNL     1       1.841   3.488  18.921  0.00  0.00    +0.000 C 
ATOM      2  C   UNL     1       2.289   4.892  18.892  0.00  0.00    +0.000 C 
ATOM      3  C   UNL     1       3.422   5.241  18.297  0.00  0.00    +0.000 C 
ATOM      4  N   UNL     1       4.257   4.321  17.715  0.00  0.00    +0.000 N 
ATOM      5  C   UNL     1       3.979   2.964  17.612  0.00  0.00    +0.000 C 
ATOM      6  O   UNL     1       4.789   2.188  17.066  0.00  0.00    +0.000 OA
ATOM      7  C   UNL     1       2.696   2.408  18.216  0.00  0.00    +0.000 C 
ATOM      8  F   UNL     1       1.952   1.774  17.242  0.00  0.00    +0.000 F 
ATOM      9  F   UNL     1       3.016   1.396  19.090  0.00  0.00    +0.000 F 
ENDROOT
BRANCH   4  10
ATOM     10  C1* UNL     1       5.533   4.761  17.165  0.00  0.00    +0.000 C 
ATOM     11  O4* UNL     1       6.587   4.351  18.051  0.00  0.00    +0.000 OA
ATOM     12  C4* UNL     1       7.500   5.453  18.245  0.00  0.00    +0.000 C 
ATOM     13  C3* UNL     1       7.098   6.528  17.232  0.00  0.00    +0.000 C 
ATOM     14  C2* UNL     1       5.618   6.284  16.984  0.00  0.00    +0.000 C 
BRANCH  13  15
ATOM     15  O3* UNL     1       7.801   6.337  15.992  0.00  0.00    +0.000 OA
ATOM     16  H3* UNL     1       8.060   7.205  15.634  0.00  0.00    +0.000 HD
ENDBRANCH  13  15
BRANCH  14  17
ATOM     17  O2* UNL     1       5.206   6.721  15.692  0.00  0.00    +0.000 OA
ATOM     18  H2* UNL     1       5.935   7.254  15.316  0.00  0.00    +0.000 HD
ENDBRANCH  14  17
BRANCH  12  19
ATOM     19  C5* UNL     1       7.445   5.914  19.711  0.00  0.00    +0.000 C 
BRANCH  19  20
ATOM     20  O5* UNL     1       8.350   5.162  20.523  0.00  0.00    +0.000 OA
ATOM     21  H5* UNL     1       8.177   5.386  21.456  0.00  0.00    +0.000 HD
ENDBRANCH  19  20
ENDBRANCH  12  19
ENDBRANCH   4  10
BRANCH   1  23
ATOM     22  C   UNL     1       1.522   2.719  21.619  0.00  0.00    +0.000 C 
ATOM     23  C   UNL     1       1.670   3.074  20.373  0.00  0.00    +0.000 C 
ENDBRANCH   1  23
BRANCH   1  24
ATOM     24  O   UNL     1       0.520   3.522  18.333  0.00  0.00    +0.000 OA
ATOM     25  H   UNL     1       0.146   4.403  18.470  0.00  0.00    +0.000 HD
ENDBRANCH   1  24
TORSDOF 7
ENDMDL
MODEL 9
REMARK VINA RESULT:      -6.5      1.625      1.857
REMARK  Name = 
REMARK  7 active torsions:
REMARK  status: ('A' for Active; 'I' for Inactive)
REMARK    1  A    between atoms: C_2  and  C_3
REMARK    2  A    between atoms: C_3  and  O_4
REMARK    3  A    between atoms: N_7  and  C1*_8
REMARK    4  A    between atoms: C4*_10  and  C5*_11
REMARK    5  A    between atoms: C5*_11  and  O5*_12
REMARK    6  A    between atoms: C3*_13  and  O3*_14
REMARK    7  A    between atoms: C2*_15  and  O2*_16
REMARK                            x       y       z     vdW  Elec       q    Type
REMARK                         _______ _______ _______ _____ _____    ______ ____
ROOT
ATOM      1  C   UNL     1       6.132   5.603  17.016  0.00  0.00    +0.000 C 
ATOM      2  C   UNL     1       5.868   4.216  17.440  0.00  0.00    +0.000 C 
ATOM      3  C   UNL     1       4.650   3.823  17.790  0.00  0.00    +0.000 C 
ATOM      4  N   UNL     1       3.583   4.684  17.817  0.00  0.00    +0.000 N 
ATOM      5  C   UNL     1       3.636   6.013  17.414  0.00  0.00    +0.000 C 
ATOM      6  O   UNL     1       2.619   6.734  17.467  0.00  0.00    +0.000 OA
ATOM      7  C   UNL     1       4.958   6.608  16.950  0.00  0.00    +0.000 C 
ATOM      8  F   UNL     1       4.829   7.104  15.668  0.00  0.00    +0.000 F 
ATOM      9  F   UNL     1       5.233   7.726  17.703  0.00  0.00    +0.000 F 
ENDROOT
BRANCH   4  10
ATOM     10  C1* UNL     1       2.294   4.210  18.305  0.00  0.00    +0.000 C 
ATOM     11  O4* UNL     1       1.961   4.921  19.508  0.00  0.00    +0.000 OA
ATOM     12  C4* UNL     1       1.484   3.983  20.498  0.00  0.00    +0.000 C 
ATOM     13  C3* UNL     1       1.300   2.648  19.771  0.00  0.00    +0.000 C 
ATOM     14  C2* UNL     1       2.284   2.705  18.613  0.00  0.00    +0.000 C 
BRANCH  13  15
ATOM     15  O3* UNL     1      -0.029   2.551  19.229  0.00  0.00    +0.000 OA
ATOM     16  H3* UNL     1       0.024   2.246  18.306  0.00  0.00    +0.000 HD
ENDBRANCH  13  15
BRANCH  14  17
ATOM     17  O2* UNL     1       1.867   1.907  17.509  0.00  0.00    +0.000 OA
ATOM     18  H2* UNL     1       0.903   2.030  17.404  0.00  0.00    +0.000 HD
ENDBRANCH  14  17
BRANCH  12  19
ATOM     19  C5* UNL     1       2.471   3.930  21.675  0.00  0.00    +0.000 C 
BRANCH  19  20
ATOM     20  O5* UNL     1       2.695   2.585  22.102  0.00  0.00    +0.000 OA
ATOM     21  H5* UNL     1       2.934   2.602  23.046  0.00  0.00    +0.000 HD
ENDBRANCH  19  20
ENDBRANCH  12  19
ENDBRANCH   4  10
BRANCH   1  23
ATOM     22  C   UNL     1       8.107   6.685  18.721  0.00  0.00    +0.000 C 
ATOM     23  C   UNL     1       7.195   6.185  17.934  0.00  0.00    +0.000 C 
ENDBRANCH   1  23
BRANCH   1  24
ATOM     24  O   UNL     1       6.732   5.469  15.707  0.00  0.00    +0.000 OA
ATOM     25  H   UNL     1       7.523   4.918  15.787  0.00  0.00    +0.000 HD
ENDBRANCH   1  24
TORSDOF 7
ENDMDL
