MODEL 1
REMARK VINA RESULT:      -8.1      0.000      0.000
REMARK  Name = 
REMARK  8 active torsions:
REMARK  status: ('A' for Active; 'I' for Inactive)
REMARK    1  A    between atoms: C_1  and  C_2
REMARK    2  A    between atoms: N_4  and  C_5
REMARK    3  A    between atoms: C_5  and  C_6
REMARK    4  A    between atoms: C_11  and  C_12
REMARK    5  A    between atoms: C_15  and  C_16
REMARK    6  A    between atoms: C_16  and  C_17
REMARK    7  A    between atoms: C_16  and  C_18
REMARK    8  A    between atoms: C_16  and  C_19
REMARK                            x       y       z     vdW  Elec       q    Type
REMARK                         _______ _______ _______ _____ _____    ______ ____
ROOT
ATOM      1  C   UNL     1       6.167   4.954  16.351  0.00  0.00    +0.000 A 
ATOM      2  C   UNL     1       7.010   6.077  16.436  0.00  0.00    +0.000 A 
ATOM      3  C   UNL     1       6.602   7.203  17.129  0.00  0.00    +0.000 A 
ATOM      4  C   UNL     1       5.343   7.215  17.716  0.00  0.00    +0.000 A 
ATOM      5  C   UNL     1       4.433   6.129  17.565  0.00  0.00    +0.000 A 
ATOM      6  C   UNL     1       3.097   6.087  18.041  0.00  0.00    +0.000 A 
ATOM      7  N   UNL     1       2.317   4.990  17.916  0.00  0.00    +0.000 NA
ATOM      8  C   UNL     1       2.855   3.946  17.286  0.00  0.00    +0.000 A 
ATOM      9  N   UNL     1       4.085   3.896  16.766  0.00  0.00    +0.000 NA
ATOM     10  C   UNL     1       4.869   4.973  16.895  0.00  0.00    +0.000 A 
ENDROOT
BRANCH   6  11
ATOM     11  C   UNL     1       2.398   7.227  18.685  0.00  0.00    +0.000 A 
ATOM     12  C   UNL     1       2.104   7.241  20.055  0.00  0.00    +0.000 A 
ATOM     13  C   UNL     1       1.389   8.280  20.651  0.00  0.00    +0.000 A 
ATOM     14  C   UNL     1       0.995   9.410  19.918  0.00  0.00    +0.000 A 
ATOM     15  C   UNL     1       1.358   9.442  18.562  0.00  0.00    +0.000 A 
ATOM     16  C   UNL     1       2.035   8.374  17.957  0.00  0.00    +0.000 A 
BRANCH  14  17
ATOM     17  C   UNL     1       0.251  10.582  20.574  0.00  0.00    +0.000 C 
ATOM     18  C   UNL     1      -1.079  10.933  19.865  0.00  0.00    +0.000 C 
ATOM     19  C   UNL     1      -0.085  10.221  22.035  0.00  0.00    +0.000 C 
ATOM     20  C   UNL     1       1.124  11.856  20.555  0.00  0.00    +0.000 C 
ENDBRANCH  14  17
ENDBRANCH   6  11
BRANCH   1  21
ATOM     21  C   UNL     1       6.693   3.721  15.650  0.00  0.00    +0.000 C 
BRANCH  21  25
ATOM     22  C   UNL     1       5.400   3.301  12.082  0.00  0.00    +0.000 C 
ATOM     23  C   UNL     1       6.231   3.811  13.234  0.00  0.00    +0.000 C 
ATOM     24  N   UNL     1       7.232   4.608  13.023  0.00  0.00    +0.000 NA
ATOM     25  N   UNL     1       5.890   3.408  14.489  0.00  0.00    +0.000 N 
ATOM     26  H   UNL     1       7.335   4.799  12.023  0.00  0.00    +0.000 HD
ATOM     27  H   UNL     1       5.028   2.902  14.643  0.00  0.00    +0.000 HD
ENDBRANCH  21  25
ENDBRANCH   1  21
TORSDOF 4
ENDMDL
MODEL 2
REMARK VINA RESULT:      -8.1      0.277      1.301
REMARK  Name = 
REMARK  8 active torsions:
REMARK  status: ('A' for Active; 'I' for Inactive)
REMARK    1  A    between atoms: C_1  and  C_2
REMARK    2  A    between atoms: N_4  and  C_5
REMARK    3  A    between atoms: C_5  and  C_6
REMARK    4  A    between atoms: C_11  and  C_12
REMARK    5  A    between atoms: C_15  and  C_16
REMARK    6  A    between atoms: C_16  and  C_17
REMARK    7  A    between atoms: C_16  and  C_18
REMARK    8  A    between atoms: C_16  and  C_19
REMARK                            x       y       z     vdW  Elec       q    Type
REMARK                         _______ _______ _______ _____ _____    ______ ____
ROOT
ATOM      1  C   UNL     1       6.392   5.120  16.559  0.00  0.00    +0.000 A 
ATOM      2  C   UNL     1       7.192   6.271  16.687  0.00  0.00    +0.000 A 
ATOM      3  C   UNL     1       6.708   7.383  17.351  0.00  0.00    +0.000 A 
ATOM      4  C   UNL     1       5.419   7.354  17.867  0.00  0.00    +0.000 A 
ATOM      5  C   UNL     1       4.556   6.239  17.670  0.00  0.00    +0.000 A 
ATOM      6  C   UNL     1       3.197   6.152  18.071  0.00  0.00    +0.000 A 
ATOM      7  N   UNL     1       2.462   5.029  17.906  0.00  0.00    +0.000 NA
ATOM      8  C   UNL     1       3.069   4.003  17.312  0.00  0.00    +0.000 A 
ATOM      9  N   UNL     1       4.327   3.993  16.861  0.00  0.00    +0.000 NA
ATOM     10  C   UNL     1       5.067   5.096  17.030  0.00  0.00    +0.000 A 
ENDROOT
BRANCH   6  11
ATOM     11  C   UNL     1       2.425   7.269  18.670  0.00  0.00    +0.000 A 
ATOM     12  C   UNL     1       1.975   8.355  17.907  0.00  0.00    +0.000 A 
ATOM     13  C   UNL     1       1.306   9.439  18.478  0.00  0.00    +0.000 A 
ATOM     14  C   UNL     1       0.979   9.458  19.843  0.00  0.00    +0.000 A 
ATOM     15  C   UNL     1       1.354   8.335  20.599  0.00  0.00    +0.000 A 
ATOM     16  C   UNL     1       2.067   7.271  20.029  0.00  0.00    +0.000 A 
BRANCH  14  17
ATOM     17  C   UNL     1       0.200  10.622  20.472  0.00  0.00    +0.000 C 
ATOM     18  C   UNL     1      -0.307  10.314  21.901  0.00  0.00    +0.000 C 
ATOM     19  C   UNL     1       1.115  11.860  20.563  0.00  0.00    +0.000 C 
ATOM     20  C   UNL     1      -1.038  10.969  19.617  0.00  0.00    +0.000 C 
ENDBRANCH  14  17
ENDBRANCH   6  11
BRANCH   1  21
ATOM     21  C   UNL     1       6.998   3.904  15.894  0.00  0.00    +0.000 C 
BRANCH  21  25
ATOM     22  C   UNL     1       5.751   3.482  12.310  0.00  0.00    +0.000 C 
ATOM     23  C   UNL     1       6.503   4.052  13.487  0.00  0.00    +0.000 C 
ATOM     24  N   UNL     1       7.363   5.008  13.320  0.00  0.00    +0.000 NA
ATOM     25  N   UNL     1       6.243   3.531  14.719  0.00  0.00    +0.000 N 
ATOM     26  H   UNL     1       7.424   5.268  12.332  0.00  0.00    +0.000 HD
ATOM     27  H   UNL     1       5.473   2.887  14.845  0.00  0.00    +0.000 HD
ENDBRANCH  21  25
ENDBRANCH   1  21
TORSDOF 4
ENDMDL
MODEL 3
REMARK VINA RESULT:      -7.8      2.173      3.628
REMARK  Name = 
REMARK  8 active torsions:
REMARK  status: ('A' for Active; 'I' for Inactive)
REMARK    1  A    between atoms: C_1  and  C_2
REMARK    2  A    between atoms: N_4  and  C_5
REMARK    3  A    between atoms: C_5  and  C_6
REMARK    4  A    between atoms: C_11  and  C_12
REMARK    5  A    between atoms: C_15  and  C_16
REMARK    6  A    between atoms: C_16  and  C_17
REMARK    7  A    between atoms: C_16  and  C_18
REMARK    8  A    between atoms: C_16  and  C_19
REMARK                            x       y       z     vdW  Elec       q    Type
REMARK                         _______ _______ _______ _____ _____    ______ ____
ROOT
ATOM      1  C   UNL     1       3.375   4.235  19.296  0.00  0.00    +0.000 A 
ATOM      2  C   UNL     1       2.714   3.727  20.430  0.00  0.00    +0.000 A 
ATOM      3  C   UNL     1       1.801   4.510  21.111  0.00  0.00    +0.000 A 
ATOM      4  C   UNL     1       1.565   5.808  20.674  0.00  0.00    +0.000 A 
ATOM      5  C   UNL     1       2.289   6.378  19.588  0.00  0.00    +0.000 A 
ATOM      6  C   UNL     1       2.191   7.718  19.131  0.00  0.00    +0.000 A 
ATOM      7  N   UNL     1       2.865   8.166  18.047  0.00  0.00    +0.000 NA
ATOM      8  C   UNL     1       3.662   7.288  17.439  0.00  0.00    +0.000 A 
ATOM      9  N   UNL     1       3.857   6.020  17.810  0.00  0.00    +0.000 NA
ATOM     10  C   UNL     1       3.186   5.563  18.875  0.00  0.00    +0.000 A 
ENDROOT
BRANCH   6  11
ATOM     11  C   UNL     1       1.387   8.775  19.793  0.00  0.00    +0.000 A 
ATOM     12  C   UNL     1       1.335   8.906  21.187  0.00  0.00    +0.000 A 
ATOM     13  C   UNL     1       0.529   9.857  21.815  0.00  0.00    +0.000 A 
ATOM     14  C   UNL     1      -0.214  10.788  21.073  0.00  0.00    +0.000 A 
ATOM     15  C   UNL     1      -0.102  10.717  19.675  0.00  0.00    +0.000 A 
ATOM     16  C   UNL     1       0.672   9.730  19.049  0.00  0.00    +0.000 A 
BRANCH  14  17
ATOM     17  C   UNL     1      -1.066  11.870  21.754  0.00  0.00    +0.000 C 
ATOM     18  C   UNL     1      -2.280  12.313  20.903  0.00  0.00    +0.000 C 
ATOM     19  C   UNL     1      -1.610  11.327  23.090  0.00  0.00    +0.000 C 
ATOM     20  C   UNL     1      -0.219  13.132  22.026  0.00  0.00    +0.000 C 
ENDBRANCH  14  17
ENDBRANCH   6  11
BRANCH   1  21
ATOM     21  C   UNL     1       4.304   3.310  18.541  0.00  0.00    +0.000 C 
BRANCH  21  25
ATOM     22  C   UNL     1       7.787   4.706  17.831  0.00  0.00    +0.000 C 
ATOM     23  C   UNL     1       6.419   4.120  17.577  0.00  0.00    +0.000 C 
ATOM     24  N   UNL     1       5.979   3.975  16.366  0.00  0.00    +0.000 NA
ATOM     25  N   UNL     1       5.676   3.752  18.657  0.00  0.00    +0.000 N 
ATOM     26  H   UNL     1       6.673   4.305  15.690  0.00  0.00    +0.000 HD
ATOM     27  H   UNL     1       6.090   3.745  19.580  0.00  0.00    +0.000 HD
ENDBRANCH  21  25
ENDBRANCH   1  21
TORSDOF 4
ENDMDL
MODEL 4
REMARK VINA RESULT:      -7.8      2.191      3.853
REMARK  Name = 
REMARK  8 active torsions:
REMARK  status: ('A' for Active; 'I' for Inactive)
REMARK    1  A    between atoms: C_1  and  C_2
REMARK    2  A    between atoms: N_4  and  C_5
REMARK    3  A    between atoms: C_5  and  C_6
REMARK    4  A    between atoms: C_11  and  C_12
REMARK    5  A    between atoms: C_15  and  C_16
REMARK    6  A    between atoms: C_16  and  C_17
REMARK    7  A    between atoms: C_16  and  C_18
REMARK    8  A    between atoms: C_16  and  C_19
REMARK                            x       y       z     vdW  Elec       q    Type
REMARK                         _______ _______ _______ _____ _____    ______ ____
ROOT
ATOM      1  C   UNL     1       3.422   4.183  19.355  0.00  0.00    +0.000 A 
ATOM      2  C   UNL     1       2.744   3.677  20.480  0.00  0.00    +0.000 A 
ATOM      3  C   UNL     1       1.812   4.457  21.140  0.00  0.00    +0.000 A 
ATOM      4  C   UNL     1       1.574   5.750  20.691  0.00  0.00    +0.000 A 
ATOM      5  C   UNL     1       2.314   6.319  19.615  0.00  0.00    +0.000 A 
ATOM      6  C   UNL     1       2.214   7.656  19.148  0.00  0.00    +0.000 A 
ATOM      7  N   UNL     1       2.904   8.103  18.074  0.00  0.00    +0.000 NA
ATOM      8  C   UNL     1       3.719   7.228  17.485  0.00  0.00    +0.000 A 
ATOM      9  N   UNL     1       3.917   5.963  17.868  0.00  0.00    +0.000 NA
ATOM     10  C   UNL     1       3.230   5.508  18.923  0.00  0.00    +0.000 A 
ENDROOT
BRANCH   6  11
ATOM     11  C   UNL     1       1.390   8.710  19.789  0.00  0.00    +0.000 A 
ATOM     12  C   UNL     1       0.750   9.710  19.043  0.00  0.00    +0.000 A 
ATOM     13  C   UNL     1       0.029  10.741  19.647  0.00  0.00    +0.000 A 
ATOM     14  C   UNL     1      -0.160  10.784  21.037  0.00  0.00    +0.000 A 
ATOM     15  C   UNL     1       0.408   9.739  21.784  0.00  0.00    +0.000 A 
ATOM     16  C   UNL     1       1.171   8.732  21.178  0.00  0.00    +0.000 A 
BRANCH  14  17
ATOM     17  C   UNL     1      -0.993  11.886  21.707  0.00  0.00    +0.000 C 
ATOM     18  C   UNL     1      -0.188  13.179  21.977  0.00  0.00    +0.000 C 
ATOM     19  C   UNL     1      -2.177  12.259  20.794  0.00  0.00    +0.000 C 
ATOM     20  C   UNL     1      -1.537  11.400  23.068  0.00  0.00    +0.000 C 
ENDBRANCH  14  17
ENDBRANCH   6  11
BRANCH   1  21
ATOM     21  C   UNL     1       4.372   3.261  18.623  0.00  0.00    +0.000 C 
BRANCH  21  25
ATOM     22  C   UNL     1       7.801   4.756  17.858  0.00  0.00    +0.000 C 
ATOM     23  C   UNL     1       6.448   4.130  17.626  0.00  0.00    +0.000 C 
ATOM     24  N   UNL     1       5.995   3.967  16.422  0.00  0.00    +0.000 NA
ATOM     25  N   UNL     1       5.732   3.744  18.718  0.00  0.00    +0.000 N 
ATOM     26  H   UNL     1       6.669   4.315  15.734  0.00  0.00    +0.000 HD
ATOM     27  H   UNL     1       6.159   3.752  19.634  0.00  0.00    +0.000 HD
ENDBRANCH  21  25
ENDBRANCH   1  21
TORSDOF 4
ENDMDL
MODEL 5
REMARK VINA RESULT:      -7.6      4.095      9.810
REMARK  Name = 
REMARK  8 active torsions:
REMARK  status: ('A' for Active; 'I' for Inactive)
REMARK    1  A    between atoms: C_1  and  C_2
REMARK    2  A    between atoms: N_4  and  C_5
REMARK    3  A    between atoms: C_5  and  C_6
REMARK    4  A    between atoms: C_11  and  C_12
REMARK    5  A    between atoms: C_15  and  C_16
REMARK    6  A    between atoms: C_16  and  C_17
REMARK    7  A    between atoms: C_16  and  C_18
REMARK    8  A    between atoms: C_16  and  C_19
REMARK                            x       y       z     vdW  Elec       q    Type
REMARK                         _______ _______ _______ _____ _____    ______ ____
ROOT
ATOM      1  C   UNL     1      -1.081  11.266  21.989  0.00  0.00    +0.000 A 
ATOM      2  C   UNL     1      -0.854  10.503  23.149  0.00  0.00    +0.000 A 
ATOM      3  C   UNL     1       0.045   9.451  23.125  0.00  0.00    +0.000 A 
ATOM      4  C   UNL     1       0.698   9.149  21.937  0.00  0.00    +0.000 A 
ATOM      5  C   UNL     1       0.417   9.844  20.726  0.00  0.00    +0.000 A 
ATOM      6  C   UNL     1       0.957   9.548  19.448  0.00  0.00    +0.000 A 
ATOM      7  N   UNL     1       0.691  10.300  18.356  0.00  0.00    +0.000 NA
ATOM      8  C   UNL     1      -0.140  11.328  18.530  0.00  0.00    +0.000 A 
ATOM      9  N   UNL     1      -0.732  11.669  19.678  0.00  0.00    +0.000 NA
ATOM     10  C   UNL     1      -0.466  10.938  20.767  0.00  0.00    +0.000 A 
ENDROOT
BRANCH   6  11
ATOM     11  C   UNL     1       1.827   8.383  19.153  0.00  0.00    +0.000 A 
ATOM     12  C   UNL     1       2.628   8.325  18.004  0.00  0.00    +0.000 A 
ATOM     13  C   UNL     1       3.397   7.203  17.691  0.00  0.00    +0.000 A 
ATOM     14  C   UNL     1       3.468   6.101  18.556  0.00  0.00    +0.000 A 
ATOM     15  C   UNL     1       2.733   6.186  19.750  0.00  0.00    +0.000 A 
ATOM     16  C   UNL     1       1.925   7.294  20.038  0.00  0.00    +0.000 A 
BRANCH  14  17
ATOM     17  C   UNL     1       4.349   4.883  18.244  0.00  0.00    +0.000 C 
ATOM     18  C   UNL     1       5.682   4.878  19.030  0.00  0.00    +0.000 C 
ATOM     19  C   UNL     1       3.589   3.593  18.614  0.00  0.00    +0.000 C 
ATOM     20  C   UNL     1       4.709   4.846  16.743  0.00  0.00    +0.000 C 
ENDBRANCH  14  17
ENDBRANCH   6  11
BRANCH   1  21
ATOM     21  C   UNL     1      -2.013  12.453  22.091  0.00  0.00    +0.000 C 
BRANCH  21  25
ATOM     22  C   UNL     1      -4.583  12.371  24.914  0.00  0.00    +0.000 C 
ATOM     23  C   UNL     1      -4.018  12.484  23.519  0.00  0.00    +0.000 C 
ATOM     24  N   UNL     1      -4.806  12.579  22.494  0.00  0.00    +0.000 NA
ATOM     25  N   UNL     1      -2.663  12.487  23.382  0.00  0.00    +0.000 N 
ATOM     26  H   UNL     1      -5.785  12.560  22.791  0.00  0.00    +0.000 HD
ATOM     27  H   UNL     1      -2.070  12.552  24.199  0.00  0.00    +0.000 HD
ENDBRANCH  21  25
ENDBRANCH   1  21
TORSDOF 4
ENDMDL
MODEL 6
REMARK VINA RESULT:      -7.6      4.180      9.870
REMARK  Name = 
REMARK  8 active torsions:
REMARK  status: ('A' for Active; 'I' for Inactive)
REMARK    1  A    between atoms: C_1  and  C_2
REMARK    2  A    between atoms: N_4  and  C_5
REMARK    3  A    between atoms: C_5  and  C_6
REMARK    4  A    between atoms: C_11  and  C_12
REMARK    5  A    between atoms: C_15  and  C_16
REMARK    6  A    between atoms: C_16  and  C_17
REMARK    7  A    between atoms: C_16  and  C_18
REMARK    8  A    between atoms: C_16  and  C_19
REMARK                            x       y       z     vdW  Elec       q    Type
REMARK                         _______ _______ _______ _____ _____    ______ ____
ROOT
ATOM      1  C   UNL     1      -1.075  11.139  22.101  0.00  0.00    +0.000 A 
ATOM      2  C   UNL     1      -0.759  10.367  23.234  0.00  0.00    +0.000 A 
ATOM      3  C   UNL     1       0.184   9.358  23.148  0.00  0.00    +0.000 A 
ATOM      4  C   UNL     1       0.793   9.106  21.925  0.00  0.00    +0.000 A 
ATOM      5  C   UNL     1       0.423   9.808  20.743  0.00  0.00    +0.000 A 
ATOM      6  C   UNL     1       0.915   9.559  19.435  0.00  0.00    +0.000 A 
ATOM      7  N   UNL     1       0.564  10.317  18.371  0.00  0.00    +0.000 NA
ATOM      8  C   UNL     1      -0.303  11.302  18.604  0.00  0.00    +0.000 A 
ATOM      9  N   UNL     1      -0.854  11.597  19.784  0.00  0.00    +0.000 NA
ATOM     10  C   UNL     1      -0.505  10.860  20.846  0.00  0.00    +0.000 A 
ENDROOT
BRANCH   6  11
ATOM     11  C   UNL     1       1.821   8.439  19.077  0.00  0.00    +0.000 A 
ATOM     12  C   UNL     1       2.595   8.453  17.909  0.00  0.00    +0.000 A 
ATOM     13  C   UNL     1       3.398   7.375  17.536  0.00  0.00    +0.000 A 
ATOM     14  C   UNL     1       3.532   6.246  18.359  0.00  0.00    +0.000 A 
ATOM     15  C   UNL     1       2.824   6.260  19.572  0.00  0.00    +0.000 A 
ATOM     16  C   UNL     1       1.983   7.325  19.920  0.00  0.00    +0.000 A 
BRANCH  14  17
ATOM     17  C   UNL     1       4.451   5.075  17.982  0.00  0.00    +0.000 C 
ATOM     18  C   UNL     1       5.067   5.214  16.570  0.00  0.00    +0.000 C 
ATOM     19  C   UNL     1       5.615   4.993  18.989  0.00  0.00    +0.000 C 
ATOM     20  C   UNL     1       3.667   3.744  18.005  0.00  0.00    +0.000 C 
ENDBRANCH  14  17
ENDBRANCH   6  11
BRANCH   1  21
ATOM     21  C   UNL     1      -2.053  12.281  22.269  0.00  0.00    +0.000 C 
BRANCH  21  25
ATOM     22  C   UNL     1      -4.827  12.371  24.891  0.00  0.00    +0.000 C 
ATOM     23  C   UNL     1      -3.633  12.812  24.080  0.00  0.00    +0.000 C 
ATOM     24  N   UNL     1      -3.134  13.999  24.233  0.00  0.00    +0.000 NA
ATOM     25  N   UNL     1      -3.106  11.923  23.193  0.00  0.00    +0.000 N 
ATOM     26  H   UNL     1      -3.660  14.521  24.939  0.00  0.00    +0.000 HD
ATOM     27  H   UNL     1      -3.421  10.962  23.190  0.00  0.00    +0.000 HD
ENDBRANCH  21  25
ENDBRANCH   1  21
TORSDOF 4
ENDMDL
MODEL 7
REMARK VINA RESULT:      -7.5      4.142      9.698
REMARK  Name = 
REMARK  8 active torsions:
REMARK  status: ('A' for Active; 'I' for Inactive)
REMARK    1  A    between atoms: C_1  and  C_2
REMARK    2  A    between atoms: N_4  and  C_5
REMARK    3  A    between atoms: C_5  and  C_6
REMARK    4  A    between atoms: C_11  and  C_12
REMARK    5  A    between atoms: C_15  and  C_16
REMARK    6  A    between atoms: C_16  and  C_17
REMARK    7  A    between atoms: C_16  and  C_18
REMARK    8  A    between atoms: C_16  and  C_19
REMARK                            x       y       z     vdW  Elec       q    Type
REMARK                         _______ _______ _______ _____ _____    ______ ____
ROOT
ATOM      1  C   UNL     1      -1.583  11.793  22.175  0.00  0.00    +0.000 A 
ATOM      2  C   UNL     1      -1.378  10.932  23.270  0.00  0.00    +0.000 A 
ATOM      3  C   UNL     1      -0.490   9.877  23.168  0.00  0.00    +0.000 A 
ATOM      4  C   UNL     1       0.176   9.668  21.966  0.00  0.00    +0.000 A 
ATOM      5  C   UNL     1      -0.083  10.466  20.815  0.00  0.00    +0.000 A 
ATOM      6  C   UNL     1       0.471  10.273  19.523  0.00  0.00    +0.000 A 
ATOM      7  N   UNL     1       0.226  11.117  18.495  0.00  0.00    +0.000 NA
ATOM      8  C   UNL     1      -0.596  12.135  18.745  0.00  0.00    +0.000 A 
ATOM      9  N   UNL     1      -1.200  12.385  19.911  0.00  0.00    +0.000 NA
ATOM     10  C   UNL     1      -0.956  11.562  20.937  0.00  0.00    +0.000 A 
ENDROOT
BRANCH   6  11
ATOM     11  C   UNL     1       1.333   9.127  19.141  0.00  0.00    +0.000 A 
ATOM     12  C   UNL     1       1.547   8.039  19.998  0.00  0.00    +0.000 A 
ATOM     13  C   UNL     1       2.409   6.992  19.669  0.00  0.00    +0.000 A 
ATOM     14  C   UNL     1       3.048   6.937  18.421  0.00  0.00    +0.000 A 
ATOM     15  C   UNL     1       2.773   7.981  17.523  0.00  0.00    +0.000 A 
ATOM     16  C   UNL     1       1.944   9.055  17.876  0.00  0.00    +0.000 A 
BRANCH  14  17
ATOM     17  C   UNL     1       3.959   5.765  18.029  0.00  0.00    +0.000 C 
ATOM     18  C   UNL     1       4.907   6.097  16.852  0.00  0.00    +0.000 C 
ATOM     19  C   UNL     1       4.837   5.375  19.235  0.00  0.00    +0.000 C 
ATOM     20  C   UNL     1       3.116   4.544  17.601  0.00  0.00    +0.000 C 
ENDBRANCH  14  17
ENDBRANCH   6  11
BRANCH   1  21
ATOM     21  C   UNL     1      -2.504  12.977  22.366  0.00  0.00    +0.000 C 
BRANCH  21  25
ATOM     22  C   UNL     1      -5.963  12.279  20.905  0.00  0.00    +0.000 C 
ATOM     23  C   UNL     1      -4.578  12.863  21.044  0.00  0.00    +0.000 C 
ATOM     24  N   UNL     1      -4.076  13.601  20.104  0.00  0.00    +0.000 NA
ATOM     25  N   UNL     1      -3.885  12.588  22.184  0.00  0.00    +0.000 N 
ATOM     26  H   UNL     1      -4.739  13.696  19.329  0.00  0.00    +0.000 HD
ATOM     27  H   UNL     1      -4.345  12.129  22.959  0.00  0.00    +0.000 HD
ENDBRANCH  21  25
ENDBRANCH   1  21
TORSDOF 4
ENDMDL
MODEL 8
REMARK VINA RESULT:      -7.5      4.031      9.632
REMARK  Name = 
REMARK  8 active torsions:
REMARK  status: ('A' for Active; 'I' for Inactive)
REMARK    1  A    between atoms: C_1  and  C_2
REMARK    2  A    between atoms: N_4  and  C_5
REMARK    3  A    between atoms: C_5  and  C_6
REMARK    4  A    between atoms: C_11  and  C_12
REMARK    5  A    between atoms: C_15  and  C_16
REMARK    6  A    between atoms: C_16  and  C_17
REMARK    7  A    between atoms: C_16  and  C_18
REMARK    8  A    between atoms: C_16  and  C_19
REMARK                            x       y       z     vdW  Elec       q    Type
REMARK                         _______ _______ _______ _____ _____    ______ ____
ROOT
ATOM      1  C   UNL     1      -0.949  11.440  22.186  0.00  0.00    +0.000 A 
ATOM      2  C   UNL     1      -0.916  10.484  23.218  0.00  0.00    +0.000 A 
ATOM      3  C   UNL     1      -0.150   9.341  23.082  0.00  0.00    +0.000 A 
ATOM      4  C   UNL     1       0.563   9.141  21.906  0.00  0.00    +0.000 A 
ATOM      5  C   UNL     1       0.471  10.045  20.810  0.00  0.00    +0.000 A 
ATOM      6  C   UNL     1       1.080   9.881  19.538  0.00  0.00    +0.000 A 
ATOM      7  N   UNL     1       1.000  10.820  18.569  0.00  0.00    +0.000 NA
ATOM      8  C   UNL     1       0.286  11.909  18.853  0.00  0.00    +0.000 A 
ATOM      9  N   UNL     1      -0.358  12.144  20.000  0.00  0.00    +0.000 NA
ATOM     10  C   UNL     1      -0.276  11.226  20.970  0.00  0.00    +0.000 A 
ENDROOT
BRANCH   6  11
ATOM     11  C   UNL     1       1.827   8.671  19.115  0.00  0.00    +0.000 A 
ATOM     12  C   UNL     1       1.929   7.536  19.931  0.00  0.00    +0.000 A 
ATOM     13  C   UNL     1       2.685   6.422  19.564  0.00  0.00    +0.000 A 
ATOM     14  C   UNL     1       3.321   6.350  18.315  0.00  0.00    +0.000 A 
ATOM     15  C   UNL     1       3.154   7.449  17.456  0.00  0.00    +0.000 A 
ATOM     16  C   UNL     1       2.433   8.585  17.848  0.00  0.00    +0.000 A 
BRANCH  14  17
ATOM     17  C   UNL     1       4.114   5.109  17.881  0.00  0.00    +0.000 C 
ATOM     18  C   UNL     1       3.216   3.884  17.585  0.00  0.00    +0.000 C 
ATOM     19  C   UNL     1       4.899   5.428  16.593  0.00  0.00    +0.000 C 
ATOM     20  C   UNL     1       5.105   4.687  18.987  0.00  0.00    +0.000 C 
ENDBRANCH  14  17
ENDBRANCH   6  11
BRANCH   1  21
ATOM     21  C   UNL     1      -1.739  12.710  22.419  0.00  0.00    +0.000 C 
BRANCH  21  25
ATOM     22  C   UNL     1      -5.378  12.811  21.269  0.00  0.00    +0.000 C 
ATOM     23  C   UNL     1      -4.188  12.647  22.182  0.00  0.00    +0.000 C 
ATOM     24  N   UNL     1      -4.354  12.444  23.452  0.00  0.00    +0.000 NA
ATOM     25  N   UNL     1      -2.947  12.716  21.625  0.00  0.00    +0.000 N 
ATOM     26  H   UNL     1      -5.351  12.423  23.685  0.00  0.00    +0.000 HD
ATOM     27  H   UNL     1      -2.843  12.736  20.619  0.00  0.00    +0.000 HD
ENDBRANCH  21  25
ENDBRANCH   1  21
TORSDOF 4
ENDMDL
MODEL 9
REMARK VINA RESULT:      -7.4      4.338      9.829
REMARK  Name = 
REMARK  8 active torsions:
REMARK  status: ('A' for Active; 'I' for Inactive)
REMARK    1  A    between atoms: C_1  and  C_2
REMARK    2  A    between atoms: N_4  and  C_5
REMARK    3  A    between atoms: C_5  and  C_6
REMARK    4  A    between atoms: C_11  and  C_12
REMARK    5  A    between atoms: C_15  and  C_16
REMARK    6  A    between atoms: C_16  and  C_17
REMARK    7  A    between atoms: C_16  and  C_18
REMARK    8  A    between atoms: C_16  and  C_19
REMARK                            x       y       z     vdW  Elec       q    Type
REMARK                         _______ _______ _______ _____ _____    ______ ____
ROOT
ATOM      1  C   UNL     1      -2.607  12.039  19.360  0.00  0.00    +0.000 A 
ATOM      2  C   UNL     1      -3.089  11.538  18.137  0.00  0.00    +0.000 A 
ATOM      3  C   UNL     1      -2.466  10.459  17.534  0.00  0.00    +0.000 A 
ATOM      4  C   UNL     1      -1.350   9.898  18.141  0.00  0.00    +0.000 A 
ATOM      5  C   UNL     1      -0.786  10.445  19.329  0.00  0.00    +0.000 A 
ATOM      6  C   UNL     1       0.402  10.006  19.969  0.00  0.00    +0.000 A 
ATOM      7  N   UNL     1       0.836  10.535  21.135  0.00  0.00    +0.000 NA
ATOM      8  C   UNL     1       0.106  11.525  21.647  0.00  0.00    +0.000 A 
ATOM      9  N   UNL     1      -1.003  12.039  21.107  0.00  0.00    +0.000 NA
ATOM     10  C   UNL     1      -1.447  11.514  19.959  0.00  0.00    +0.000 A 
ENDROOT
BRANCH   6  11
ATOM     11  C   UNL     1       1.311   8.964  19.430  0.00  0.00    +0.000 A 
ATOM     12  C   UNL     1       1.613   7.798  20.146  0.00  0.00    +0.000 A 
ATOM     13  C   UNL     1       2.518   6.847  19.671  0.00  0.00    +0.000 A 
ATOM     14  C   UNL     1       3.114   6.974  18.407  0.00  0.00    +0.000 A 
ATOM     15  C   UNL     1       2.752   8.099  17.647  0.00  0.00    +0.000 A 
ATOM     16  C   UNL     1       1.879   9.074  18.148  0.00  0.00    +0.000 A 
BRANCH  14  17
ATOM     17  C   UNL     1       4.073   5.910  17.854  0.00  0.00    +0.000 C 
ATOM     18  C   UNL     1       5.154   5.475  18.872  0.00  0.00    +0.000 C 
ATOM     19  C   UNL     1       3.272   4.653  17.463  0.00  0.00    +0.000 C 
ATOM     20  C   UNL     1       4.815   6.446  16.609  0.00  0.00    +0.000 C 
ENDBRANCH  14  17
ENDBRANCH   6  11
BRANCH   1  21
ATOM     21  C   UNL     1      -3.373  13.167  20.016  0.00  0.00    +0.000 C 
BRANCH  21  25
ATOM     22  C   UNL     1      -6.864  12.377  21.345  0.00  0.00    +0.000 C 
ATOM     23  C   UNL     1      -5.366  12.561  21.327  0.00  0.00    +0.000 C 
ATOM     24  N   UNL     1      -4.675  12.454  22.418  0.00  0.00    +0.000 NA
ATOM     25  N   UNL     1      -4.776  12.837  20.131  0.00  0.00    +0.000 N 
ATOM     26  H   UNL     1      -5.287  12.244  23.212  0.00  0.00    +0.000 HD
ATOM     27  H   UNL     1      -5.311  12.779  19.275  0.00  0.00    +0.000 HD
ENDBRANCH  21  25
ENDBRANCH   1  21
TORSDOF 4
ENDMDL
