MODEL 1
REMARK VINA RESULT:      -7.6      0.000      0.000
REMARK  Name = 
REMARK  11 active torsions:
REMARK  status: ('A' for Active; 'I' for Inactive)
REMARK    1  A    between atoms: C_1  and  O_2
REMARK    2  A    between atoms: O_2  and  C_3
REMARK    3  A    between atoms: C_6  and  C_7
REMARK    4  A    between atoms: C_11  and  C_12
REMARK    5  A    between atoms: C_12  and  C_14
REMARK    6  A    between atoms: C_16  and  O_17
REMARK    7  A    between atoms: O_17  and  C_18
REMARK    8  A    between atoms: C_19  and  O_20
REMARK    9  A    between atoms: O_20  and  C_21
REMARK   10  A    between atoms: C_22  and  O_23
REMARK   11  A    between atoms: O_23  and  C_24
REMARK                            x       y       z     vdW  Elec       q    Type
REMARK                         _______ _______ _______ _____ _____    ______ ____
ROOT
ATOM      1  C   UNL     1       2.646   6.964  18.897  0.00  0.00    +0.000 A 
ATOM      2  C   UNL     1       2.194   6.510  20.137  0.00  0.00    +0.000 A 
ATOM      3  C   UNL     1       1.366   7.324  20.908  0.00  0.00    +0.000 A 
ATOM      4  C   UNL     1       1.008   8.578  20.435  0.00  0.00    +0.000 A 
ATOM      5  C   UNL     1       1.497   8.964  19.197  0.00  0.00    +0.000 A 
ATOM      6  N   UNL     1       2.310   8.192  18.435  0.00  0.00    +0.000 NA
ENDROOT
BRANCH   1  10
ATOM      7  C   UNL     1       5.059   4.618  16.198  0.00  0.00    +0.000 A 
ATOM      8  C   UNL     1       4.115   4.002  17.017  0.00  0.00    +0.000 A 
ATOM      9  C   UNL     1       3.328   4.758  17.893  0.00  0.00    +0.000 A 
ATOM     10  C   UNL     1       3.479   6.151  17.989  0.00  0.00    +0.000 A 
ATOM     11  C   UNL     1       4.447   6.752  17.161  0.00  0.00    +0.000 A 
ATOM     12  C   UNL     1       5.230   5.996  16.278  0.00  0.00    +0.000 A 
BRANCH   7  14
ATOM     13  C   UNL     1       6.166   4.302  14.134  0.00  0.00    +0.000 C 
ATOM     14  O   UNL     1       5.771   3.771  15.394  0.00  0.00    +0.000 OA
ENDBRANCH   7  14
ENDBRANCH   1  10
BRANCH   5  15
ATOM     15  C   UNL     1       1.109  10.285  18.635  0.00  0.00    +0.000 C 
ATOM     16  O   UNL     1       1.964  11.109  18.338  0.00  0.00    +0.000 OA
BRANCH  15  17
ATOM     17  C   UNL     1      -0.323  10.620  18.419  0.00  0.00    +0.000 A 
ATOM     18  C   UNL     1      -0.935  11.537  19.269  0.00  0.00    +0.000 A 
ATOM     19  C   UNL     1      -2.267  11.902  19.060  0.00  0.00    +0.000 A 
ATOM     20  C   UNL     1      -3.011  11.307  18.012  0.00  0.00    +0.000 A 
ATOM     21  C   UNL     1      -2.405  10.336  17.188  0.00  0.00    +0.000 A 
ATOM     22  C   UNL     1      -1.064  10.006  17.405  0.00  0.00    +0.000 A 
BRANCH  19  23
ATOM     23  O   UNL     1      -2.918  12.828  19.844  0.00  0.00    +0.000 OA
ATOM     24  C   UNL     1      -2.734  12.697  21.251  0.00  0.00    +0.000 C 
ENDBRANCH  19  23
BRANCH  20  25
ATOM     25  O   UNL     1      -4.330  11.697  17.932  0.00  0.00    +0.000 OA
ATOM     26  C   UNL     1      -5.304  10.770  18.396  0.00  0.00    +0.000 C 
ENDBRANCH  20  25
BRANCH  21  27
ATOM     27  O   UNL     1      -3.164   9.728  16.222  0.00  0.00    +0.000 OA
ATOM     28  C   UNL     1      -3.132  10.266  14.905  0.00  0.00    +0.000 C 
ENDBRANCH  21  27
ENDBRANCH  15  17
ENDBRANCH   5  15
TORSDOF 7
ENDMDL
MODEL 2
REMARK VINA RESULT:      -7.5      0.275      2.405
REMARK  Name = 
REMARK  11 active torsions:
REMARK  status: ('A' for Active; 'I' for Inactive)
REMARK    1  A    between atoms: C_1  and  O_2
REMARK    2  A    between atoms: O_2  and  C_3
REMARK    3  A    between atoms: C_6  and  C_7
REMARK    4  A    between atoms: C_11  and  C_12
REMARK    5  A    between atoms: C_12  and  C_14
REMARK    6  A    between atoms: C_16  and  O_17
REMARK    7  A    between atoms: O_17  and  C_18
REMARK    8  A    between atoms: C_19  and  O_20
REMARK    9  A    between atoms: O_20  and  C_21
REMARK   10  A    between atoms: C_22  and  O_23
REMARK   11  A    between atoms: O_23  and  C_24
REMARK                            x       y       z     vdW  Elec       q    Type
REMARK                         _______ _______ _______ _____ _____    ______ ____
ROOT
ATOM      1  C   UNL     1       2.594   7.006  18.892  0.00  0.00    +0.000 A 
ATOM      2  C   UNL     1       2.160   6.558  20.141  0.00  0.00    +0.000 A 
ATOM      3  C   UNL     1       1.333   7.371  20.914  0.00  0.00    +0.000 A 
ATOM      4  C   UNL     1       0.958   8.618  20.434  0.00  0.00    +0.000 A 
ATOM      5  C   UNL     1       1.429   8.997  19.187  0.00  0.00    +0.000 A 
ATOM      6  N   UNL     1       2.241   8.227  18.424  0.00  0.00    +0.000 NA
ENDROOT
BRANCH   1  10
ATOM      7  C   UNL     1       4.998   4.660  16.185  0.00  0.00    +0.000 A 
ATOM      8  C   UNL     1       4.085   4.039  17.035  0.00  0.00    +0.000 A 
ATOM      9  C   UNL     1       3.301   4.796  17.913  0.00  0.00    +0.000 A 
ATOM     10  C   UNL     1       3.424   6.193  17.981  0.00  0.00    +0.000 A 
ATOM     11  C   UNL     1       4.362   6.799  17.122  0.00  0.00    +0.000 A 
ATOM     12  C   UNL     1       5.143   6.042  16.236  0.00  0.00    +0.000 A 
BRANCH   7  14
ATOM     13  C   UNL     1       6.092   4.337  14.116  0.00  0.00    +0.000 C 
ATOM     14  O   UNL     1       5.711   3.813  15.382  0.00  0.00    +0.000 OA
ENDBRANCH   7  14
ENDBRANCH   1  10
BRANCH   5  15
ATOM     15  C   UNL     1       1.022  10.309  18.619  0.00  0.00    +0.000 C 
ATOM     16  O   UNL     1       1.865  11.142  18.312  0.00  0.00    +0.000 OA
BRANCH  15  17
ATOM     17  C   UNL     1      -0.415  10.625  18.409  0.00  0.00    +0.000 A 
ATOM     18  C   UNL     1      -1.088  10.025  17.347  0.00  0.00    +0.000 A 
ATOM     19  C   UNL     1      -2.449  10.271  17.153  0.00  0.00    +0.000 A 
ATOM     20  C   UNL     1      -3.138  11.166  18.008  0.00  0.00    +0.000 A 
ATOM     21  C   UNL     1      -2.441  11.816  19.048  0.00  0.00    +0.000 A 
ATOM     22  C   UNL     1      -1.084  11.535  19.233  0.00  0.00    +0.000 A 
BRANCH  19  23
ATOM     23  O   UNL     1      -3.177   9.682  16.145  0.00  0.00    +0.000 OA
ATOM     24  C   UNL     1      -2.879  10.119  14.821  0.00  0.00    +0.000 C 
ENDBRANCH  19  23
BRANCH  20  25
ATOM     25  O   UNL     1      -4.462  11.379  17.693  0.00  0.00    +0.000 OA
ATOM     26  C   UNL     1      -5.429  10.728  18.509  0.00  0.00    +0.000 C 
ENDBRANCH  20  25
BRANCH  21  27
ATOM     27  O   UNL     1      -3.114  12.726  19.821  0.00  0.00    +0.000 OA
ATOM     28  C   UNL     1      -2.352  13.665  20.572  0.00  0.00    +0.000 C 
ENDBRANCH  21  27
ENDBRANCH  15  17
ENDBRANCH   5  15
TORSDOF 7
ENDMDL
MODEL 3
REMARK VINA RESULT:      -7.4      0.487      2.626
REMARK  Name = 
REMARK  11 active torsions:
REMARK  status: ('A' for Active; 'I' for Inactive)
REMARK    1  A    between atoms: C_1  and  O_2
REMARK    2  A    between atoms: O_2  and  C_3
REMARK    3  A    between atoms: C_6  and  C_7
REMARK    4  A    between atoms: C_11  and  C_12
REMARK    5  A    between atoms: C_12  and  C_14
REMARK    6  A    between atoms: C_16  and  O_17
REMARK    7  A    between atoms: O_17  and  C_18
REMARK    8  A    between atoms: C_19  and  O_20
REMARK    9  A    between atoms: O_20  and  C_21
REMARK   10  A    between atoms: C_22  and  O_23
REMARK   11  A    between atoms: O_23  and  C_24
REMARK                            x       y       z     vdW  Elec       q    Type
REMARK                         _______ _______ _______ _____ _____    ______ ____
ROOT
ATOM      1  C   UNL     1       2.678   6.976  18.817  0.00  0.00    +0.000 A 
ATOM      2  C   UNL     1       2.342   6.553  20.104  0.00  0.00    +0.000 A 
ATOM      3  C   UNL     1       1.539   7.361  20.907  0.00  0.00    +0.000 A 
ATOM      4  C   UNL     1       1.091   8.580  20.417  0.00  0.00    +0.000 A 
ATOM      5  C   UNL     1       1.467   8.937  19.132  0.00  0.00    +0.000 A 
ATOM      6  N   UNL     1       2.254   8.170  18.338  0.00  0.00    +0.000 NA
ENDROOT
BRANCH   1  10
ATOM      7  C   UNL     1       5.031   4.570  16.118  0.00  0.00    +0.000 A 
ATOM      8  C   UNL     1       5.234   5.946  16.195  0.00  0.00    +0.000 A 
ATOM      9  C   UNL     1       4.476   6.731  17.070  0.00  0.00    +0.000 A 
ATOM     10  C   UNL     1       3.476   6.164  17.877  0.00  0.00    +0.000 A 
ATOM     11  C   UNL     1       3.279   4.773  17.775  0.00  0.00    +0.000 A 
ATOM     12  C   UNL     1       4.043   3.984  16.904  0.00  0.00    +0.000 A 
BRANCH   7  14
ATOM     13  C   UNL     1       6.575   4.742  14.337  0.00  0.00    +0.000 C 
ATOM     14  O   UNL     1       5.827   3.914  15.219  0.00  0.00    +0.000 OA
ENDBRANCH   7  14
ENDBRANCH   1  10
BRANCH   5  15
ATOM     15  C   UNL     1       0.978  10.217  18.555  0.00  0.00    +0.000 C 
ATOM     16  O   UNL     1       1.770  11.083  18.205  0.00  0.00    +0.000 OA
BRANCH  15  17
ATOM     17  C   UNL     1      -0.478  10.460  18.386  0.00  0.00    +0.000 A 
ATOM     18  C   UNL     1      -1.140   9.864  17.314  0.00  0.00    +0.000 A 
ATOM     19  C   UNL     1      -2.517  10.041  17.159  0.00  0.00    +0.000 A 
ATOM     20  C   UNL     1      -3.235  10.862  18.063  0.00  0.00    +0.000 A 
ATOM     21  C   UNL     1      -2.552  11.509  19.114  0.00  0.00    +0.000 A 
ATOM     22  C   UNL     1      -1.178  11.297  19.260  0.00  0.00    +0.000 A 
BRANCH  19  23
ATOM     23  O   UNL     1      -3.233   9.452  16.142  0.00  0.00    +0.000 OA
ATOM     24  C   UNL     1      -2.966   9.934  14.828  0.00  0.00    +0.000 C 
ENDBRANCH  19  23
BRANCH  20  25
ATOM     25  O   UNL     1      -4.575  11.012  17.784  0.00  0.00    +0.000 OA
ATOM     26  C   UNL     1      -4.941  12.117  16.965  0.00  0.00    +0.000 C 
ENDBRANCH  20  25
BRANCH  21  27
ATOM     27  O   UNL     1      -3.257  12.349  19.936  0.00  0.00    +0.000 OA
ATOM     28  C   UNL     1      -2.698  12.673  21.204  0.00  0.00    +0.000 C 
ENDBRANCH  21  27
ENDBRANCH  15  17
ENDBRANCH   5  15
TORSDOF 7
ENDMDL
MODEL 4
REMARK VINA RESULT:      -7.4      1.022      1.468
REMARK  Name = 
REMARK  11 active torsions:
REMARK  status: ('A' for Active; 'I' for Inactive)
REMARK    1  A    between atoms: C_1  and  O_2
REMARK    2  A    between atoms: O_2  and  C_3
REMARK    3  A    between atoms: C_6  and  C_7
REMARK    4  A    between atoms: C_11  and  C_12
REMARK    5  A    between atoms: C_12  and  C_14
REMARK    6  A    between atoms: C_16  and  O_17
REMARK    7  A    between atoms: O_17  and  C_18
REMARK    8  A    between atoms: C_19  and  O_20
REMARK    9  A    between atoms: O_20  and  C_21
REMARK   10  A    between atoms: C_22  and  O_23
REMARK   11  A    between atoms: O_23  and  C_24
REMARK                            x       y       z     vdW  Elec       q    Type
REMARK                         _______ _______ _______ _____ _____    ______ ____
ROOT
ATOM      1  C   UNL     1       1.983   7.804  19.477  0.00  0.00    +0.000 A 
ATOM      2  C   UNL     1       1.662   7.507  20.803  0.00  0.00    +0.000 A 
ATOM      3  C   UNL     1       0.882   8.398  21.538  0.00  0.00    +0.000 A 
ATOM      4  C   UNL     1       0.440   9.571  20.943  0.00  0.00    +0.000 A 
ATOM      5  C   UNL     1       0.800   9.802  19.625  0.00  0.00    +0.000 A 
ATOM      6  N   UNL     1       1.565   8.954  18.895  0.00  0.00    +0.000 NA
ENDROOT
BRANCH   1  10
ATOM      7  C   UNL     1       4.263   5.124  16.981  0.00  0.00    +0.000 A 
ATOM      8  C   UNL     1       4.481   6.499  16.922  0.00  0.00    +0.000 A 
ATOM      9  C   UNL     1       3.746   7.373  17.732  0.00  0.00    +0.000 A 
ATOM     10  C   UNL     1       2.756   6.897  18.606  0.00  0.00    +0.000 A 
ATOM     11  C   UNL     1       2.543   5.504  18.640  0.00  0.00    +0.000 A 
ATOM     12  C   UNL     1       3.284   4.628  17.836  0.00  0.00    +0.000 A 
BRANCH   7  14
ATOM     13  C   UNL     1       6.442   4.527  16.290  0.00  0.00    +0.000 C 
ATOM     14  O   UNL     1       5.036   4.377  16.135  0.00  0.00    +0.000 OA
ENDBRANCH   7  14
ENDBRANCH   1  10
BRANCH   5  15
ATOM     15  C   UNL     1       0.319  11.029  18.938  0.00  0.00    +0.000 C 
ATOM     16  O   UNL     1       1.108  11.900  18.598  0.00  0.00    +0.000 OA
BRANCH  15  17
ATOM     17  C   UNL     1      -1.127  11.210  18.647  0.00  0.00    +0.000 A 
ATOM     18  C   UNL     1      -1.907  11.943  19.541  0.00  0.00    +0.000 A 
ATOM     19  C   UNL     1      -3.258  12.165  19.269  0.00  0.00    +0.000 A 
ATOM     20  C   UNL     1      -3.851  11.610  18.108  0.00  0.00    +0.000 A 
ATOM     21  C   UNL     1      -3.073  10.822  17.234  0.00  0.00    +0.000 A 
ATOM     22  C   UNL     1      -1.717  10.633  17.519  0.00  0.00    +0.000 A 
BRANCH  19  23
ATOM     23  O   UNL     1      -4.072  12.909  20.093  0.00  0.00    +0.000 OA
ATOM     24  C   UNL     1      -3.857  12.749  21.493  0.00  0.00    +0.000 C 
ENDBRANCH  19  23
BRANCH  20  25
ATOM     25  O   UNL     1      -5.201  11.844  17.967  0.00  0.00    +0.000 OA
ATOM     26  C   UNL     1      -6.082  10.839  18.454  0.00  0.00    +0.000 C 
ENDBRANCH  20  25
BRANCH  21  27
ATOM     27  O   UNL     1      -3.684  10.242  16.153  0.00  0.00    +0.000 OA
ATOM     28  C   UNL     1      -2.971  10.200  14.921  0.00  0.00    +0.000 C 
ENDBRANCH  21  27
ENDBRANCH  15  17
ENDBRANCH   5  15
TORSDOF 7
ENDMDL
MODEL 5
REMARK VINA RESULT:      -7.3      1.028      2.686
REMARK  Name = 
REMARK  11 active torsions:
REMARK  status: ('A' for Active; 'I' for Inactive)
REMARK    1  A    between atoms: C_1  and  O_2
REMARK    2  A    between atoms: O_2  and  C_3
REMARK    3  A    between atoms: C_6  and  C_7
REMARK    4  A    between atoms: C_11  and  C_12
REMARK    5  A    between atoms: C_12  and  C_14
REMARK    6  A    between atoms: C_16  and  O_17
REMARK    7  A    between atoms: O_17  and  C_18
REMARK    8  A    between atoms: C_19  and  O_20
REMARK    9  A    between atoms: O_20  and  C_21
REMARK   10  A    between atoms: C_22  and  O_23
REMARK   11  A    between atoms: O_23  and  C_24
REMARK                            x       y       z     vdW  Elec       q    Type
REMARK                         _______ _______ _______ _____ _____    ______ ____
ROOT
ATOM      1  C   UNL     1       1.894   7.844  19.533  0.00  0.00    +0.000 A 
ATOM      2  C   UNL     1       1.550   7.560  20.856  0.00  0.00    +0.000 A 
ATOM      3  C   UNL     1       0.760   8.458  21.570  0.00  0.00    +0.000 A 
ATOM      4  C   UNL     1       0.331   9.628  20.958  0.00  0.00    +0.000 A 
ATOM      5  C   UNL     1       0.713   9.845  19.644  0.00  0.00    +0.000 A 
ATOM      6  N   UNL     1       1.488   8.989  18.935  0.00  0.00    +0.000 NA
ENDROOT
BRANCH   1  10
ATOM      7  C   UNL     1       4.167   5.193  17.001  0.00  0.00    +0.000 A 
ATOM      8  C   UNL     1       3.221   4.682  17.887  0.00  0.00    +0.000 A 
ATOM      9  C   UNL     1       2.479   5.538  18.709  0.00  0.00    +0.000 A 
ATOM     10  C   UNL     1       2.679   6.928  18.683  0.00  0.00    +0.000 A 
ATOM     11  C   UNL     1       3.649   7.422  17.789  0.00  0.00    +0.000 A 
ATOM     12  C   UNL     1       4.387   6.565  16.959  0.00  0.00    +0.000 A 
BRANCH   7  14
ATOM     13  C   UNL     1       5.561   4.754  15.144  0.00  0.00    +0.000 C 
ATOM     14  O   UNL     1       4.833   4.256  16.259  0.00  0.00    +0.000 OA
ENDBRANCH   7  14
ENDBRANCH   1  10
BRANCH   5  15
ATOM     15  C   UNL     1       0.245  11.067  18.938  0.00  0.00    +0.000 C 
ATOM     16  O   UNL     1       1.046  11.915  18.566  0.00  0.00    +0.000 OA
BRANCH  15  17
ATOM     17  C   UNL     1      -1.201  11.272  18.667  0.00  0.00    +0.000 A 
ATOM     18  C   UNL     1      -1.758  10.707  17.522  0.00  0.00    +0.000 A 
ATOM     19  C   UNL     1      -3.124  10.849  17.266  0.00  0.00    +0.000 A 
ATOM     20  C   UNL     1      -3.937  11.604  18.146  0.00  0.00    +0.000 A 
ATOM     21  C   UNL     1      -3.360  12.222  19.275  0.00  0.00    +0.000 A 
ATOM     22  C   UNL     1      -1.995  12.047  19.519  0.00  0.00    +0.000 A 
BRANCH  19  23
ATOM     23  O   UNL     1      -3.740  10.285  16.172  0.00  0.00    +0.000 OA
ATOM     24  C   UNL     1      -2.936  10.147  15.004  0.00  0.00    +0.000 C 
ENDBRANCH  19  23
BRANCH  20  25
ATOM     25  O   UNL     1      -5.257  11.726  17.770  0.00  0.00    +0.000 OA
ATOM     26  C   UNL     1      -6.192  10.873  18.420  0.00  0.00    +0.000 C 
ENDBRANCH  20  25
BRANCH  21  27
ATOM     27  O   UNL     1      -4.155  13.001  20.075  0.00  0.00    +0.000 OA
ATOM     28  C   UNL     1      -4.290  12.638  21.445  0.00  0.00    +0.000 C 
ENDBRANCH  21  27
ENDBRANCH  15  17
ENDBRANCH   5  15
TORSDOF 7
ENDMDL
MODEL 6
REMARK VINA RESULT:      -7.1      1.646      3.294
REMARK  Name = 
REMARK  11 active torsions:
REMARK  status: ('A' for Active; 'I' for Inactive)
REMARK    1  A    between atoms: C_1  and  O_2
REMARK    2  A    between atoms: O_2  and  C_3
REMARK    3  A    between atoms: C_6  and  C_7
REMARK    4  A    between atoms: C_11  and  C_12
REMARK    5  A    between atoms: C_12  and  C_14
REMARK    6  A    between atoms: C_16  and  O_17
REMARK    7  A    between atoms: O_17  and  C_18
REMARK    8  A    between atoms: C_19  and  O_20
REMARK    9  A    between atoms: O_20  and  C_21
REMARK   10  A    between atoms: C_22  and  O_23
REMARK   11  A    between atoms: O_23  and  C_24
REMARK                            x       y       z     vdW  Elec       q    Type
REMARK                         _______ _______ _______ _____ _____    ______ ____
ROOT
ATOM      1  C   UNL     1       1.557   8.224  20.315  0.00  0.00    +0.000 A 
ATOM      2  C   UNL     1       1.371   8.274  21.697  0.00  0.00    +0.000 A 
ATOM      3  C   UNL     1       0.725   9.371  22.266  0.00  0.00    +0.000 A 
ATOM      4  C   UNL     1       0.280  10.401  21.449  0.00  0.00    +0.000 A 
ATOM      5  C   UNL     1       0.502  10.285  20.086  0.00  0.00    +0.000 A 
ATOM      6  N   UNL     1       1.137   9.232  19.514  0.00  0.00    +0.000 NA
ENDROOT
BRANCH   1  10
ATOM      7  C   UNL     1       3.416   4.874  18.332  0.00  0.00    +0.000 A 
ATOM      8  C   UNL     1       3.405   6.131  17.732  0.00  0.00    +0.000 A 
ATOM      9  C   UNL     1       2.806   7.222  18.372  0.00  0.00    +0.000 A 
ATOM     10  C   UNL     1       2.180   7.080  19.621  0.00  0.00    +0.000 A 
ATOM     11  C   UNL     1       2.192   5.798  20.204  0.00  0.00    +0.000 A 
ATOM     12  C   UNL     1       2.799   4.707  19.567  0.00  0.00    +0.000 A 
BRANCH   7  14
ATOM     13  C   UNL     1       3.532   2.571  17.819  0.00  0.00    +0.000 C 
ATOM     14  O   UNL     1       4.023   3.888  17.604  0.00  0.00    +0.000 OA
ENDBRANCH   7  14
ENDBRANCH   1  10
BRANCH   5  15
ATOM     15  C   UNL     1       0.011  11.348  19.170  0.00  0.00    +0.000 C 
ATOM     16  O   UNL     1       0.787  12.169  18.699  0.00  0.00    +0.000 OA
BRANCH  15  17
ATOM     17  C   UNL     1      -1.428  11.424  18.808  0.00  0.00    +0.000 A 
ATOM     18  C   UNL     1      -1.866  10.786  17.649  0.00  0.00    +0.000 A 
ATOM     19  C   UNL     1      -3.220  10.805  17.310  0.00  0.00    +0.000 A 
ATOM     20  C   UNL     1      -4.146  11.510  18.118  0.00  0.00    +0.000 A 
ATOM     21  C   UNL     1      -3.692  12.202  19.260  0.00  0.00    +0.000 A 
ATOM     22  C   UNL     1      -2.334  12.148  19.589  0.00  0.00    +0.000 A 
BRANCH  19  23
ATOM     23  O   UNL     1      -3.719  10.165  16.198  0.00  0.00    +0.000 OA
ATOM     24  C   UNL     1      -3.013  10.386  14.980  0.00  0.00    +0.000 C 
ENDBRANCH  19  23
BRANCH  20  25
ATOM     25  O   UNL     1      -5.445  11.510  17.661  0.00  0.00    +0.000 OA
ATOM     26  C   UNL     1      -6.384  10.729  18.392  0.00  0.00    +0.000 C 
ENDBRANCH  20  25
BRANCH  21  27
ATOM     27  O   UNL     1      -4.596  12.930  19.990  0.00  0.00    +0.000 OA
ATOM     28  C   UNL     1      -4.360  13.091  21.384  0.00  0.00    +0.000 C 
ENDBRANCH  21  27
ENDBRANCH  15  17
ENDBRANCH   5  15
TORSDOF 7
ENDMDL
MODEL 7
REMARK VINA RESULT:      -7.1      3.146      9.304
REMARK  Name = 
REMARK  11 active torsions:
REMARK  status: ('A' for Active; 'I' for Inactive)
REMARK    1  A    between atoms: C_1  and  O_2
REMARK    2  A    between atoms: O_2  and  C_3
REMARK    3  A    between atoms: C_6  and  C_7
REMARK    4  A    between atoms: C_11  and  C_12
REMARK    5  A    between atoms: C_12  and  C_14
REMARK    6  A    between atoms: C_16  and  O_17
REMARK    7  A    between atoms: O_17  and  C_18
REMARK    8  A    between atoms: C_19  and  O_20
REMARK    9  A    between atoms: O_20  and  C_21
REMARK   10  A    between atoms: C_22  and  O_23
REMARK   11  A    between atoms: O_23  and  C_24
REMARK                            x       y       z     vdW  Elec       q    Type
REMARK                         _______ _______ _______ _____ _____    ______ ____
ROOT
ATOM      1  C   UNL     1       0.888   9.957  19.849  0.00  0.00    +0.000 A 
ATOM      2  C   UNL     1       1.141  10.540  18.606  0.00  0.00    +0.000 A 
ATOM      3  C   UNL     1       1.847   9.824  17.641  0.00  0.00    +0.000 A 
ATOM      4  C   UNL     1       2.295   8.543  17.932  0.00  0.00    +0.000 A 
ATOM      5  C   UNL     1       2.010   8.030  19.188  0.00  0.00    +0.000 A 
ATOM      6  N   UNL     1       1.333   8.713  20.143  0.00  0.00    +0.000 NA
ENDROOT
BRANCH   1  10
ATOM      7  C   UNL     1      -1.451  11.845  22.943  0.00  0.00    +0.000 A 
ATOM      8  C   UNL     1      -1.122  12.543  21.783  0.00  0.00    +0.000 A 
ATOM      9  C   UNL     1      -0.366  11.935  20.775  0.00  0.00    +0.000 A 
ATOM     10  C   UNL     1       0.102  10.618  20.910  0.00  0.00    +0.000 A 
ATOM     11  C   UNL     1      -0.231   9.934  22.096  0.00  0.00    +0.000 A 
ATOM     12  C   UNL     1      -0.995  10.541  23.103  0.00  0.00    +0.000 A 
BRANCH   7  14
ATOM     13  C   UNL     1      -3.588  12.322  23.831  0.00  0.00    +0.000 C 
ATOM     14  O   UNL     1      -2.185  12.550  23.857  0.00  0.00    +0.000 OA
ENDBRANCH   7  14
ENDBRANCH   1  10
BRANCH   5  15
ATOM     15  C   UNL     1       2.440   6.649  19.529  0.00  0.00    +0.000 C 
ATOM     16  O   UNL     1       2.004   6.092  20.529  0.00  0.00    +0.000 OA
BRANCH  15  17
ATOM     17  C   UNL     1       3.398   5.921  18.657  0.00  0.00    +0.000 A 
ATOM     18  C   UNL     1       4.412   6.638  18.026  0.00  0.00    +0.000 A 
ATOM     19  C   UNL     1       5.351   5.971  17.236  0.00  0.00    +0.000 A 
ATOM     20  C   UNL     1       5.248   4.572  17.038  0.00  0.00    +0.000 A 
ATOM     21  C   UNL     1       4.187   3.857  17.632  0.00  0.00    +0.000 A 
ATOM     22  C   UNL     1       3.273   4.546  18.435  0.00  0.00    +0.000 A 
BRANCH  19  23
ATOM     23  O   UNL     1       6.397   6.617  16.616  0.00  0.00    +0.000 OA
ATOM     24  C   UNL     1       7.444   7.072  17.469  0.00  0.00    +0.000 C 
ENDBRANCH  19  23
BRANCH  20  25
ATOM     25  O   UNL     1       6.193   4.026  16.197  0.00  0.00    +0.000 OA
ATOM     26  C   UNL     1       5.871   3.981  14.811  0.00  0.00    +0.000 C 
ENDBRANCH  20  25
BRANCH  21  27
ATOM     27  O   UNL     1       4.072   2.516  17.372  0.00  0.00    +0.000 OA
ATOM     28  C   UNL     1       3.363   1.710  18.305  0.00  0.00    +0.000 C 
ENDBRANCH  21  27
ENDBRANCH  15  17
ENDBRANCH   5  15
TORSDOF 7
ENDMDL
MODEL 8
REMARK VINA RESULT:      -7.1      1.919      2.809
REMARK  Name = 
REMARK  11 active torsions:
REMARK  status: ('A' for Active; 'I' for Inactive)
REMARK    1  A    between atoms: C_1  and  O_2
REMARK    2  A    between atoms: O_2  and  C_3
REMARK    3  A    between atoms: C_6  and  C_7
REMARK    4  A    between atoms: C_11  and  C_12
REMARK    5  A    between atoms: C_12  and  C_14
REMARK    6  A    between atoms: C_16  and  O_17
REMARK    7  A    between atoms: O_17  and  C_18
REMARK    8  A    between atoms: C_19  and  O_20
REMARK    9  A    between atoms: O_20  and  C_21
REMARK   10  A    between atoms: C_22  and  O_23
REMARK   11  A    between atoms: O_23  and  C_24
REMARK                            x       y       z     vdW  Elec       q    Type
REMARK                         _______ _______ _______ _____ _____    ______ ____
ROOT
ATOM      1  C   UNL     1       1.118   8.733  20.591  0.00  0.00    +0.000 A 
ATOM      2  C   UNL     1       0.881   8.822  21.963  0.00  0.00    +0.000 A 
ATOM      3  C   UNL     1       0.174   9.911  22.470  0.00  0.00    +0.000 A 
ATOM      4  C   UNL     1      -0.279  10.895  21.603  0.00  0.00    +0.000 A 
ATOM      5  C   UNL     1      -0.004  10.742  20.253  0.00  0.00    +0.000 A 
ATOM      6  N   UNL     1       0.689   9.696  19.741  0.00  0.00    +0.000 NA
ENDROOT
BRANCH   1  10
ATOM      7  C   UNL     1       3.173   5.394  18.791  0.00  0.00    +0.000 A 
ATOM      8  C   UNL     1       3.105   6.619  18.131  0.00  0.00    +0.000 A 
ATOM      9  C   UNL     1       2.442   7.706  18.711  0.00  0.00    +0.000 A 
ATOM     10  C   UNL     1       1.808   7.591  19.959  0.00  0.00    +0.000 A 
ATOM     11  C   UNL     1       1.879   6.340  20.604  0.00  0.00    +0.000 A 
ATOM     12  C   UNL     1       2.550   5.253  20.026  0.00  0.00    +0.000 A 
BRANCH   7  14
ATOM     13  C   UNL     1       4.769   3.654  18.887  0.00  0.00    +0.000 C 
ATOM     14  O   UNL     1       3.840   4.408  18.118  0.00  0.00    +0.000 OA
ENDBRANCH   7  14
ENDBRANCH   1  10
BRANCH   5  15
ATOM     15  C   UNL     1      -0.502  11.754  19.285  0.00  0.00    +0.000 C 
ATOM     16  O   UNL     1       0.252  12.607  18.836  0.00  0.00    +0.000 OA
BRANCH  15  17
ATOM     17  C   UNL     1      -1.921  11.739  18.843  0.00  0.00    +0.000 A 
ATOM     18  C   UNL     1      -2.899  12.240  19.700  0.00  0.00    +0.000 A 
ATOM     19  C   UNL     1      -4.234  12.277  19.291  0.00  0.00    +0.000 A 
ATOM     20  C   UNL     1      -4.603  11.765  18.023  0.00  0.00    +0.000 A 
ATOM     21  C   UNL     1      -3.620  11.207  17.181  0.00  0.00    +0.000 A 
ATOM     22  C   UNL     1      -2.288  11.202  17.605  0.00  0.00    +0.000 A 
BRANCH  19  23
ATOM     23  O   UNL     1      -5.240  12.791  20.077  0.00  0.00    +0.000 OA
ATOM     24  C   UNL     1      -5.067  12.650  21.485  0.00  0.00    +0.000 C 
ENDBRANCH  19  23
BRANCH  20  25
ATOM     25  O   UNL     1      -5.952  11.800  17.745  0.00  0.00    +0.000 OA
ATOM     26  C   UNL     1      -6.431  12.931  17.027  0.00  0.00    +0.000 C 
ENDBRANCH  20  25
BRANCH  21  27
ATOM     27  O   UNL     1      -4.012  10.660  15.986  0.00  0.00    +0.000 OA
ATOM     28  C   UNL     1      -3.019  10.437  14.991  0.00  0.00    +0.000 C 
ENDBRANCH  21  27
ENDBRANCH  15  17
ENDBRANCH   5  15
TORSDOF 7
ENDMDL
MODEL 9
REMARK VINA RESULT:      -7.1      3.173      8.835
REMARK  Name = 
REMARK  11 active torsions:
REMARK  status: ('A' for Active; 'I' for Inactive)
REMARK    1  A    between atoms: C_1  and  O_2
REMARK    2  A    between atoms: O_2  and  C_3
REMARK    3  A    between atoms: C_6  and  C_7
REMARK    4  A    between atoms: C_11  and  C_12
REMARK    5  A    between atoms: C_12  and  C_14
REMARK    6  A    between atoms: C_16  and  O_17
REMARK    7  A    between atoms: O_17  and  C_18
REMARK    8  A    between atoms: C_19  and  O_20
REMARK    9  A    between atoms: O_20  and  C_21
REMARK   10  A    between atoms: C_22  and  O_23
REMARK   11  A    between atoms: O_23  and  C_24
REMARK                            x       y       z     vdW  Elec       q    Type
REMARK                         _______ _______ _______ _____ _____    ______ ____
ROOT
ATOM      1  C   UNL     1       0.814  10.461  20.031  0.00  0.00    +0.000 A 
ATOM      2  C   UNL     1       0.614   9.866  21.278  0.00  0.00    +0.000 A 
ATOM      3  C   UNL     1       1.033   8.554  21.489  0.00  0.00    +0.000 A 
ATOM      4  C   UNL     1       1.637   7.854  20.454  0.00  0.00    +0.000 A 
ATOM      5  C   UNL     1       1.800   8.508  19.243  0.00  0.00    +0.000 A 
ATOM      6  N   UNL     1       1.391   9.779  19.014  0.00  0.00    +0.000 NA
ENDROOT
BRANCH   1  10
ATOM      7  C   UNL     1      -0.288  14.534  19.129  0.00  0.00    +0.000 A 
ATOM      8  C   UNL     1       0.938  14.025  18.706  0.00  0.00    +0.000 A 
ATOM      9  C   UNL     1       1.299  12.703  18.994  0.00  0.00    +0.000 A 
ATOM     10  C   UNL     1       0.453  11.861  19.733  0.00  0.00    +0.000 A 
ATOM     11  C   UNL     1      -0.776  12.400  20.162  0.00  0.00    +0.000 A 
ATOM     12  C   UNL     1      -1.142  13.721  19.867  0.00  0.00    +0.000 A 
BRANCH   7  14
ATOM     13  C   UNL     1       0.501  16.761  19.154  0.00  0.00    +0.000 C 
ATOM     14  O   UNL     1      -0.521  15.839  18.795  0.00  0.00    +0.000 OA
ENDBRANCH   7  14
ENDBRANCH   1  10
BRANCH   5  15
ATOM     15  C   UNL     1       2.474   7.808  18.118  0.00  0.00    +0.000 C 
ATOM     16  O   UNL     1       2.680   8.388  17.060  0.00  0.00    +0.000 OA
BRANCH  15  17
ATOM     17  C   UNL     1       2.916   6.397  18.266  0.00  0.00    +0.000 A 
ATOM     18  C   UNL     1       4.222   6.140  18.677  0.00  0.00    +0.000 A 
ATOM     19  C   UNL     1       4.649   4.823  18.866  0.00  0.00    +0.000 A 
ATOM     20  C   UNL     1       3.770   3.746  18.597  0.00  0.00    +0.000 A 
ATOM     21  C   UNL     1       2.466   4.007  18.127  0.00  0.00    +0.000 A 
ATOM     22  C   UNL     1       2.057   5.335  17.967  0.00  0.00    +0.000 A 
BRANCH  19  23
ATOM     23  O   UNL     1       5.914   4.506  19.304  0.00  0.00    +0.000 OA
ATOM     24  C   UNL     1       6.902   5.522  19.153  0.00  0.00    +0.000 C 
ENDBRANCH  19  23
BRANCH  20  25
ATOM     25  O   UNL     1       4.311   2.490  18.762  0.00  0.00    +0.000 OA
ATOM     26  C   UNL     1       4.338   1.971  20.087  0.00  0.00    +0.000 C 
ENDBRANCH  20  25
BRANCH  21  27
ATOM     27  O   UNL     1       1.656   2.947  17.812  0.00  0.00    +0.000 OA
ATOM     28  C   UNL     1       0.808   2.425  18.828  0.00  0.00    +0.000 C 
ENDBRANCH  21  27
ENDBRANCH  15  17
ENDBRANCH   5  15
TORSDOF 7
ENDMDL
