MODEL 1
REMARK VINA RESULT:      -8.6      0.000      0.000
REMARK  Name = 
REMARK  3 active torsions:
REMARK  status: ('A' for Active; 'I' for Inactive)
REMARK    1  A    between atoms: C_8  and  C_9
REMARK    2  A    between atoms: C_11  and  O_12
REMARK    3  A    between atoms: C_14  and  C_15
REMARK                            x       y       z     vdW  Elec       q    Type
REMARK                         _______ _______ _______ _____ _____    ______ ____
ROOT
ATOM      1  C   UNL     1       6.965   6.828  17.748  0.00  0.00    +0.000 C 
ATOM      2  C   UNL     1       6.742   5.578  17.356  0.00  0.00    +0.000 C 
ATOM      3  C   UNL     1       6.983   5.141  15.949  0.00  0.00    +0.000 C 
ATOM      4  O   UNL     1       7.696   5.683  15.130  0.00  0.00    +0.000 OA
ATOM      5  O   UNL     1       6.242   4.014  15.737  0.00  0.00    +0.000 OA
ATOM      6  C   UNL     1       5.386   3.809  16.870  0.00  0.00    +0.000 C 
ATOM      7  C   UNL     1       4.052   4.540  16.628  0.00  0.00    +0.000 C 
ATOM      8  C   UNL     1       3.075   4.671  17.851  0.00  0.00    +0.000 C 
ATOM      9  C   UNL     1       2.569   6.136  17.762  0.00  0.00    +0.000 C 
ATOM     10  C   UNL     1       1.929   3.665  17.632  0.00  0.00    +0.000 C 
ATOM     11  C   UNL     1       1.171   3.107  18.849  0.00  0.00    +0.000 C 
ATOM     12  C   UNL     1       1.852   3.151  20.217  0.00  0.00    +0.000 C 
ATOM     13  C   UNL     1       2.815   4.330  20.438  0.00  0.00    +0.000 C 
ATOM     14  C   UNL     1       2.082   5.580  20.891  0.00  0.00    +0.000 C 
ATOM     15  C   UNL     1       3.733   4.438  19.218  0.00  0.00    +0.000 C 
ATOM     16  O   UNL     1       4.563   3.263  19.318  0.00  0.00    +0.000 OA
ATOM     17  C   UNL     1       5.271   4.500  19.257  0.00  0.00    +0.000 C 
ATOM     18  C   UNL     1       6.157   4.402  18.049  0.00  0.00    +0.000 C 
ENDROOT
BRANCH  11  19
ATOM     19  O   UNL     1       0.855   1.721  18.601  0.00  0.00    +0.000 OA
ATOM     20  H   UNL     1       0.926   1.213  19.429  0.00  0.00    +0.000 HD
ENDBRANCH  11  19
TORSDOF 1
ENDMDL
MODEL 2
REMARK VINA RESULT:      -8.2      1.787      2.826
REMARK  Name = 
REMARK  3 active torsions:
REMARK  status: ('A' for Active; 'I' for Inactive)
REMARK    1  A    between atoms: C_8  and  C_9
REMARK    2  A    between atoms: C_11  and  O_12
REMARK    3  A    between atoms: C_14  and  C_15
REMARK                            x       y       z     vdW  Elec       q    Type
REMARK                         _______ _______ _______ _____ _____    ______ ____
ROOT
ATOM      1  C   UNL     1       5.201   4.298  15.266  0.00  0.00    +0.000 C 
ATOM      2  C   UNL     1       5.540   4.749  16.469  0.00  0.00    +0.000 C 
ATOM      3  C   UNL     1       6.947   4.687  16.964  0.00  0.00    +0.000 C 
ATOM      4  O   UNL     1       7.952   4.583  16.290  0.00  0.00    +0.000 OA
ATOM      5  O   UNL     1       6.907   4.755  18.327  0.00  0.00    +0.000 OA
ATOM      6  C   UNL     1       5.538   4.664  18.749  0.00  0.00    +0.000 C 
ATOM      7  C   UNL     1       5.181   3.182  18.972  0.00  0.00    +0.000 C 
ATOM      8  C   UNL     1       3.663   2.835  19.176  0.00  0.00    +0.000 C 
ATOM      9  C   UNL     1       3.457   1.562  18.312  0.00  0.00    +0.000 C 
ATOM     10  C   UNL     1       3.458   2.538  20.674  0.00  0.00    +0.000 C 
ATOM     11  C   UNL     1       2.073   2.760  21.306  0.00  0.00    +0.000 C 
ATOM     12  C   UNL     1       1.095   3.706  20.610  0.00  0.00    +0.000 C 
ATOM     13  C   UNL     1       1.213   3.768  19.077  0.00  0.00    +0.000 C 
ATOM     14  C   UNL     1       0.434   2.653  18.404  0.00  0.00    +0.000 C 
ATOM     15  C   UNL     1       2.692   3.931  18.714  0.00  0.00    +0.000 C 
ATOM     16  O   UNL     1       3.002   5.267  19.161  0.00  0.00    +0.000 OA
ATOM     17  C   UNL     1       3.273   5.011  17.784  0.00  0.00    +0.000 C 
ATOM     18  C   UNL     1       4.738   5.279  17.601  0.00  0.00    +0.000 C 
ENDROOT
BRANCH  11  19
ATOM     19  O   UNL     1       2.250   3.276  22.641  0.00  0.00    +0.000 OA
ATOM     20  H   UNL     1       2.061   4.230  22.654  0.00  0.00    +0.000 HD
ENDBRANCH  11  19
TORSDOF 1
ENDMDL
MODEL 3
REMARK VINA RESULT:      -8.1      1.889      2.737
REMARK  Name = 
REMARK  3 active torsions:
REMARK  status: ('A' for Active; 'I' for Inactive)
REMARK    1  A    between atoms: C_8  and  C_9
REMARK    2  A    between atoms: C_11  and  O_12
REMARK    3  A    between atoms: C_14  and  C_15
REMARK                            x       y       z     vdW  Elec       q    Type
REMARK                         _______ _______ _______ _____ _____    ______ ____
ROOT
ATOM      1  C   UNL     1       5.096   6.172  15.568  0.00  0.00    +0.000 C 
ATOM      2  C   UNL     1       5.417   6.314  16.850  0.00  0.00    +0.000 C 
ATOM      3  C   UNL     1       6.837   6.301  17.310  0.00  0.00    +0.000 C 
ATOM      4  O   UNL     1       7.823   6.519  16.636  0.00  0.00    +0.000 OA
ATOM      5  O   UNL     1       6.835   5.985  18.638  0.00  0.00    +0.000 OA
ATOM      6  C   UNL     1       5.505   5.604  19.016  0.00  0.00    +0.000 C 
ATOM      7  C   UNL     1       5.344   4.085  18.817  0.00  0.00    +0.000 C 
ATOM      8  C   UNL     1       3.889   3.501  18.915  0.00  0.00    +0.000 C 
ATOM      9  C   UNL     1       3.815   2.499  17.730  0.00  0.00    +0.000 C 
ATOM     10  C   UNL     1       3.775   2.778  20.270  0.00  0.00    +0.000 C 
ATOM     11  C   UNL     1       2.396   2.635  20.936  0.00  0.00    +0.000 C 
ATOM     12  C   UNL     1       1.283   3.600  20.529  0.00  0.00    +0.000 C 
ATOM     13  C   UNL     1       1.340   4.098  19.074  0.00  0.00    +0.000 C 
ATOM     14  C   UNL     1       0.684   3.120  18.116  0.00  0.00    +0.000 C 
ATOM     15  C   UNL     1       2.774   4.546  18.774  0.00  0.00    +0.000 C 
ATOM     16  O   UNL     1       2.928   5.735  19.575  0.00  0.00    +0.000 OA
ATOM     17  C   UNL     1       3.181   5.906  18.181  0.00  0.00    +0.000 C 
ATOM     18  C   UNL     1       4.594   6.402  18.083  0.00  0.00    +0.000 C 
ENDROOT
BRANCH  11  19
ATOM     19  O   UNL     1       2.553   2.781  22.363  0.00  0.00    +0.000 OA
ATOM     20  H   UNL     1       2.876   3.675  22.570  0.00  0.00    +0.000 HD
ENDBRANCH  11  19
TORSDOF 1
ENDMDL
MODEL 4
REMARK VINA RESULT:      -7.8      1.051      1.079
REMARK  Name = 
REMARK  3 active torsions:
REMARK  status: ('A' for Active; 'I' for Inactive)
REMARK    1  A    between atoms: C_8  and  C_9
REMARK    2  A    between atoms: C_11  and  O_12
REMARK    3  A    between atoms: C_14  and  C_15
REMARK                            x       y       z     vdW  Elec       q    Type
REMARK                         _______ _______ _______ _____ _____    ______ ____
ROOT
ATOM      1  C   UNL     1       7.116   5.937  18.975  0.00  0.00    +0.000 C 
ATOM      2  C   UNL     1       6.604   5.142  18.042  0.00  0.00    +0.000 C 
ATOM      3  C   UNL     1       6.645   5.502  16.594  0.00  0.00    +0.000 C 
ATOM      4  O   UNL     1       7.397   6.293  16.061  0.00  0.00    +0.000 OA
ATOM      5  O   UNL     1       5.667   4.787  15.965  0.00  0.00    +0.000 OA
ATOM      6  C   UNL     1       4.870   4.128  16.960  0.00  0.00    +0.000 C 
ATOM      7  C   UNL     1       3.709   5.056  17.365  0.00  0.00    +0.000 C 
ATOM      8  C   UNL     1       2.873   4.645  18.629  0.00  0.00    +0.000 C 
ATOM      9  C   UNL     1       2.686   5.982  19.397  0.00  0.00    +0.000 C 
ATOM     10  C   UNL     1       1.526   4.091  18.128  0.00  0.00    +0.000 C 
ATOM     11  C   UNL     1       0.755   3.080  18.994  0.00  0.00    +0.000 C 
ATOM     12  C   UNL     1       1.525   2.283  20.046  0.00  0.00    +0.000 C 
ATOM     13  C   UNL     1       2.731   3.006  20.671  0.00  0.00    +0.000 C 
ATOM     14  C   UNL     1       2.316   3.905  21.823  0.00  0.00    +0.000 C 
ATOM     15  C   UNL     1       3.562   3.622  19.542  0.00  0.00    +0.000 C 
ATOM     16  O   UNL     1       4.127   2.473  18.877  0.00  0.00    +0.000 OA
ATOM     17  C   UNL     1       5.076   3.434  19.339  0.00  0.00    +0.000 C 
ATOM     18  C   UNL     1       5.832   3.876  18.121  0.00  0.00    +0.000 C 
ENDROOT
BRANCH  11  19
ATOM     19  O   UNL     1       0.133   2.108  18.128  0.00  0.00    +0.000 OA
ATOM     20  H   UNL     1       0.793   1.454  17.838  0.00  0.00    +0.000 HD
ENDBRANCH  11  19
TORSDOF 1
ENDMDL
MODEL 5
REMARK VINA RESULT:      -7.4      1.865      5.546
REMARK  Name = 
REMARK  3 active torsions:
REMARK  status: ('A' for Active; 'I' for Inactive)
REMARK    1  A    between atoms: C_8  and  C_9
REMARK    2  A    between atoms: C_11  and  O_12
REMARK    3  A    between atoms: C_14  and  C_15
REMARK                            x       y       z     vdW  Elec       q    Type
REMARK                         _______ _______ _______ _____ _____    ______ ____
ROOT
ATOM      1  C   UNL     1       0.675   3.688  19.325  0.00  0.00    +0.000 C 
ATOM      2  C   UNL     1       1.728   2.963  19.686  0.00  0.00    +0.000 C 
ATOM      3  C   UNL     1       1.985   2.607  21.113  0.00  0.00    +0.000 C 
ATOM      4  O   UNL     1       1.175   2.594  22.018  0.00  0.00    +0.000 OA
ATOM      5  O   UNL     1       3.312   2.307  21.229  0.00  0.00    +0.000 OA
ATOM      6  C   UNL     1       3.964   2.635  19.994  0.00  0.00    +0.000 C 
ATOM      7  C   UNL     1       4.452   4.095  20.059  0.00  0.00    +0.000 C 
ATOM      8  C   UNL     1       4.954   4.742  18.719  0.00  0.00    +0.000 C 
ATOM      9  C   UNL     1       4.327   6.162  18.738  0.00  0.00    +0.000 C 
ATOM     10  C   UNL     1       6.492   4.805  18.787  0.00  0.00    +0.000 C 
ATOM     11  C   UNL     1       7.308   4.801  17.483  0.00  0.00    +0.000 C 
ATOM     12  C   UNL     1       6.656   4.248  16.216  0.00  0.00    +0.000 C 
ATOM     13  C   UNL     1       5.132   4.436  16.120  0.00  0.00    +0.000 C 
ATOM     14  C   UNL     1       4.765   5.803  15.573  0.00  0.00    +0.000 C 
ATOM     15  C   UNL     1       4.509   4.002  17.450  0.00  0.00    +0.000 C 
ATOM     16  O   UNL     1       4.703   2.573  17.460  0.00  0.00    +0.000 OA
ATOM     17  C   UNL     1       3.350   3.002  17.612  0.00  0.00    +0.000 C 
ATOM     18  C   UNL     1       2.890   2.439  18.925  0.00  0.00    +0.000 C 
ENDROOT
BRANCH  11  19
ATOM     19  O   UNL     1       8.508   4.027  17.689  0.00  0.00    +0.000 OA
ATOM     20  H   UNL     1       8.979   4.352  18.476  0.00  0.00    +0.000 HD
ENDBRANCH  11  19
TORSDOF 1
ENDMDL
MODEL 6
REMARK VINA RESULT:      -7.2      1.482      1.670
REMARK  Name = 
REMARK  3 active torsions:
REMARK  status: ('A' for Active; 'I' for Inactive)
REMARK    1  A    between atoms: C_8  and  C_9
REMARK    2  A    between atoms: C_11  and  O_12
REMARK    3  A    between atoms: C_14  and  C_15
REMARK                            x       y       z     vdW  Elec       q    Type
REMARK                         _______ _______ _______ _____ _____    ______ ____
ROOT
ATOM      1  C   UNL     1       5.101   6.630  15.698  0.00  0.00    +0.000 C 
ATOM      2  C   UNL     1       5.367   5.425  16.189  0.00  0.00    +0.000 C 
ATOM      3  C   UNL     1       5.614   4.251  15.299  0.00  0.00    +0.000 C 
ATOM      4  O   UNL     1       5.951   4.279  14.133  0.00  0.00    +0.000 OA
ATOM      5  O   UNL     1       5.379   3.124  16.033  0.00  0.00    +0.000 OA
ATOM      6  C   UNL     1       4.807   3.508  17.292  0.00  0.00    +0.000 C 
ATOM      7  C   UNL     1       3.274   3.546  17.154  0.00  0.00    +0.000 C 
ATOM      8  C   UNL     1       2.466   4.199  18.331  0.00  0.00    +0.000 C 
ATOM      9  C   UNL     1       1.399   5.066  17.609  0.00  0.00    +0.000 C 
ATOM     10  C   UNL     1       1.813   3.055  19.131  0.00  0.00    +0.000 C 
ATOM     11  C   UNL     1       1.484   3.265  20.619  0.00  0.00    +0.000 C 
ATOM     12  C   UNL     1       2.230   4.357  21.385  0.00  0.00    +0.000 C 
ATOM     13  C   UNL     1       2.645   5.583  20.553  0.00  0.00    +0.000 C 
ATOM     14  C   UNL     1       1.519   6.594  20.436  0.00  0.00    +0.000 C 
ATOM     15  C   UNL     1       3.304   5.087  19.262  0.00  0.00    +0.000 C 
ATOM     16  O   UNL     1       4.546   4.515  19.718  0.00  0.00    +0.000 OA
ATOM     17  C   UNL     1       4.676   5.534  18.728  0.00  0.00    +0.000 C 
ATOM     18  C   UNL     1       5.390   4.892  17.574  0.00  0.00    +0.000 C 
ENDROOT
BRANCH  11  19
ATOM     19  O   UNL     1       1.736   2.033  21.327  0.00  0.00    +0.000 OA
ATOM     20  H   UNL     1       1.174   1.987  22.120  0.00  0.00    +0.000 HD
ENDBRANCH  11  19
TORSDOF 1
ENDMDL
MODEL 7
REMARK VINA RESULT:      -7.2      1.641      2.047
REMARK  Name = 
REMARK  3 active torsions:
REMARK  status: ('A' for Active; 'I' for Inactive)
REMARK    1  A    between atoms: C_8  and  C_9
REMARK    2  A    between atoms: C_11  and  O_12
REMARK    3  A    between atoms: C_14  and  C_15
REMARK                            x       y       z     vdW  Elec       q    Type
REMARK                         _______ _______ _______ _____ _____    ______ ____
ROOT
ATOM      1  C   UNL     1       4.990   6.738  15.468  0.00  0.00    +0.000 C 
ATOM      2  C   UNL     1       5.791   6.093  16.309  0.00  0.00    +0.000 C 
ATOM      3  C   UNL     1       6.938   5.269  15.826  0.00  0.00    +0.000 C 
ATOM      4  O   UNL     1       7.491   5.351  14.748  0.00  0.00    +0.000 OA
ATOM      5  O   UNL     1       7.254   4.384  16.817  0.00  0.00    +0.000 OA
ATOM      6  C   UNL     1       6.249   4.463  17.838  0.00  0.00    +0.000 C 
ATOM      7  C   UNL     1       5.128   3.457  17.516  0.00  0.00    +0.000 C 
ATOM      8  C   UNL     1       3.805   3.567  18.356  0.00  0.00    +0.000 C 
ATOM      9  C   UNL     1       2.682   3.400  17.296  0.00  0.00    +0.000 C 
ATOM     10  C   UNL     1       3.804   2.403  19.365  0.00  0.00    +0.000 C 
ATOM     11  C   UNL     1       3.024   2.546  20.682  0.00  0.00    +0.000 C 
ATOM     12  C   UNL     1       2.695   3.950  21.189  0.00  0.00    +0.000 C 
ATOM     13  C   UNL     1       2.480   5.013  20.097  0.00  0.00    +0.000 C 
ATOM     14  C   UNL     1       1.058   4.997  19.566  0.00  0.00    +0.000 C 
ATOM     15  C   UNL     1       3.626   4.905  19.087  0.00  0.00    +0.000 C 
ATOM     16  O   UNL     1       4.772   5.369  19.830  0.00  0.00    +0.000 OA
ATOM     17  C   UNL     1       4.515   6.069  18.613  0.00  0.00    +0.000 C 
ATOM     18  C   UNL     1       5.754   5.908  17.782  0.00  0.00    +0.000 C 
ENDROOT
BRANCH  11  19
ATOM     19  O   UNL     1       3.771   1.903  21.736  0.00  0.00    +0.000 OA
ATOM     20  H   UNL     1       4.723   1.946  21.539  0.00  0.00    +0.000 HD
ENDBRANCH  11  19
TORSDOF 1
ENDMDL
MODEL 8
REMARK VINA RESULT:      -7.1      1.636      5.296
REMARK  Name = 
REMARK  3 active torsions:
REMARK  status: ('A' for Active; 'I' for Inactive)
REMARK    1  A    between atoms: C_8  and  C_9
REMARK    2  A    between atoms: C_11  and  O_12
REMARK    3  A    between atoms: C_14  and  C_15
REMARK                            x       y       z     vdW  Elec       q    Type
REMARK                         _______ _______ _______ _____ _____    ______ ____
ROOT
ATOM      1  C   UNL     1       1.865   5.348  21.188  0.00  0.00    +0.000 C 
ATOM      2  C   UNL     1       1.899   4.312  20.357  0.00  0.00    +0.000 C 
ATOM      3  C   UNL     1       1.887   2.905  20.856  0.00  0.00    +0.000 C 
ATOM      4  O   UNL     1       1.504   2.520  21.942  0.00  0.00    +0.000 OA
ATOM      5  O   UNL     1       2.402   2.115  19.868  0.00  0.00    +0.000 OA
ATOM      6  C   UNL     1       2.923   2.960  18.832  0.00  0.00    +0.000 C 
ATOM      7  C   UNL     1       4.401   3.269  19.135  0.00  0.00    +0.000 C 
ATOM      8  C   UNL     1       5.089   4.389  18.277  0.00  0.00    +0.000 C 
ATOM      9  C   UNL     1       5.901   5.206  19.319  0.00  0.00    +0.000 C 
ATOM     10  C   UNL     1       6.016   3.689  17.265  0.00  0.00    +0.000 C 
ATOM     11  C   UNL     1       6.350   4.388  15.936  0.00  0.00    +0.000 C 
ATOM     12  C   UNL     1       5.410   5.481  15.428  0.00  0.00    +0.000 C 
ATOM     13  C   UNL     1       4.694   6.296  16.519  0.00  0.00    +0.000 C 
ATOM     14  C   UNL     1       5.556   7.437  17.030  0.00  0.00    +0.000 C 
ATOM     15  C   UNL     1       4.111   5.320  17.546  0.00  0.00    +0.000 C 
ATOM     16  O   UNL     1       3.050   4.666  16.821  0.00  0.00    +0.000 OA
ATOM     17  C   UNL     1       2.652   5.301  18.035  0.00  0.00    +0.000 C 
ATOM     18  C   UNL     1       2.055   4.216  18.884  0.00  0.00    +0.000 C 
ENDROOT
BRANCH  11  19
ATOM     19  O   UNL     1       6.413   3.395  14.892  0.00  0.00    +0.000 OA
ATOM     20  H   UNL     1       6.056   2.550  15.219  0.00  0.00    +0.000 HD
ENDBRANCH  11  19
TORSDOF 1
ENDMDL
MODEL 9
REMARK VINA RESULT:      -7.0      1.720      2.258
REMARK  Name = 
REMARK  3 active torsions:
REMARK  status: ('A' for Active; 'I' for Inactive)
REMARK    1  A    between atoms: C_8  and  C_9
REMARK    2  A    between atoms: C_11  and  O_12
REMARK    3  A    between atoms: C_14  and  C_15
REMARK                            x       y       z     vdW  Elec       q    Type
REMARK                         _______ _______ _______ _____ _____    ______ ____
ROOT
ATOM      1  C   UNL     1       7.963   5.927  19.157  0.00  0.00    +0.000 C 
ATOM      2  C   UNL     1       7.286   6.052  18.021  0.00  0.00    +0.000 C 
ATOM      3  C   UNL     1       7.258   7.337  17.261  0.00  0.00    +0.000 C 
ATOM      4  O   UNL     1       8.057   8.248  17.340  0.00  0.00    +0.000 OA
ATOM      5  O   UNL     1       6.153   7.316  16.459  0.00  0.00    +0.000 OA
ATOM      6  C   UNL     1       5.362   6.169  16.801  0.00  0.00    +0.000 C 
ATOM      7  C   UNL     1       4.359   6.563  17.902  0.00  0.00    +0.000 C 
ATOM      8  C   UNL     1       3.580   5.398  18.611  0.00  0.00    +0.000 C 
ATOM      9  C   UNL     1       3.619   5.790  20.113  0.00  0.00    +0.000 C 
ATOM     10  C   UNL     1       2.140   5.409  18.064  0.00  0.00    +0.000 C 
ATOM     11  C   UNL     1       1.321   4.107  18.064  0.00  0.00    +0.000 C 
ATOM     12  C   UNL     1       2.068   2.774  18.125  0.00  0.00    +0.000 C 
ATOM     13  C   UNL     1       3.399   2.797  18.897  0.00  0.00    +0.000 C 
ATOM     14  C   UNL     1       3.189   2.616  20.390  0.00  0.00    +0.000 C 
ATOM     15  C   UNL     1       4.208   4.009  18.427  0.00  0.00    +0.000 C 
ATOM     16  O   UNL     1       4.574   3.664  17.075  0.00  0.00    +0.000 OA
ATOM     17  C   UNL     1       5.667   3.977  17.938  0.00  0.00    +0.000 C 
ATOM     18  C   UNL     1       6.373   5.134  17.294  0.00  0.00    +0.000 C 
ENDROOT
BRANCH  11  19
ATOM     19  O   UNL     1       0.519   4.064  16.866  0.00  0.00    +0.000 OA
ATOM     20  H   UNL     1      -0.307   3.579  17.039  0.00  0.00    +0.000 HD
ENDBRANCH  11  19
TORSDOF 1
ENDMDL
