MODEL 1
REMARK VINA RESULT:      -8.2      0.000      0.000
REMARK  Name = 
REMARK  5 active torsions:
REMARK  status: ('A' for Active; 'I' for Inactive)
REMARK    1  A    between atoms: C_1  and  N_2
REMARK    2  A    between atoms: C_6  and  C_7
REMARK    3  A    between atoms: N_20  and  C_21
REMARK    4  A    between atoms: C_21  and  C_22
REMARK    5  A    between atoms: C_22  and  N_23
REMARK                            x       y       z     vdW  Elec       q    Type
REMARK                         _______ _______ _______ _____ _____    ______ ____
ROOT
ATOM      1  C   UNL     1      -6.181  14.294  21.514  0.00  0.00    +0.000 C 
ATOM      2  N   UNL     1      -5.545  13.405  20.568  0.00  0.00    +0.000 N 
ATOM      3  N   UNL     1      -6.294  13.005  19.514  0.00  0.00    +0.000 NA
ATOM      4  C   UNL     1      -5.439  12.311  18.778  0.00  0.00    +0.000 A 
ATOM      5  C   UNL     1      -4.154  12.231  19.359  0.00  0.00    +0.000 A 
ATOM      6  C   UNL     1      -4.227  12.951  20.547  0.00  0.00    +0.000 A 
ATOM      7  C   UNL     1      -3.071  11.541  18.676  0.00  0.00    +0.000 A 
ATOM      8  N   UNL     1      -1.961  11.196  19.355  0.00  0.00    +0.000 NA
ATOM      9  C   UNL     1      -0.999  10.570  18.665  0.00  0.00    +0.000 A 
ATOM     10  N   UNL     1       0.124  10.137  19.375  0.00  0.00    +0.000 N 
ATOM     11  C   UNL     1       0.982   9.154  19.032  0.00  0.00    +0.000 A 
ATOM     12  C   UNL     1       1.246   8.715  17.710  0.00  0.00    +0.000 A 
ATOM     13  C   UNL     1       2.058   7.621  17.833  0.00  0.00    +0.000 A 
ATOM     14  N   UNL     1       2.290   7.493  19.165  0.00  0.00    +0.000 N 
ATOM     15  N   UNL     1       1.686   8.436  19.916  0.00  0.00    +0.000 NA
ATOM     16  N   UNL     1      -1.097  10.311  17.349  0.00  0.00    +0.000 NA
ATOM     17  C   UNL     1      -2.220  10.646  16.706  0.00  0.00    +0.000 A 
ATOM     18  C   UNL     1      -3.275  11.249  17.331  0.00  0.00    +0.000 A 
ATOM     19  C   UNL     1      -4.522  11.641  16.581  0.00  0.00    +0.000 C 
ATOM     20  C   UNL     1      -5.775  11.685  17.474  0.00  0.00    +0.000 C 
ATOM     21  H   UNL     1      -0.012  10.330  20.359  0.00  0.00    +0.000 HD
ENDROOT
BRANCH   6  22
ATOM     22  C   UNL     1      -3.206  13.262  21.569  0.00  0.00    +0.000 A 
ATOM     23  C   UNL     1      -2.409  14.412  21.460  0.00  0.00    +0.000 A 
ATOM     24  C   UNL     1      -1.370  14.670  22.361  0.00  0.00    +0.000 A 
ATOM     25  C   UNL     1      -1.151  13.818  23.436  0.00  0.00    +0.000 A 
ATOM     26  C   UNL     1      -1.960  12.698  23.595  0.00  0.00    +0.000 A 
ATOM     27  C   UNL     1      -2.958  12.411  22.656  0.00  0.00    +0.000 A 
ENDBRANCH   6  22
BRANCH  14  28
ATOM     28  C   UNL     1       3.179   6.520  19.770  0.00  0.00    +0.000 C 
BRANCH  28  29
ATOM     29  C   UNL     1       3.112   5.137  19.109  0.00  0.00    +0.000 C 
BRANCH  29  30
ATOM     30  N   UNL     1       2.935   4.037  20.084  0.00  0.00    +0.000 NA
ATOM     31  C   UNL     1       1.551   3.511  20.124  0.00  0.00    +0.000 C 
ATOM     32  C   UNL     1       1.125   2.776  18.836  0.00  0.00    +0.000 C 
ATOM     33  N   UNL     1       2.012   1.646  18.526  0.00  0.00    +0.000 NA
ATOM     34  C   UNL     1       3.421   2.078  18.522  0.00  0.00    +0.000 C 
ATOM     35  C   UNL     1       3.831   2.900  19.768  0.00  0.00    +0.000 C 
ATOM     36  H   UNL     1       1.772   1.268  17.612  0.00  0.00    +0.000 HD
ENDBRANCH  29  30
ENDBRANCH  28  29
ENDBRANCH  14  28
TORSDOF 4
ENDMDL
MODEL 2
REMARK VINA RESULT:      -7.8      0.659      1.203
REMARK  Name = 
REMARK  5 active torsions:
REMARK  status: ('A' for Active; 'I' for Inactive)
REMARK    1  A    between atoms: C_1  and  N_2
REMARK    2  A    between atoms: C_6  and  C_7
REMARK    3  A    between atoms: N_20  and  C_21
REMARK    4  A    between atoms: C_21  and  C_22
REMARK    5  A    between atoms: C_22  and  N_23
REMARK                            x       y       z     vdW  Elec       q    Type
REMARK                         _______ _______ _______ _____ _____    ______ ____
ROOT
ATOM      1  C   UNL     1      -6.529  14.302  21.800  0.00  0.00    +0.000 C 
ATOM      2  N   UNL     1      -5.887  13.455  20.820  0.00  0.00    +0.000 N 
ATOM      3  N   UNL     1      -6.652  13.040  19.783  0.00  0.00    +0.000 NA
ATOM      4  C   UNL     1      -5.793  12.394  19.010  0.00  0.00    +0.000 A 
ATOM      5  C   UNL     1      -4.488  12.360  19.549  0.00  0.00    +0.000 A 
ATOM      6  C   UNL     1      -4.552  13.058  20.750  0.00  0.00    +0.000 A 
ATOM      7  C   UNL     1      -3.399  11.726  18.820  0.00  0.00    +0.000 A 
ATOM      8  N   UNL     1      -2.254  11.419  19.459  0.00  0.00    +0.000 NA
ATOM      9  C   UNL     1      -1.290  10.845  18.728  0.00  0.00    +0.000 A 
ATOM     10  N   UNL     1      -0.127  10.450  19.395  0.00  0.00    +0.000 N 
ATOM     11  C   UNL     1       0.760   9.510  19.009  0.00  0.00    +0.000 A 
ATOM     12  C   UNL     1       1.000   9.102  17.672  0.00  0.00    +0.000 A 
ATOM     13  C   UNL     1       1.860   8.042  17.752  0.00  0.00    +0.000 A 
ATOM     14  N   UNL     1       2.141   7.903  19.074  0.00  0.00    +0.000 N 
ATOM     15  N   UNL     1       1.522   8.809  19.859  0.00  0.00    +0.000 NA
ATOM     16  N   UNL     1      -1.419  10.602  17.411  0.00  0.00    +0.000 NA
ATOM     17  C   UNL     1      -2.575  10.898  16.810  0.00  0.00    +0.000 A 
ATOM     18  C   UNL     1      -3.634  11.446  17.478  0.00  0.00    +0.000 A 
ATOM     19  C   UNL     1      -4.920  11.796  16.774  0.00  0.00    +0.000 C 
ATOM     20  C   UNL     1      -6.144  11.773  17.706  0.00  0.00    +0.000 C 
ATOM     21  H   UNL     1      -0.239  10.622  20.386  0.00  0.00    +0.000 HD
ENDROOT
BRANCH   6  22
ATOM     22  C   UNL     1      -3.513  13.397  21.744  0.00  0.00    +0.000 A 
ATOM     23  C   UNL     1      -3.269  12.557  22.841  0.00  0.00    +0.000 A 
ATOM     24  C   UNL     1      -2.361  12.911  23.846  0.00  0.00    +0.000 A 
ATOM     25  C   UNL     1      -1.624  14.084  23.737  0.00  0.00    +0.000 A 
ATOM     26  C   UNL     1      -1.810  14.909  22.633  0.00  0.00    +0.000 A 
ATOM     27  C   UNL     1      -2.764  14.580  21.662  0.00  0.00    +0.000 A 
ENDBRANCH   6  22
BRANCH  14  28
ATOM     28  C   UNL     1       3.089   6.961  19.635  0.00  0.00    +0.000 C 
BRANCH  28  29
ATOM     29  C   UNL     1       3.157   5.634  18.868  0.00  0.00    +0.000 C 
BRANCH  29  30
ATOM     30  N   UNL     1       1.934   4.812  19.021  0.00  0.00    +0.000 NA
ATOM     31  C   UNL     1       1.684   3.918  17.868  0.00  0.00    +0.000 C 
ATOM     32  C   UNL     1       2.726   2.790  17.716  0.00  0.00    +0.000 C 
ATOM     33  N   UNL     1       2.803   1.944  18.916  0.00  0.00    +0.000 NA
ATOM     34  C   UNL     1       2.996   2.769  20.122  0.00  0.00    +0.000 C 
ATOM     35  C   UNL     1       2.015   3.962  20.232  0.00  0.00    +0.000 C 
ATOM     36  H   UNL     1       3.581   1.294  18.823  0.00  0.00    +0.000 HD
ENDBRANCH  29  30
ENDBRANCH  28  29
ENDBRANCH  14  28
TORSDOF 4
ENDMDL
MODEL 3
REMARK VINA RESULT:      -7.7      1.603      2.070
REMARK  Name = 
REMARK  5 active torsions:
REMARK  status: ('A' for Active; 'I' for Inactive)
REMARK    1  A    between atoms: C_1  and  N_2
REMARK    2  A    between atoms: C_6  and  C_7
REMARK    3  A    between atoms: N_20  and  C_21
REMARK    4  A    between atoms: C_21  and  C_22
REMARK    5  A    between atoms: C_22  and  N_23
REMARK                            x       y       z     vdW  Elec       q    Type
REMARK                         _______ _______ _______ _____ _____    ______ ____
ROOT
ATOM      1  C   UNL     1      -6.245  14.325  21.760  0.00  0.00    +0.000 C 
ATOM      2  N   UNL     1      -5.629  13.459  20.781  0.00  0.00    +0.000 N 
ATOM      3  N   UNL     1      -6.410  13.056  19.751  0.00  0.00    +0.000 NA
ATOM      4  C   UNL     1      -5.571  12.387  18.976  0.00  0.00    +0.000 A 
ATOM      5  C   UNL     1      -4.263  12.326  19.506  0.00  0.00    +0.000 A 
ATOM      6  C   UNL     1      -4.304  13.031  20.704  0.00  0.00    +0.000 A 
ATOM      7  C   UNL     1      -3.194  11.665  18.774  0.00  0.00    +0.000 A 
ATOM      8  N   UNL     1      -2.051  11.335  19.406  0.00  0.00    +0.000 NA
ATOM      9  C   UNL     1      -1.105  10.736  18.673  0.00  0.00    +0.000 A 
ATOM     10  N   UNL     1       0.052  10.318  19.334  0.00  0.00    +0.000 N 
ATOM     11  C   UNL     1       0.916   9.356  18.947  0.00  0.00    +0.000 A 
ATOM     12  C   UNL     1       1.137   8.936  17.611  0.00  0.00    +0.000 A 
ATOM     13  C   UNL     1       1.974   7.858  17.690  0.00  0.00    +0.000 A 
ATOM     14  N   UNL     1       2.260   7.719  19.012  0.00  0.00    +0.000 N 
ATOM     15  N   UNL     1       1.667   8.643  19.796  0.00  0.00    +0.000 NA
ATOM     16  N   UNL     1      -1.249  10.489  17.358  0.00  0.00    +0.000 NA
ATOM     17  C   UNL     1      -2.402  10.808  16.762  0.00  0.00    +0.000 A 
ATOM     18  C   UNL     1      -3.444  11.383  17.435  0.00  0.00    +0.000 A 
ATOM     19  C   UNL     1      -4.726  11.758  16.737  0.00  0.00    +0.000 C 
ATOM     20  C   UNL     1      -5.944  11.767  17.678  0.00  0.00    +0.000 C 
ATOM     21  H   UNL     1      -0.049  10.498  20.324  0.00  0.00    +0.000 HD
ENDROOT
BRANCH   6  22
ATOM     22  C   UNL     1      -3.250  13.352  21.690  0.00  0.00    +0.000 A 
ATOM     23  C   UNL     1      -2.586  14.588  21.653  0.00  0.00    +0.000 A 
ATOM     24  C   UNL     1      -1.518  14.870  22.512  0.00  0.00    +0.000 A 
ATOM     25  C   UNL     1      -1.137  13.946  23.477  0.00  0.00    +0.000 A 
ATOM     26  C   UNL     1      -1.813  12.734  23.567  0.00  0.00    +0.000 A 
ATOM     27  C   UNL     1      -2.840  12.432  22.665  0.00  0.00    +0.000 A 
ENDBRANCH   6  22
BRANCH  14  28
ATOM     28  C   UNL     1       3.191   6.759  19.571  0.00  0.00    +0.000 C 
BRANCH  28  29
ATOM     29  C   UNL     1       3.625   5.677  18.573  0.00  0.00    +0.000 C 
BRANCH  29  30
ATOM     30  N   UNL     1       5.086   5.656  18.339  0.00  0.00    +0.000 NA
ATOM     31  C   UNL     1       5.566   4.381  17.759  0.00  0.00    +0.000 C 
ATOM     32  C   UNL     1       5.078   4.128  16.317  0.00  0.00    +0.000 C 
ATOM     33  N   UNL     1       5.482   5.204  15.401  0.00  0.00    +0.000 NA
ATOM     34  C   UNL     1       5.088   6.518  15.936  0.00  0.00    +0.000 C 
ATOM     35  C   UNL     1       5.491   6.742  17.415  0.00  0.00    +0.000 C 
ATOM     36  H   UNL     1       5.039   5.061  14.495  0.00  0.00    +0.000 HD
ENDBRANCH  29  30
ENDBRANCH  28  29
ENDBRANCH  14  28
TORSDOF 4
ENDMDL
MODEL 4
REMARK VINA RESULT:      -7.6      4.809      7.592
REMARK  Name = 
REMARK  5 active torsions:
REMARK  status: ('A' for Active; 'I' for Inactive)
REMARK    1  A    between atoms: C_1  and  N_2
REMARK    2  A    between atoms: C_6  and  C_7
REMARK    3  A    between atoms: N_20  and  C_21
REMARK    4  A    between atoms: C_21  and  C_22
REMARK    5  A    between atoms: C_22  and  N_23
REMARK                            x       y       z     vdW  Elec       q    Type
REMARK                         _______ _______ _______ _____ _____    ______ ____
ROOT
ATOM      1  C   UNL     1      -6.851  11.188  18.533  0.00  0.00    +0.000 C 
ATOM      2  N   UNL     1      -5.757  11.762  19.282  0.00  0.00    +0.000 N 
ATOM      3  N   UNL     1      -6.069  12.337  20.467  0.00  0.00    +0.000 NA
ATOM      4  C   UNL     1      -4.888  12.665  20.968  0.00  0.00    +0.000 A 
ATOM      5  C   UNL     1      -3.817  12.337  20.107  0.00  0.00    +0.000 A 
ATOM      6  C   UNL     1      -4.394  11.745  18.989  0.00  0.00    +0.000 A 
ATOM      7  C   UNL     1      -2.440  12.588  20.505  0.00  0.00    +0.000 A 
ATOM      8  N   UNL     1      -1.461  12.572  19.580  0.00  0.00    +0.000 NA
ATOM      9  C   UNL     1      -0.216  12.802  20.014  0.00  0.00    +0.000 A 
ATOM     10  N   UNL     1       0.797  12.867  19.054  0.00  0.00    +0.000 N 
ATOM     11  C   UNL     1       1.992  13.485  19.164  0.00  0.00    +0.000 A 
ATOM     12  C   UNL     1       2.679  13.743  20.378  0.00  0.00    +0.000 A 
ATOM     13  C   UNL     1       3.764  14.504  20.040  0.00  0.00    +0.000 A 
ATOM     14  N   UNL     1       3.721  14.614  18.687  0.00  0.00    +0.000 N 
ATOM     15  N   UNL     1       2.680  13.968  18.122  0.00  0.00    +0.000 NA
ATOM     16  N   UNL     1       0.078  13.012  21.310  0.00  0.00    +0.000 NA
ATOM     17  C   UNL     1      -0.917  13.043  22.202  0.00  0.00    +0.000 A 
ATOM     18  C   UNL     1      -2.226  12.863  21.852  0.00  0.00    +0.000 A 
ATOM     19  C   UNL     1      -3.330  12.876  22.877  0.00  0.00    +0.000 C 
ATOM     20  C   UNL     1      -4.690  13.302  22.295  0.00  0.00    +0.000 C 
ATOM     21  H   UNL     1       0.388  12.781  18.134  0.00  0.00    +0.000 HD
ENDROOT
BRANCH   6  22
ATOM     22  C   UNL     1      -3.796  11.159  17.770  0.00  0.00    +0.000 A 
ATOM     23  C   UNL     1      -4.206  11.581  16.497  0.00  0.00    +0.000 A 
ATOM     24  C   UNL     1      -3.726  10.969  15.334  0.00  0.00    +0.000 A 
ATOM     25  C   UNL     1      -2.768   9.966  15.418  0.00  0.00    +0.000 A 
ATOM     26  C   UNL     1      -2.308   9.564  16.668  0.00  0.00    +0.000 A 
ATOM     27  C   UNL     1      -2.837  10.137  17.830  0.00  0.00    +0.000 A 
ENDBRANCH   6  22
BRANCH  14  28
ATOM     28  C   UNL     1       4.727  15.259  17.867  0.00  0.00    +0.000 C 
BRANCH  28  29
ATOM     29  C   UNL     1       6.057  14.496  17.819  0.00  0.00    +0.000 C 
BRANCH  29  30
ATOM     30  N   UNL     1       7.236  15.372  18.006  0.00  0.00    +0.000 NA
ATOM     31  C   UNL     1       7.206  16.126  19.281  0.00  0.00    +0.000 C 
ATOM     32  C   UNL     1       7.354  15.237  20.534  0.00  0.00    +0.000 C 
ATOM     33  N   UNL     1       8.601  14.459  20.515  0.00  0.00    +0.000 NA
ATOM     34  C   UNL     1       8.733  13.720  19.248  0.00  0.00    +0.000 C 
ATOM     35  C   UNL     1       8.490  14.585  17.987  0.00  0.00    +0.000 C 
ATOM     36  H   UNL     1       8.601  13.800  21.292  0.00  0.00    +0.000 HD
ENDBRANCH  29  30
ENDBRANCH  28  29
ENDBRANCH  14  28
TORSDOF 4
ENDMDL
MODEL 5
REMARK VINA RESULT:      -7.6      0.740      1.111
REMARK  Name = 
REMARK  5 active torsions:
REMARK  status: ('A' for Active; 'I' for Inactive)
REMARK    1  A    between atoms: C_1  and  N_2
REMARK    2  A    between atoms: C_6  and  C_7
REMARK    3  A    between atoms: N_20  and  C_21
REMARK    4  A    between atoms: C_21  and  C_22
REMARK    5  A    between atoms: C_22  and  N_23
REMARK                            x       y       z     vdW  Elec       q    Type
REMARK                         _______ _______ _______ _____ _____    ______ ____
ROOT
ATOM      1  C   UNL     1      -5.818  14.487  21.302  0.00  0.00    +0.000 C 
ATOM      2  N   UNL     1      -5.246  13.491  20.424  0.00  0.00    +0.000 N 
ATOM      3  N   UNL     1      -6.056  12.996  19.459  0.00  0.00    +0.000 NA
ATOM      4  C   UNL     1      -5.252  12.211  18.759  0.00  0.00    +0.000 A 
ATOM      5  C   UNL     1      -3.938  12.170  19.277  0.00  0.00    +0.000 A 
ATOM      6  C   UNL     1      -3.937  13.012  20.383  0.00  0.00    +0.000 A 
ATOM      7  C   UNL     1      -2.903  11.390  18.615  0.00  0.00    +0.000 A 
ATOM      8  N   UNL     1      -1.762  11.098  19.269  0.00  0.00    +0.000 NA
ATOM      9  C   UNL     1      -0.848  10.385  18.600  0.00  0.00    +0.000 A 
ATOM     10  N   UNL     1       0.306  10.008  19.293  0.00  0.00    +0.000 N 
ATOM     11  C   UNL     1       1.131   8.979  19.012  0.00  0.00    +0.000 A 
ATOM     12  C   UNL     1       1.318   8.397  17.732  0.00  0.00    +0.000 A 
ATOM     13  C   UNL     1       2.121   7.307  17.929  0.00  0.00    +0.000 A 
ATOM     14  N   UNL     1       2.423   7.316  19.254  0.00  0.00    +0.000 N 
ATOM     15  N   UNL     1       1.873   8.345  19.930  0.00  0.00    +0.000 NA
ATOM     16  N   UNL     1      -1.020   9.989  17.326  0.00  0.00    +0.000 NA
ATOM     17  C   UNL     1      -2.171  10.275  16.710  0.00  0.00    +0.000 A 
ATOM     18  C   UNL     1      -3.183  10.961  17.322  0.00  0.00    +0.000 A 
ATOM     19  C   UNL     1      -4.464  11.294  16.601  0.00  0.00    +0.000 C 
ATOM     20  C   UNL     1      -5.666  11.456  17.548  0.00  0.00    +0.000 C 
ATOM     21  H   UNL     1       0.227  10.308  20.255  0.00  0.00    +0.000 HD
ENDROOT
BRANCH   6  22
ATOM     22  C   UNL     1      -2.858  13.411  21.311  0.00  0.00    +0.000 A 
ATOM     23  C   UNL     1      -2.831  12.931  22.629  0.00  0.00    +0.000 A 
ATOM     24  C   UNL     1      -1.877  13.376  23.551  0.00  0.00    +0.000 A 
ATOM     25  C   UNL     1      -0.882  14.260  23.152  0.00  0.00    +0.000 A 
ATOM     26  C   UNL     1      -0.857  14.712  21.837  0.00  0.00    +0.000 A 
ATOM     27  C   UNL     1      -1.850  14.312  20.936  0.00  0.00    +0.000 A 
ENDBRANCH   6  22
BRANCH  14  28
ATOM     28  C   UNL     1       3.331   6.397  19.912  0.00  0.00    +0.000 C 
BRANCH  28  29
ATOM     29  C   UNL     1       4.099   5.495  18.937  0.00  0.00    +0.000 C 
BRANCH  29  30
ATOM     30  N   UNL     1       3.953   4.054  19.242  0.00  0.00    +0.000 NA
ATOM     31  C   UNL     1       2.725   3.741  20.009  0.00  0.00    +0.000 C 
ATOM     32  C   UNL     1       1.421   3.963  19.214  0.00  0.00    +0.000 C 
ATOM     33  N   UNL     1       1.382   3.162  17.982  0.00  0.00    +0.000 NA
ATOM     34  C   UNL     1       2.602   3.375  17.186  0.00  0.00    +0.000 C 
ATOM     35  C   UNL     1       3.914   3.250  17.999  0.00  0.00    +0.000 C 
ATOM     36  H   UNL     1       0.568   3.427  17.432  0.00  0.00    +0.000 HD
ENDBRANCH  29  30
ENDBRANCH  28  29
ENDBRANCH  14  28
TORSDOF 4
ENDMDL
MODEL 6
REMARK VINA RESULT:      -7.6      3.082     10.772
REMARK  Name = 
REMARK  5 active torsions:
REMARK  status: ('A' for Active; 'I' for Inactive)
REMARK    1  A    between atoms: C_1  and  N_2
REMARK    2  A    between atoms: C_6  and  C_7
REMARK    3  A    between atoms: N_20  and  C_21
REMARK    4  A    between atoms: C_21  and  C_22
REMARK    5  A    between atoms: C_22  and  N_23
REMARK                            x       y       z     vdW  Elec       q    Type
REMARK                         _______ _______ _______ _____ _____    ______ ____
ROOT
ATOM      1  C   UNL     1       6.573   3.567  15.644  0.00  0.00    +0.000 C 
ATOM      2  N   UNL     1       5.376   3.750  16.433  0.00  0.00    +0.000 N 
ATOM      3  N   UNL     1       4.459   2.754  16.385  0.00  0.00    +0.000 NA
ATOM      4  C   UNL     1       3.549   3.134  17.269  0.00  0.00    +0.000 A 
ATOM      5  C   UNL     1       3.851   4.378  17.866  0.00  0.00    +0.000 A 
ATOM      6  C   UNL     1       5.057   4.788  17.309  0.00  0.00    +0.000 A 
ATOM      7  C   UNL     1       2.985   4.939  18.892  0.00  0.00    +0.000 A 
ATOM      8  N   UNL     1       3.094   6.240  19.225  0.00  0.00    +0.000 NA
ATOM      9  C   UNL     1       2.273   6.690  20.182  0.00  0.00    +0.000 A 
ATOM     10  N   UNL     1       2.322   8.054  20.481  0.00  0.00    +0.000 N 
ATOM     11  C   UNL     1       1.356   8.803  21.053  0.00  0.00    +0.000 A 
ATOM     12  C   UNL     1       0.339   8.319  21.914  0.00  0.00    +0.000 A 
ATOM     13  C   UNL     1      -0.496   9.378  22.141  0.00  0.00    +0.000 A 
ATOM     14  N   UNL     1       0.067  10.428  21.486  0.00  0.00    +0.000 N 
ATOM     15  N   UNL     1       1.217  10.119  20.852  0.00  0.00    +0.000 NA
ATOM     16  N   UNL     1       1.391   5.898  20.819  0.00  0.00    +0.000 NA
ATOM     17  C   UNL     1       1.291   4.617  20.452  0.00  0.00    +0.000 A 
ATOM     18  C   UNL     1       2.054   4.073  19.457  0.00  0.00    +0.000 A 
ATOM     19  C   UNL     1       1.941   2.619  19.076  0.00  0.00    +0.000 C 
ATOM     20  C   UNL     1       2.339   2.345  17.615  0.00  0.00    +0.000 C 
ATOM     21  H   UNL     1       2.967   8.508  19.848  0.00  0.00    +0.000 HD
ENDROOT
BRANCH   6  22
ATOM     22  C   UNL     1       5.899   5.977  17.557  0.00  0.00    +0.000 A 
ATOM     23  C   UNL     1       5.547   7.227  17.027  0.00  0.00    +0.000 A 
ATOM     24  C   UNL     1       6.382   8.342  17.165  0.00  0.00    +0.000 A 
ATOM     25  C   UNL     1       7.557   8.245  17.899  0.00  0.00    +0.000 A 
ATOM     26  C   UNL     1       7.904   7.028  18.477  0.00  0.00    +0.000 A 
ATOM     27  C   UNL     1       7.096   5.902  18.284  0.00  0.00    +0.000 A 
ENDBRANCH   6  22
BRANCH  14  28
ATOM     28  C   UNL     1      -0.419  11.793  21.520  0.00  0.00    +0.000 C 
BRANCH  28  29
ATOM     29  C   UNL     1      -1.400  12.064  22.668  0.00  0.00    +0.000 C 
BRANCH  29  30
ATOM     30  N   UNL     1      -2.435  13.064  22.322  0.00  0.00    +0.000 NA
ATOM     31  C   UNL     1      -3.798  12.662  22.742  0.00  0.00    +0.000 C 
ATOM     32  C   UNL     1      -3.992  12.620  24.272  0.00  0.00    +0.000 C 
ATOM     33  N   UNL     1      -3.706  13.918  24.901  0.00  0.00    +0.000 NA
ATOM     34  C   UNL     1      -2.383  14.416  24.486  0.00  0.00    +0.000 C 
ATOM     35  C   UNL     1      -2.145  14.371  22.957  0.00  0.00    +0.000 C 
ATOM     36  H   UNL     1      -3.727  13.815  25.914  0.00  0.00    +0.000 HD
ENDBRANCH  29  30
ENDBRANCH  28  29
ENDBRANCH  14  28
TORSDOF 4
ENDMDL
MODEL 7
REMARK VINA RESULT:      -7.5      1.276      1.692
REMARK  Name = 
REMARK  5 active torsions:
REMARK  status: ('A' for Active; 'I' for Inactive)
REMARK    1  A    between atoms: C_1  and  N_2
REMARK    2  A    between atoms: C_6  and  C_7
REMARK    3  A    between atoms: N_20  and  C_21
REMARK    4  A    between atoms: C_21  and  C_22
REMARK    5  A    between atoms: C_22  and  N_23
REMARK                            x       y       z     vdW  Elec       q    Type
REMARK                         _______ _______ _______ _____ _____    ______ ____
ROOT
ATOM      1  C   UNL     1      -6.631  14.413  22.117  0.00  0.00    +0.000 C 
ATOM      2  N   UNL     1      -6.027  13.590  21.095  0.00  0.00    +0.000 N 
ATOM      3  N   UNL     1      -6.831  13.195  20.080  0.00  0.00    +0.000 NA
ATOM      4  C   UNL     1      -6.001  12.569  19.259  0.00  0.00    +0.000 A 
ATOM      5  C   UNL     1      -4.676  12.527  19.745  0.00  0.00    +0.000 A 
ATOM      6  C   UNL     1      -4.694  13.198  20.963  0.00  0.00    +0.000 A 
ATOM      7  C   UNL     1      -3.616  11.913  18.961  0.00  0.00    +0.000 A 
ATOM      8  N   UNL     1      -2.445  11.596  19.547  0.00  0.00    +0.000 NA
ATOM      9  C   UNL     1      -1.509  11.041  18.767  0.00  0.00    +0.000 A 
ATOM     10  N   UNL     1      -0.321  10.635  19.378  0.00  0.00    +0.000 N 
ATOM     11  C   UNL     1       0.553   9.706  18.937  0.00  0.00    +0.000 A 
ATOM     12  C   UNL     1       0.741   9.329  17.583  0.00  0.00    +0.000 A 
ATOM     13  C   UNL     1       1.606   8.270  17.605  0.00  0.00    +0.000 A 
ATOM     14  N   UNL     1       1.939   8.104  18.912  0.00  0.00    +0.000 N 
ATOM     15  N   UNL     1       1.349   8.990  19.740  0.00  0.00    +0.000 NA
ATOM     16  N   UNL     1      -1.690  10.827  17.451  0.00  0.00    +0.000 NA
ATOM     17  C   UNL     1      -2.869  11.133  16.902  0.00  0.00    +0.000 A 
ATOM     18  C   UNL     1      -3.902  11.662  17.623  0.00  0.00    +0.000 A 
ATOM     19  C   UNL     1      -5.216  12.023  16.978  0.00  0.00    +0.000 C 
ATOM     20  C   UNL     1      -6.403  11.975  17.957  0.00  0.00    +0.000 C 
ATOM     21  H   UNL     1      -0.394  10.785  20.376  0.00  0.00    +0.000 HD
ENDROOT
BRANCH   6  22
ATOM     22  C   UNL     1      -3.617  13.519  21.923  0.00  0.00    +0.000 A 
ATOM     23  C   UNL     1      -2.959  14.757  21.875  0.00  0.00    +0.000 A 
ATOM     24  C   UNL     1      -1.871  15.040  22.707  0.00  0.00    +0.000 A 
ATOM     25  C   UNL     1      -1.461  14.114  23.658  0.00  0.00    +0.000 A 
ATOM     26  C   UNL     1      -2.130  12.899  23.760  0.00  0.00    +0.000 A 
ATOM     27  C   UNL     1      -3.178  12.596  22.883  0.00  0.00    +0.000 A 
ENDBRANCH   6  22
BRANCH  14  28
ATOM     28  C   UNL     1       2.911   7.152  19.414  0.00  0.00    +0.000 C 
BRANCH  28  29
ATOM     29  C   UNL     1       3.928   6.703  18.357  0.00  0.00    +0.000 C 
BRANCH  29  30
ATOM     30  N   UNL     1       3.562   5.424  17.706  0.00  0.00    +0.000 NA
ATOM     31  C   UNL     1       4.664   4.841  16.907  0.00  0.00    +0.000 C 
ATOM     32  C   UNL     1       5.861   4.358  17.752  0.00  0.00    +0.000 C 
ATOM     33  N   UNL     1       5.463   3.352  18.748  0.00  0.00    +0.000 NA
ATOM     34  C   UNL     1       4.329   3.837  19.552  0.00  0.00    +0.000 C 
ATOM     35  C   UNL     1       3.162   4.413  18.712  0.00  0.00    +0.000 C 
ATOM     36  H   UNL     1       6.252   3.153  19.361  0.00  0.00    +0.000 HD
ENDBRANCH  29  30
ENDBRANCH  28  29
ENDBRANCH  14  28
TORSDOF 4
ENDMDL
MODEL 8
REMARK VINA RESULT:      -7.5      2.845     10.325
REMARK  Name = 
REMARK  5 active torsions:
REMARK  status: ('A' for Active; 'I' for Inactive)
REMARK    1  A    between atoms: C_1  and  N_2
REMARK    2  A    between atoms: C_6  and  C_7
REMARK    3  A    between atoms: N_20  and  C_21
REMARK    4  A    between atoms: C_21  and  C_22
REMARK    5  A    between atoms: C_22  and  N_23
REMARK                            x       y       z     vdW  Elec       q    Type
REMARK                         _______ _______ _______ _____ _____    ______ ____
ROOT
ATOM      1  C   UNL     1       6.344   3.551  15.582  0.00  0.00    +0.000 C 
ATOM      2  N   UNL     1       5.167   3.728  16.402  0.00  0.00    +0.000 N 
ATOM      3  N   UNL     1       4.221   2.764  16.321  0.00  0.00    +0.000 NA
ATOM      4  C   UNL     1       3.339   3.125  17.240  0.00  0.00    +0.000 A 
ATOM      5  C   UNL     1       3.688   4.327  17.894  0.00  0.00    +0.000 A 
ATOM      6  C   UNL     1       4.896   4.729  17.334  0.00  0.00    +0.000 A 
ATOM      7  C   UNL     1       2.858   4.860  18.963  0.00  0.00    +0.000 A 
ATOM      8  N   UNL     1       3.011   6.139  19.359  0.00  0.00    +0.000 NA
ATOM      9  C   UNL     1       2.222   6.563  20.353  0.00  0.00    +0.000 A 
ATOM     10  N   UNL     1       2.317   7.908  20.719  0.00  0.00    +0.000 N 
ATOM     11  C   UNL     1       1.384   8.655  21.346  0.00  0.00    +0.000 A 
ATOM     12  C   UNL     1       0.368   8.158  22.201  0.00  0.00    +0.000 A 
ATOM     13  C   UNL     1      -0.430   9.228  22.497  0.00  0.00    +0.000 A 
ATOM     14  N   UNL     1       0.152  10.293  21.885  0.00  0.00    +0.000 N 
ATOM     15  N   UNL     1       1.280   9.984  21.214  0.00  0.00    +0.000 NA
ATOM     16  N   UNL     1       1.328   5.766  20.966  0.00  0.00    +0.000 NA
ATOM     17  C   UNL     1       1.183   4.509  20.537  0.00  0.00    +0.000 A 
ATOM     18  C   UNL     1       1.911   3.994  19.501  0.00  0.00    +0.000 A 
ATOM     19  C   UNL     1       1.749   2.565  19.051  0.00  0.00    +0.000 C 
ATOM     20  C   UNL     1       2.112   2.354  17.570  0.00  0.00    +0.000 C 
ATOM     21  H   UNL     1       2.963   8.376  20.097  0.00  0.00    +0.000 HD
ENDROOT
BRANCH   6  22
ATOM     22  C   UNL     1       5.777   5.880  17.625  0.00  0.00    +0.000 A 
ATOM     23  C   UNL     1       5.530   7.136  17.051  0.00  0.00    +0.000 A 
ATOM     24  C   UNL     1       6.409   8.209  17.233  0.00  0.00    +0.000 A 
ATOM     25  C   UNL     1       7.520   8.068  18.054  0.00  0.00    +0.000 A 
ATOM     26  C   UNL     1       7.761   6.847  18.676  0.00  0.00    +0.000 A 
ATOM     27  C   UNL     1       6.912   5.759  18.441  0.00  0.00    +0.000 A 
ENDBRANCH   6  22
BRANCH  14  28
ATOM     28  C   UNL     1      -0.292  11.668  21.997  0.00  0.00    +0.000 C 
BRANCH  28  29
ATOM     29  C   UNL     1       0.164  12.553  20.829  0.00  0.00    +0.000 C 
BRANCH  29  30
ATOM     30  N   UNL     1      -0.921  13.401  20.285  0.00  0.00    +0.000 NA
ATOM     31  C   UNL     1      -0.484  14.258  19.160  0.00  0.00    +0.000 C 
ATOM     32  C   UNL     1      -0.116  13.472  17.884  0.00  0.00    +0.000 C 
ATOM     33  N   UNL     1      -1.235  12.653  17.398  0.00  0.00    +0.000 NA
ATOM     34  C   UNL     1      -1.767  11.806  18.481  0.00  0.00    +0.000 C 
ATOM     35  C   UNL     1      -2.048  12.572  19.797  0.00  0.00    +0.000 C 
ATOM     36  H   UNL     1      -0.915  12.062  16.633  0.00  0.00    +0.000 HD
ENDBRANCH  29  30
ENDBRANCH  28  29
ENDBRANCH  14  28
TORSDOF 4
ENDMDL
MODEL 9
REMARK VINA RESULT:      -7.4      3.066     10.753
REMARK  Name = 
REMARK  5 active torsions:
REMARK  status: ('A' for Active; 'I' for Inactive)
REMARK    1  A    between atoms: C_1  and  N_2
REMARK    2  A    between atoms: C_6  and  C_7
REMARK    3  A    between atoms: N_20  and  C_21
REMARK    4  A    between atoms: C_21  and  C_22
REMARK    5  A    between atoms: C_22  and  N_23
REMARK                            x       y       z     vdW  Elec       q    Type
REMARK                         _______ _______ _______ _____ _____    ______ ____
ROOT
ATOM      1  C   UNL     1       6.461   3.523  15.605  0.00  0.00    +0.000 C 
ATOM      2  N   UNL     1       5.276   3.724  16.409  0.00  0.00    +0.000 N 
ATOM      3  N   UNL     1       4.340   2.748  16.364  0.00  0.00    +0.000 NA
ATOM      4  C   UNL     1       3.448   3.140  17.261  0.00  0.00    +0.000 A 
ATOM      5  C   UNL     1       3.780   4.374  17.862  0.00  0.00    +0.000 A 
ATOM      6  C   UNL     1       4.988   4.763  17.293  0.00  0.00    +0.000 A 
ATOM      7  C   UNL     1       2.936   4.945  18.901  0.00  0.00    +0.000 A 
ATOM      8  N   UNL     1       3.074   6.241  19.240  0.00  0.00    +0.000 NA
ATOM      9  C   UNL     1       2.273   6.702  20.208  0.00  0.00    +0.000 A 
ATOM     10  N   UNL     1       2.352   8.063  20.515  0.00  0.00    +0.000 N 
ATOM     11  C   UNL     1       1.407   8.827  21.101  0.00  0.00    +0.000 A 
ATOM     12  C   UNL     1       0.390   8.358  21.971  0.00  0.00    +0.000 A 
ATOM     13  C   UNL     1      -0.421   9.432  22.214  0.00  0.00    +0.000 A 
ATOM     14  N   UNL     1       0.154  10.474  21.559  0.00  0.00    +0.000 N 
ATOM     15  N   UNL     1       1.291  10.147  20.910  0.00  0.00    +0.000 NA
ATOM     16  N   UNL     1       1.383   5.923  20.850  0.00  0.00    +0.000 NA
ATOM     17  C   UNL     1       1.253   4.647  20.477  0.00  0.00    +0.000 A 
ATOM     18  C   UNL     1       1.995   4.094  19.471  0.00  0.00    +0.000 A 
ATOM     19  C   UNL     1       1.850   2.645  19.083  0.00  0.00    +0.000 C 
ATOM     20  C   UNL     1       2.226   2.372  17.616  0.00  0.00    +0.000 C 
ATOM     21  H   UNL     1       2.998   8.508  19.878  0.00  0.00    +0.000 HD
ENDROOT
BRANCH   6  22
ATOM     22  C   UNL     1       5.855   5.934  17.539  0.00  0.00    +0.000 A 
ATOM     23  C   UNL     1       5.544   7.185  16.985  0.00  0.00    +0.000 A 
ATOM     24  C   UNL     1       6.405   8.280  17.122  0.00  0.00    +0.000 A 
ATOM     25  C   UNL     1       7.565   8.165  17.878  0.00  0.00    +0.000 A 
ATOM     26  C   UNL     1       7.871   6.948  18.479  0.00  0.00    +0.000 A 
ATOM     27  C   UNL     1       7.037   5.840  18.288  0.00  0.00    +0.000 A 
ENDBRANCH   6  22
BRANCH  14  28
ATOM     28  C   UNL     1      -0.304  11.849  21.605  0.00  0.00    +0.000 C 
BRANCH  28  29
ATOM     29  C   UNL     1      -1.793  11.984  21.950  0.00  0.00    +0.000 C 
BRANCH  29  30
ATOM     30  N   UNL     1      -2.027  12.478  23.326  0.00  0.00    +0.000 NA
ATOM     31  C   UNL     1      -1.620  13.889  23.516  0.00  0.00    +0.000 C 
ATOM     32  C   UNL     1      -2.488  14.899  22.737  0.00  0.00    +0.000 C 
ATOM     33  N   UNL     1      -3.909  14.802  23.100  0.00  0.00    +0.000 NA
ATOM     34  C   UNL     1      -4.379  13.410  22.989  0.00  0.00    +0.000 C 
ATOM     35  C   UNL     1      -3.460  12.379  23.688  0.00  0.00    +0.000 C 
ATOM     36  H   UNL     1      -4.458  15.395  22.479  0.00  0.00    +0.000 HD
ENDBRANCH  29  30
ENDBRANCH  28  29
ENDBRANCH  14  28
TORSDOF 4
ENDMDL
