MODEL 1
REMARK VINA RESULT:      -7.6      0.000      0.000
REMARK  Name = 
REMARK  5 active torsions:
REMARK  status: ('A' for Active; 'I' for Inactive)
REMARK    1  A    between atoms: C_2  and  C_18
REMARK    2  A    between atoms: N_3  and  C_4
REMARK    3  A    between atoms: C_10  and  O_11
REMARK    4  A    between atoms: O_11  and  C_12
REMARK    5  A    between atoms: C_12  and  C_13
REMARK                            x       y       z     vdW  Elec       q    Type
REMARK                         _______ _______ _______ _____ _____    ______ ____
ROOT
ATOM      1  C   UNL     1       2.669   4.262  18.335  0.00  0.00    +0.000 A 
ATOM      2  C   UNL     1       1.955   3.063  18.150  0.00  0.00    +0.000 A 
ATOM      3  C   UNL     1       0.965   2.650  19.031  0.00  0.00    +0.000 A 
ATOM      4  F   UNL     1       0.325   1.496  18.816  0.00  0.00    +0.000 F 
ATOM      5  C   UNL     1       0.640   3.413  20.124  0.00  0.00    +0.000 A 
ATOM      6  C   UNL     1       1.302   4.618  20.325  0.00  0.00    +0.000 A 
ATOM      7  C   UNL     1       2.318   5.076  19.449  0.00  0.00    +0.000 A 
ENDROOT
BRANCH   1  10
ATOM      8  O   UNL     1       5.564   3.867  18.619  0.00  0.00    +0.000 OA
ATOM      9  C   UNL     1       5.080   4.400  17.629  0.00  0.00    +0.000 C 
ATOM     10  N   UNL     1       3.713   4.631  17.424  0.00  0.00    +0.000 N 
ATOM     11  H   UNL     1       3.412   5.111  16.586  0.00  0.00    +0.000 HD
BRANCH   9  12
ATOM     12  C   UNL     1       6.012   4.828  16.590  0.00  0.00    +0.000 A 
ATOM     13  C   UNL     1       6.091   4.255  15.274  0.00  0.00    +0.000 A 
ATOM     14  C   UNL     1       7.100   4.907  14.612  0.00  0.00    +0.000 A 
ATOM     15  O   UNL     1       7.652   5.845  15.421  0.00  0.00    +0.000 OA
ATOM     16  C   UNL     1       6.993   5.794  16.612  0.00  0.00    +0.000 A 
ENDBRANCH   9  12
ENDBRANCH   1  10
BRANCH   7  17
ATOM     17  O   UNL     1       2.971   6.291  19.660  0.00  0.00    +0.000 OA
BRANCH  17  18
ATOM     18  C   UNL     1       2.260   7.430  19.117  0.00  0.00    +0.000 C 
BRANCH  18  19
ATOM     19  C   UNL     1       1.844   8.506  20.122  0.00  0.00    +0.000 C 
ATOM     20  C   UNL     1       0.956   7.997  21.240  0.00  0.00    +0.000 C 
ATOM     21  C   UNL     1       0.082   9.192  21.536  0.00  0.00    +0.000 C 
ATOM     22  C   UNL     1      -0.124   9.788  20.162  0.00  0.00    +0.000 C 
ATOM     23  O   UNL     1       1.075   9.516  19.422  0.00  0.00    +0.000 OA
ENDBRANCH  18  19
ENDBRANCH  17  18
ENDBRANCH   7  17
TORSDOF 5
ENDMDL
MODEL 2
REMARK VINA RESULT:      -7.5      2.747      6.431
REMARK  Name = 
REMARK  5 active torsions:
REMARK  status: ('A' for Active; 'I' for Inactive)
REMARK    1  A    between atoms: C_2  and  C_18
REMARK    2  A    between atoms: N_3  and  C_4
REMARK    3  A    between atoms: C_10  and  O_11
REMARK    4  A    between atoms: O_11  and  C_12
REMARK    5  A    between atoms: C_12  and  C_13
REMARK                            x       y       z     vdW  Elec       q    Type
REMARK                         _______ _______ _______ _____ _____    ______ ____
ROOT
ATOM      1  C   UNL     1       3.944   6.038  17.908  0.00  0.00    +0.000 A 
ATOM      2  C   UNL     1       5.228   6.509  17.573  0.00  0.00    +0.000 A 
ATOM      3  C   UNL     1       6.103   5.770  16.788  0.00  0.00    +0.000 A 
ATOM      4  F   UNL     1       7.315   6.259  16.508  0.00  0.00    +0.000 F 
ATOM      5  C   UNL     1       5.737   4.541  16.300  0.00  0.00    +0.000 A 
ATOM      6  C   UNL     1       4.467   4.054  16.585  0.00  0.00    +0.000 A 
ATOM      7  C   UNL     1       3.543   4.777  17.382  0.00  0.00    +0.000 A 
ENDROOT
BRANCH   1  10
ATOM      8  O   UNL     1       2.505   8.518  17.274  0.00  0.00    +0.000 OA
ATOM      9  C   UNL     1       2.426   7.989  18.376  0.00  0.00    +0.000 C 
ATOM     10  N   UNL     1       3.087   6.813  18.756  0.00  0.00    +0.000 N 
ATOM     11  H   UNL     1       2.985   6.472  19.703  0.00  0.00    +0.000 HD
BRANCH   9  12
ATOM     12  C   UNL     1       1.575   8.648  19.362  0.00  0.00    +0.000 A 
ATOM     13  C   UNL     1       1.396   8.204  20.717  0.00  0.00    +0.000 A 
ATOM     14  C   UNL     1       0.509   9.067  21.309  0.00  0.00    +0.000 A 
ATOM     15  O   UNL     1       0.125  10.016  20.420  0.00  0.00    +0.000 OA
ATOM     16  C   UNL     1       0.771   9.761  19.248  0.00  0.00    +0.000 A 
ENDBRANCH   9  12
ENDBRANCH   1  10
BRANCH   7  17
ATOM     17  O   UNL     1       2.269   4.279  17.656  0.00  0.00    +0.000 OA
BRANCH  17  18
ATOM     18  C   UNL     1       2.220   2.833  17.731  0.00  0.00    +0.000 C 
BRANCH  18  19
ATOM     19  C   UNL     1       1.903   2.240  19.105  0.00  0.00    +0.000 C 
ATOM     20  C   UNL     1       0.874   3.027  19.895  0.00  0.00    +0.000 C 
ATOM     21  C   UNL     1       1.320   2.812  21.322  0.00  0.00    +0.000 C 
ATOM     22  C   UNL     1       2.826   2.805  21.191  0.00  0.00    +0.000 C 
ATOM     23  O   UNL     1       3.115   2.248  19.901  0.00  0.00    +0.000 OA
ENDBRANCH  18  19
ENDBRANCH  17  18
ENDBRANCH   7  17
TORSDOF 5
ENDMDL
MODEL 3
REMARK VINA RESULT:      -7.5      3.698      5.287
REMARK  Name = 
REMARK  5 active torsions:
REMARK  status: ('A' for Active; 'I' for Inactive)
REMARK    1  A    between atoms: C_2  and  C_18
REMARK    2  A    between atoms: N_3  and  C_4
REMARK    3  A    between atoms: C_10  and  O_11
REMARK    4  A    between atoms: O_11  and  C_12
REMARK    5  A    between atoms: C_12  and  C_13
REMARK                            x       y       z     vdW  Elec       q    Type
REMARK                         _______ _______ _______ _____ _____    ______ ____
ROOT
ATOM      1  C   UNL     1       6.153   4.289  16.988  0.00  0.00    +0.000 A 
ATOM      2  C   UNL     1       7.333   4.889  17.468  0.00  0.00    +0.000 A 
ATOM      3  C   UNL     1       7.407   5.469  18.727  0.00  0.00    +0.000 A 
ATOM      4  F   UNL     1       8.549   6.035  19.130  0.00  0.00    +0.000 F 
ATOM      5  C   UNL     1       6.317   5.471  19.561  0.00  0.00    +0.000 A 
ATOM      6  C   UNL     1       5.142   4.863  19.134  0.00  0.00    +0.000 A 
ATOM      7  C   UNL     1       5.026   4.258  17.857  0.00  0.00    +0.000 A 
ENDROOT
BRANCH   1  10
ATOM      8  O   UNL     1       5.847   5.700  14.432  0.00  0.00    +0.000 OA
ATOM      9  C   UNL     1       5.965   4.482  14.487  0.00  0.00    +0.000 C 
ATOM     10  N   UNL     1       6.106   3.738  15.666  0.00  0.00    +0.000 N 
ATOM     11  H   UNL     1       6.163   2.729  15.611  0.00  0.00    +0.000 HD
BRANCH   9  12
ATOM     12  C   UNL     1       5.951   3.762  13.217  0.00  0.00    +0.000 A 
ATOM     13  C   UNL     1       4.765   3.303  12.548  0.00  0.00    +0.000 A 
ATOM     14  C   UNL     1       5.171   2.655  11.410  0.00  0.00    +0.000 A 
ATOM     15  O   UNL     1       6.524   2.679  11.322  0.00  0.00    +0.000 OA
ATOM     16  C   UNL     1       6.991   3.348  12.413  0.00  0.00    +0.000 A 
ENDBRANCH   9  12
ENDBRANCH   1  10
BRANCH   7  17
ATOM     17  O   UNL     1       3.841   3.647  17.445  0.00  0.00    +0.000 OA
BRANCH  17  18
ATOM     18  C   UNL     1       3.560   2.407  18.137  0.00  0.00    +0.000 C 
BRANCH  18  19
ATOM     19  C   UNL     1       2.365   2.423  19.092  0.00  0.00    +0.000 C 
ATOM     20  C   UNL     1       1.421   3.591  18.879  0.00  0.00    +0.000 C 
ATOM     21  C   UNL     1       0.911   3.860  20.275  0.00  0.00    +0.000 C 
ATOM     22  C   UNL     1       2.131   3.581  21.123  0.00  0.00    +0.000 C 
ATOM     23  O   UNL     1       2.861   2.547  20.449  0.00  0.00    +0.000 OA
ENDBRANCH  18  19
ENDBRANCH  17  18
ENDBRANCH   7  17
TORSDOF 5
ENDMDL
MODEL 4
REMARK VINA RESULT:      -7.4      0.917      1.296
REMARK  Name = 
REMARK  5 active torsions:
REMARK  status: ('A' for Active; 'I' for Inactive)
REMARK    1  A    between atoms: C_2  and  C_18
REMARK    2  A    between atoms: N_3  and  C_4
REMARK    3  A    between atoms: C_10  and  O_11
REMARK    4  A    between atoms: O_11  and  C_12
REMARK    5  A    between atoms: C_12  and  C_13
REMARK                            x       y       z     vdW  Elec       q    Type
REMARK                         _______ _______ _______ _____ _____    ______ ____
ROOT
ATOM      1  C   UNL     1       2.685   4.200  18.288  0.00  0.00    +0.000 A 
ATOM      2  C   UNL     1       1.934   3.028  18.082  0.00  0.00    +0.000 A 
ATOM      3  C   UNL     1       0.951   2.615  18.972  0.00  0.00    +0.000 A 
ATOM      4  F   UNL     1       0.274   1.487  18.734  0.00  0.00    +0.000 F 
ATOM      5  C   UNL     1       0.671   3.352  20.095  0.00  0.00    +0.000 A 
ATOM      6  C   UNL     1       1.372   4.531  20.318  0.00  0.00    +0.000 A 
ATOM      7  C   UNL     1       2.382   4.988  19.434  0.00  0.00    +0.000 A 
ENDROOT
BRANCH   1  10
ATOM      8  O   UNL     1       5.593   3.951  18.611  0.00  0.00    +0.000 OA
ATOM      9  C   UNL     1       5.094   4.411  17.591  0.00  0.00    +0.000 C 
ATOM     10  N   UNL     1       3.720   4.569  17.366  0.00  0.00    +0.000 N 
ATOM     11  H   UNL     1       3.405   4.991  16.503  0.00  0.00    +0.000 HD
BRANCH   9  12
ATOM     12  C   UNL     1       6.015   4.826  16.538  0.00  0.00    +0.000 A 
ATOM     13  C   UNL     1       5.984   4.341  15.185  0.00  0.00    +0.000 A 
ATOM     14  C   UNL     1       7.018   4.947  14.517  0.00  0.00    +0.000 A 
ATOM     15  O   UNL     1       7.689   5.774  15.358  0.00  0.00    +0.000 OA
ATOM     16  C   UNL     1       7.081   5.698  16.574  0.00  0.00    +0.000 A 
ENDBRANCH   9  12
ENDBRANCH   1  10
BRANCH   7  17
ATOM     17  O   UNL     1       3.074   6.176  19.669  0.00  0.00    +0.000 OA
BRANCH  17  18
ATOM     18  C   UNL     1       2.237   7.239  20.188  0.00  0.00    +0.000 C 
BRANCH  18  19
ATOM     19  C   UNL     1       1.520   8.101  19.148  0.00  0.00    +0.000 C 
ATOM     20  C   UNL     1       2.432   8.654  18.069  0.00  0.00    +0.000 C 
ATOM     21  C   UNL     1       1.787   9.979  17.742  0.00  0.00    +0.000 C 
ATOM     22  C   UNL     1       1.290  10.438  19.093  0.00  0.00    +0.000 C 
ATOM     23  O   UNL     1       0.946   9.251  19.820  0.00  0.00    +0.000 OA
ENDBRANCH  18  19
ENDBRANCH  17  18
ENDBRANCH   7  17
TORSDOF 5
ENDMDL
MODEL 5
REMARK VINA RESULT:      -7.4      1.609      5.707
REMARK  Name = 
REMARK  5 active torsions:
REMARK  status: ('A' for Active; 'I' for Inactive)
REMARK    1  A    between atoms: C_2  and  C_18
REMARK    2  A    between atoms: N_3  and  C_4
REMARK    3  A    between atoms: C_10  and  O_11
REMARK    4  A    between atoms: O_11  and  C_12
REMARK    5  A    between atoms: C_12  and  C_13
REMARK                            x       y       z     vdW  Elec       q    Type
REMARK                         _______ _______ _______ _____ _____    ______ ____
ROOT
ATOM      1  C   UNL     1       2.496   4.859  17.955  0.00  0.00    +0.000 A 
ATOM      2  C   UNL     1       1.469   3.957  18.292  0.00  0.00    +0.000 A 
ATOM      3  C   UNL     1       1.662   2.582  18.283  0.00  0.00    +0.000 A 
ATOM      4  F   UNL     1       0.650   1.768  18.601  0.00  0.00    +0.000 F 
ATOM      5  C   UNL     1       2.882   2.050  17.949  0.00  0.00    +0.000 A 
ATOM      6  C   UNL     1       3.929   2.909  17.638  0.00  0.00    +0.000 A 
ATOM      7  C   UNL     1       3.773   4.318  17.636  0.00  0.00    +0.000 A 
ENDROOT
BRANCH   1  10
ATOM      8  O   UNL     1       2.199   6.694  20.228  0.00  0.00    +0.000 OA
ATOM      9  C   UNL     1       2.121   7.083  19.070  0.00  0.00    +0.000 C 
ATOM     10  N   UNL     1       2.243   6.270  17.935  0.00  0.00    +0.000 N 
ATOM     11  H   UNL     1       2.129   6.680  17.018  0.00  0.00    +0.000 HD
BRANCH   9  12
ATOM     12  C   UNL     1       1.877   8.508  18.870  0.00  0.00    +0.000 A 
ATOM     13  C   UNL     1       1.117   9.342  19.761  0.00  0.00    +0.000 A 
ATOM     14  C   UNL     1       1.097  10.600  19.215  0.00  0.00    +0.000 A 
ATOM     15  O   UNL     1       1.791  10.609  18.049  0.00  0.00    +0.000 OA
ATOM     16  C   UNL     1       2.260   9.346  17.846  0.00  0.00    +0.000 A 
ENDBRANCH   9  12
ENDBRANCH   1  10
BRANCH   7  17
ATOM     17  O   UNL     1       4.835   5.169  17.327  0.00  0.00    +0.000 OA
BRANCH  17  18
ATOM     18  C   UNL     1       6.130   4.523  17.395  0.00  0.00    +0.000 C 
BRANCH  18  19
ATOM     19  C   UNL     1       7.344   5.452  17.446  0.00  0.00    +0.000 C 
ATOM     20  C   UNL     1       7.661   5.980  18.832  0.00  0.00    +0.000 C 
ATOM     21  C   UNL     1       8.229   7.349  18.540  0.00  0.00    +0.000 C 
ATOM     22  C   UNL     1       7.394   7.800  17.364  0.00  0.00    +0.000 C 
ATOM     23  O   UNL     1       7.069   6.615  16.624  0.00  0.00    +0.000 OA
ENDBRANCH  18  19
ENDBRANCH  17  18
ENDBRANCH   7  17
TORSDOF 5
ENDMDL
MODEL 6
REMARK VINA RESULT:      -7.3      2.721      6.286
REMARK  Name = 
REMARK  5 active torsions:
REMARK  status: ('A' for Active; 'I' for Inactive)
REMARK    1  A    between atoms: C_2  and  C_18
REMARK    2  A    between atoms: N_3  and  C_4
REMARK    3  A    between atoms: C_10  and  O_11
REMARK    4  A    between atoms: O_11  and  C_12
REMARK    5  A    between atoms: C_12  and  C_13
REMARK                            x       y       z     vdW  Elec       q    Type
REMARK                         _______ _______ _______ _____ _____    ______ ____
ROOT
ATOM      1  C   UNL     1       4.012   6.445  17.533  0.00  0.00    +0.000 A 
ATOM      2  C   UNL     1       5.364   6.778  17.325  0.00  0.00    +0.000 A 
ATOM      3  C   UNL     1       6.334   5.813  17.088  0.00  0.00    +0.000 A 
ATOM      4  F   UNL     1       7.606   6.183  16.907  0.00  0.00    +0.000 F 
ATOM      5  C   UNL     1       6.000   4.483  17.042  0.00  0.00    +0.000 A 
ATOM      6  C   UNL     1       4.671   4.116  17.215  0.00  0.00    +0.000 A 
ATOM      7  C   UNL     1       3.650   5.070  17.457  0.00  0.00    +0.000 A 
ENDROOT
BRANCH   1  10
ATOM      8  O   UNL     1       2.535   6.925  20.025  0.00  0.00    +0.000 OA
ATOM      9  C   UNL     1       2.388   7.638  19.040  0.00  0.00    +0.000 C 
ATOM     10  N   UNL     1       3.049   7.469  17.816  0.00  0.00    +0.000 N 
ATOM     11  H   UNL     1       2.835   8.091  17.048  0.00  0.00    +0.000 HD
BRANCH   9  12
ATOM     12  C   UNL     1       1.445   8.745  19.164  0.00  0.00    +0.000 A 
ATOM     13  C   UNL     1       0.988   9.558  18.071  0.00  0.00    +0.000 A 
ATOM     14  C   UNL     1       0.138  10.498  18.597  0.00  0.00    +0.000 A 
ATOM     15  O   UNL     1       0.035  10.327  19.939  0.00  0.00    +0.000 OA
ATOM     16  C   UNL     1       0.824   9.270  20.276  0.00  0.00    +0.000 A 
ENDBRANCH   9  12
ENDBRANCH   1  10
BRANCH   7  17
ATOM     17  O   UNL     1       2.319   4.688  17.623  0.00  0.00    +0.000 OA
BRANCH  17  18
ATOM     18  C   UNL     1       2.129   3.252  17.643  0.00  0.00    +0.000 C 
BRANCH  18  19
ATOM     19  C   UNL     1       1.700   2.648  18.981  0.00  0.00    +0.000 C 
ATOM     20  C   UNL     1       0.958   3.613  19.886  0.00  0.00    +0.000 C 
ATOM     21  C   UNL     1       1.369   3.153  21.264  0.00  0.00    +0.000 C 
ATOM     22  C   UNL     1       2.807   2.741  21.051  0.00  0.00    +0.000 C 
ATOM     23  O   UNL     1       2.889   2.246  19.708  0.00  0.00    +0.000 OA
ENDBRANCH  18  19
ENDBRANCH  17  18
ENDBRANCH   7  17
TORSDOF 5
ENDMDL
MODEL 7
REMARK VINA RESULT:      -7.2      2.560      4.616
REMARK  Name = 
REMARK  5 active torsions:
REMARK  status: ('A' for Active; 'I' for Inactive)
REMARK    1  A    between atoms: C_2  and  C_18
REMARK    2  A    between atoms: N_3  and  C_4
REMARK    3  A    between atoms: C_10  and  O_11
REMARK    4  A    between atoms: O_11  and  C_12
REMARK    5  A    between atoms: C_12  and  C_13
REMARK                            x       y       z     vdW  Elec       q    Type
REMARK                         _______ _______ _______ _____ _____    ______ ____
ROOT
ATOM      1  C   UNL     1       2.665   7.226  18.295  0.00  0.00    +0.000 A 
ATOM      2  C   UNL     1       2.122   8.402  17.743  0.00  0.00    +0.000 A 
ATOM      3  C   UNL     1       1.406   9.313  18.508  0.00  0.00    +0.000 A 
ATOM      4  F   UNL     1       0.902  10.409  17.933  0.00  0.00    +0.000 F 
ATOM      5  C   UNL     1       1.209   9.097  19.849  0.00  0.00    +0.000 A 
ATOM      6  C   UNL     1       1.755   7.962  20.436  0.00  0.00    +0.000 A 
ATOM      7  C   UNL     1       2.492   7.008  19.691  0.00  0.00    +0.000 A 
ENDROOT
BRANCH   1  10
ATOM      8  O   UNL     1       5.478   7.270  17.452  0.00  0.00    +0.000 OA
ATOM      9  C   UNL     1       4.715   6.375  17.108  0.00  0.00    +0.000 C 
ATOM     10  N   UNL     1       3.361   6.290  17.461  0.00  0.00    +0.000 N 
ATOM     11  H   UNL     1       2.802   5.528  17.098  0.00  0.00    +0.000 HD
BRANCH   9  12
ATOM     12  C   UNL     1       5.271   5.326  16.260  0.00  0.00    +0.000 A 
ATOM     13  C   UNL     1       5.765   5.526  14.925  0.00  0.00    +0.000 A 
ATOM     14  C   UNL     1       6.175   4.302  14.460  0.00  0.00    +0.000 A 
ATOM     15  O   UNL     1       5.973   3.356  15.411  0.00  0.00    +0.000 OA
ATOM     16  C   UNL     1       5.428   3.977  16.494  0.00  0.00    +0.000 A 
ENDBRANCH   9  12
ENDBRANCH   1  10
BRANCH   7  17
ATOM     17  O   UNL     1       3.039   5.875  20.294  0.00  0.00    +0.000 OA
BRANCH  17  18
ATOM     18  C   UNL     1       2.049   4.885  20.667  0.00  0.00    +0.000 C 
BRANCH  18  19
ATOM     19  C   UNL     1       1.388   4.127  19.515  0.00  0.00    +0.000 C 
ATOM     20  C   UNL     1       0.684   2.851  19.938  0.00  0.00    +0.000 C 
ATOM     21  C   UNL     1       0.864   1.962  18.731  0.00  0.00    +0.000 C 
ATOM     22  C   UNL     1       2.248   2.340  18.254  0.00  0.00    +0.000 C 
ATOM     23  O   UNL     1       2.417   3.728  18.575  0.00  0.00    +0.000 OA
ENDBRANCH  18  19
ENDBRANCH  17  18
ENDBRANCH   7  17
TORSDOF 5
ENDMDL
MODEL 8
REMARK VINA RESULT:      -7.2      2.505      5.189
REMARK  Name = 
REMARK  5 active torsions:
REMARK  status: ('A' for Active; 'I' for Inactive)
REMARK    1  A    between atoms: C_2  and  C_18
REMARK    2  A    between atoms: N_3  and  C_4
REMARK    3  A    between atoms: C_10  and  O_11
REMARK    4  A    between atoms: O_11  and  C_12
REMARK    5  A    between atoms: C_12  and  C_13
REMARK                            x       y       z     vdW  Elec       q    Type
REMARK                         _______ _______ _______ _____ _____    ______ ____
ROOT
ATOM      1  C   UNL     1       4.704   4.625  17.331  0.00  0.00    +0.000 A 
ATOM      2  C   UNL     1       5.249   3.753  16.369  0.00  0.00    +0.000 A 
ATOM      3  C   UNL     1       5.739   4.209  15.153  0.00  0.00    +0.000 A 
ATOM      4  F   UNL     1       6.237   3.337  14.270  0.00  0.00    +0.000 F 
ATOM      5  C   UNL     1       5.715   5.547  14.847  0.00  0.00    +0.000 A 
ATOM      6  C   UNL     1       5.211   6.442  15.783  0.00  0.00    +0.000 A 
ATOM      7  C   UNL     1       4.702   6.017  17.036  0.00  0.00    +0.000 A 
ENDROOT
BRANCH   1  10
ATOM      8  O   UNL     1       1.918   3.957  17.971  0.00  0.00    +0.000 OA
ATOM      9  C   UNL     1       2.821   3.806  18.784  0.00  0.00    +0.000 C 
ATOM     10  N   UNL     1       4.170   4.108  18.557  0.00  0.00    +0.000 N 
ATOM     11  H   UNL     1       4.839   3.980  19.305  0.00  0.00    +0.000 HD
BRANCH   9  12
ATOM     12  C   UNL     1       2.447   3.271  20.090  0.00  0.00    +0.000 A 
ATOM     13  C   UNL     1       1.111   3.259  20.618  0.00  0.00    +0.000 A 
ATOM     14  C   UNL     1       1.179   2.702  21.870  0.00  0.00    +0.000 A 
ATOM     15  O   UNL     1       2.461   2.366  22.157  0.00  0.00    +0.000 OA
ATOM     16  C   UNL     1       3.222   2.710  21.081  0.00  0.00    +0.000 A 
ENDBRANCH   9  12
ENDBRANCH   1  10
BRANCH   7  17
ATOM     17  O   UNL     1       4.204   6.929  17.967  0.00  0.00    +0.000 OA
BRANCH  17  18
ATOM     18  C   UNL     1       3.308   7.910  17.392  0.00  0.00    +0.000 C 
BRANCH  18  19
ATOM     19  C   UNL     1       1.977   8.114  18.118  0.00  0.00    +0.000 C 
ATOM     20  C   UNL     1       1.594   9.569  18.309  0.00  0.00    +0.000 C 
ATOM     21  C   UNL     1       0.841   9.541  19.618  0.00  0.00    +0.000 C 
ATOM     22  C   UNL     1       1.601   8.498  20.405  0.00  0.00    +0.000 C 
ATOM     23  O   UNL     1       2.086   7.547  19.448  0.00  0.00    +0.000 OA
ENDBRANCH  18  19
ENDBRANCH  17  18
ENDBRANCH   7  17
TORSDOF 5
ENDMDL
MODEL 9
REMARK VINA RESULT:      -7.2      1.374      5.988
REMARK  Name = 
REMARK  5 active torsions:
REMARK  status: ('A' for Active; 'I' for Inactive)
REMARK    1  A    between atoms: C_2  and  C_18
REMARK    2  A    between atoms: N_3  and  C_4
REMARK    3  A    between atoms: C_10  and  O_11
REMARK    4  A    between atoms: O_11  and  C_12
REMARK    5  A    between atoms: C_12  and  C_13
REMARK                            x       y       z     vdW  Elec       q    Type
REMARK                         _______ _______ _______ _____ _____    ______ ____
ROOT
ATOM      1  C   UNL     1       2.567   4.799  18.539  0.00  0.00    +0.000 A 
ATOM      2  C   UNL     1       1.491   3.891  18.510  0.00  0.00    +0.000 A 
ATOM      3  C   UNL     1       1.680   2.520  18.624  0.00  0.00    +0.000 A 
ATOM      4  F   UNL     1       0.625   1.700  18.579  0.00  0.00    +0.000 F 
ATOM      5  C   UNL     1       2.940   1.999  18.779  0.00  0.00    +0.000 A 
ATOM      6  C   UNL     1       4.024   2.866  18.841  0.00  0.00    +0.000 A 
ATOM      7  C   UNL     1       3.875   4.271  18.730  0.00  0.00    +0.000 A 
ENDROOT
BRANCH   1  10
ATOM      8  O   UNL     1       1.791   6.771  20.572  0.00  0.00    +0.000 OA
ATOM      9  C   UNL     1       1.971   7.087  19.403  0.00  0.00    +0.000 C 
ATOM     10  N   UNL     1       2.333   6.204  18.376  0.00  0.00    +0.000 N 
ATOM     11  H   UNL     1       2.425   6.555  17.431  0.00  0.00    +0.000 HD
BRANCH   9  12
ATOM     12  C   UNL     1       1.785   8.494  19.065  0.00  0.00    +0.000 A 
ATOM     13  C   UNL     1       2.301   9.128  17.883  0.00  0.00    +0.000 A 
ATOM     14  C   UNL     1       1.938  10.450  17.944  0.00  0.00    +0.000 A 
ATOM     15  O   UNL     1       1.233  10.683  19.080  0.00  0.00    +0.000 OA
ATOM     16  C   UNL     1       1.143   9.501  19.752  0.00  0.00    +0.000 A 
ENDBRANCH   9  12
ENDBRANCH   1  10
BRANCH   7  17
ATOM     17  O   UNL     1       4.972   5.129  18.800  0.00  0.00    +0.000 OA
BRANCH  17  18
ATOM     18  C   UNL     1       6.021   4.803  17.856  0.00  0.00    +0.000 C 
BRANCH  18  19
ATOM     19  C   UNL     1       5.683   5.002  16.377  0.00  0.00    +0.000 C 
ATOM     20  C   UNL     1       5.529   3.710  15.599  0.00  0.00    +0.000 C 
ATOM     21  C   UNL     1       6.018   4.095  14.223  0.00  0.00    +0.000 C 
ATOM     22  C   UNL     1       7.143   5.054  14.537  0.00  0.00    +0.000 C 
ATOM     23  O   UNL     1       6.773   5.725  15.750  0.00  0.00    +0.000 OA
ENDBRANCH  18  19
ENDBRANCH  17  18
ENDBRANCH   7  17
TORSDOF 5
ENDMDL
