MODEL 1
REMARK VINA RESULT:      -7.2      0.000      0.000
REMARK  Name = 
REMARK  7 active torsions:
REMARK  status: ('A' for Active; 'I' for Inactive)
REMARK    1  A    between atoms: C_1  and  C_2
REMARK    2  A    between atoms: C_2  and  C_4
REMARK    3  A    between atoms: C_4  and  C_5
REMARK    4  A    between atoms: C_9  and  C_10
REMARK    5  A    between atoms: C_15  and  O_16
REMARK    6  A    between atoms: C_17  and  C_18
REMARK    7  A    between atoms: C_17  and  O_19
REMARK                            x       y       z     vdW  Elec       q    Type
REMARK                         _______ _______ _______ _____ _____    ______ ____
ROOT
ATOM      1  C   UNL     1       3.544   3.702  18.231  0.00  0.00    +0.000 C 
ATOM      2  C   UNL     1       2.678   3.751  16.944  0.00  0.00    +0.000 C 
ATOM      3  C   UNL     1       3.104   4.865  19.221  0.00  0.00    +0.000 C 
ATOM      4  C   UNL     1       3.103   6.270  18.559  0.00  0.00    +0.000 C 
ATOM      5  C   UNL     1       2.730   7.377  19.543  0.00  0.00    +0.000 C 
ATOM      6  C   UNL     1       1.354   7.123  20.158  0.00  0.00    +0.000 C 
ATOM      7  C   UNL     1       0.985   8.228  21.148  0.00  0.00    +0.000 C 
ATOM      8  C   UNL     1       1.332   5.759  20.842  0.00  0.00    +0.000 C 
ATOM      9  C   UNL     1       1.710   4.620  19.870  0.00  0.00    +0.000 C 
ATOM     10  C   UNL     1       1.534   3.237  20.515  0.00  0.00    +0.000 C 
ATOM     11 CL   UNL     1       2.275   3.102  22.142  0.00  0.00    +0.000 Cl
ATOM     12  C   UNL     1       2.021   2.095  19.602  0.00  0.00    +0.000 C 
ATOM     13  C   UNL     1       3.435   2.317  18.979  0.00  0.00    +0.000 C 
ATOM     14  C   UNL     1       4.525   2.110  20.047  0.00  0.00    +0.000 C 
ENDROOT
BRANCH   1  16
ATOM     15  C   UNL     1       5.377   3.831  16.310  0.00  0.00    +0.000 C 
ATOM     16  C   UNL     1       5.020   3.921  17.778  0.00  0.00    +0.000 C 
ATOM     17  O   UNL     1       5.923   4.126  18.595  0.00  0.00    +0.000 OA
ENDBRANCH   1  16
BRANCH  12  18
ATOM     18  O   UNL     1       1.101   1.847  18.511  0.00  0.00    +0.000 OA
ATOM     19  H   UNL     1       1.162   2.566  17.859  0.00  0.00    +0.000 HD
ENDBRANCH  12  18
BRANCH  13  20
ATOM     20  O   UNL     1       3.623   1.246  18.026  0.00  0.00    +0.000 OA
ATOM     21  H   UNL     1       3.911   0.469  18.549  0.00  0.00    +0.000 HD
ENDBRANCH  13  20
TORSDOF 3
ENDMDL
MODEL 2
REMARK VINA RESULT:      -6.6      1.651      1.982
REMARK  Name = 
REMARK  7 active torsions:
REMARK  status: ('A' for Active; 'I' for Inactive)
REMARK    1  A    between atoms: C_1  and  C_2
REMARK    2  A    between atoms: C_2  and  C_4
REMARK    3  A    between atoms: C_4  and  C_5
REMARK    4  A    between atoms: C_9  and  C_10
REMARK    5  A    between atoms: C_15  and  O_16
REMARK    6  A    between atoms: C_17  and  C_18
REMARK    7  A    between atoms: C_17  and  O_19
REMARK                            x       y       z     vdW  Elec       q    Type
REMARK                         _______ _______ _______ _____ _____    ______ ____
ROOT
ATOM      1  C   UNL     1       4.568   4.389  17.720  0.00  0.00    +0.000 C 
ATOM      2  C   UNL     1       4.450   4.168  16.189  0.00  0.00    +0.000 C 
ATOM      3  C   UNL     1       3.845   5.746  18.126  0.00  0.00    +0.000 C 
ATOM      4  C   UNL     1       4.332   6.973  17.308  0.00  0.00    +0.000 C 
ATOM      5  C   UNL     1       3.661   8.272  17.752  0.00  0.00    +0.000 C 
ATOM      6  C   UNL     1       2.141   8.173  17.631  0.00  0.00    +0.000 C 
ATOM      7  C   UNL     1       1.472   9.471  18.082  0.00  0.00    +0.000 C 
ATOM      8  C   UNL     1       1.628   6.990  18.448  0.00  0.00    +0.000 C 
ATOM      9  C   UNL     1       2.293   5.664  18.023  0.00  0.00    +0.000 C 
ATOM     10  C   UNL     1       1.663   4.456  18.734  0.00  0.00    +0.000 C 
ATOM     11 CL   UNL     1       1.498   4.670  20.506  0.00  0.00    +0.000 Cl
ATOM     12  C   UNL     1       2.393   3.137  18.413  0.00  0.00    +0.000 C 
ATOM     13  C   UNL     1       3.946   3.202  18.552  0.00  0.00    +0.000 C 
ATOM     14  C   UNL     1       4.347   3.220  20.039  0.00  0.00    +0.000 C 
ENDROOT
BRANCH   1  16
ATOM     15  C   UNL     1       7.101   4.397  16.909  0.00  0.00    +0.000 C 
ATOM     16  C   UNL     1       6.093   4.488  18.035  0.00  0.00    +0.000 C 
ATOM     17  O   UNL     1       6.508   4.597  19.193  0.00  0.00    +0.000 OA
ENDBRANCH   1  16
BRANCH  12  18
ATOM     18  O   UNL     1       2.097   2.668  17.075  0.00  0.00    +0.000 OA
ATOM     19  H   UNL     1       1.234   2.221  17.066  0.00  0.00    +0.000 HD
ENDBRANCH  12  18
BRANCH  13  20
ATOM     20  O   UNL     1       4.446   1.947  18.035  0.00  0.00    +0.000 OA
ATOM     21  H   UNL     1       5.283   2.162  17.573  0.00  0.00    +0.000 HD
ENDBRANCH  13  20
TORSDOF 3
ENDMDL
MODEL 3
REMARK VINA RESULT:      -6.5      2.399      4.016
REMARK  Name = 
REMARK  7 active torsions:
REMARK  status: ('A' for Active; 'I' for Inactive)
REMARK    1  A    between atoms: C_1  and  C_2
REMARK    2  A    between atoms: C_2  and  C_4
REMARK    3  A    between atoms: C_4  and  C_5
REMARK    4  A    between atoms: C_9  and  C_10
REMARK    5  A    between atoms: C_15  and  O_16
REMARK    6  A    between atoms: C_17  and  C_18
REMARK    7  A    between atoms: C_17  and  O_19
REMARK                            x       y       z     vdW  Elec       q    Type
REMARK                         _______ _______ _______ _____ _____    ______ ____
ROOT
ATOM      1  C   UNL     1       3.338   3.352  19.286  0.00  0.00    +0.000 C 
ATOM      2  C   UNL     1       3.459   2.351  18.106  0.00  0.00    +0.000 C 
ATOM      3  C   UNL     1       4.355   4.557  19.077  0.00  0.00    +0.000 C 
ATOM      4  C   UNL     1       5.818   4.094  18.838  0.00  0.00    +0.000 C 
ATOM      5  C   UNL     1       6.784   5.269  18.694  0.00  0.00    +0.000 C 
ATOM      6  C   UNL     1       6.365   6.185  17.545  0.00  0.00    +0.000 C 
ATOM      7  C   UNL     1       7.329   7.363  17.407  0.00  0.00    +0.000 C 
ATOM      8  C   UNL     1       4.938   6.679  17.765  0.00  0.00    +0.000 C 
ATOM      9  C   UNL     1       3.940   5.512  17.919  0.00  0.00    +0.000 C 
ATOM     10  C   UNL     1       2.487   6.007  17.982  0.00  0.00    +0.000 C 
ATOM     11 CL   UNL     1       2.236   7.357  19.135  0.00  0.00    +0.000 Cl
ATOM     12  C   UNL     1       1.487   4.867  18.256  0.00  0.00    +0.000 C 
ATOM     13  C   UNL     1       1.878   3.929  19.440  0.00  0.00    +0.000 C 
ATOM     14  C   UNL     1       1.640   4.643  20.785  0.00  0.00    +0.000 C 
ENDROOT
BRANCH   1  16
ATOM     15  C   UNL     1       4.897   1.619  20.563  0.00  0.00    +0.000 C 
ATOM     16  C   UNL     1       3.712   2.561  20.576  0.00  0.00    +0.000 C 
ATOM     17  O   UNL     1       3.038   2.649  21.607  0.00  0.00    +0.000 OA
ENDBRANCH   1  16
BRANCH  12  18
ATOM     18  O   UNL     1       1.288   4.032  17.089  0.00  0.00    +0.000 OA
ATOM     19  H   UNL     1       1.741   4.423  16.323  0.00  0.00    +0.000 HD
ENDBRANCH  12  18
BRANCH  13  20
ATOM     20  O   UNL     1       0.930   2.837  19.413  0.00  0.00    +0.000 OA
ATOM     21  H   UNL     1       1.115   2.302  20.214  0.00  0.00    +0.000 HD
ENDBRANCH  13  20
TORSDOF 3
ENDMDL
MODEL 4
REMARK VINA RESULT:      -6.3      2.041      3.803
REMARK  Name = 
REMARK  7 active torsions:
REMARK  status: ('A' for Active; 'I' for Inactive)
REMARK    1  A    between atoms: C_1  and  C_2
REMARK    2  A    between atoms: C_2  and  C_4
REMARK    3  A    between atoms: C_4  and  C_5
REMARK    4  A    between atoms: C_9  and  C_10
REMARK    5  A    between atoms: C_15  and  O_16
REMARK    6  A    between atoms: C_17  and  C_18
REMARK    7  A    between atoms: C_17  and  O_19
REMARK                            x       y       z     vdW  Elec       q    Type
REMARK                         _______ _______ _______ _____ _____    ______ ____
ROOT
ATOM      1  C   UNL     1       3.343   3.092  18.347  0.00  0.00    +0.000 C 
ATOM      2  C   UNL     1       3.198   2.588  16.887  0.00  0.00    +0.000 C 
ATOM      3  C   UNL     1       4.362   4.312  18.397  0.00  0.00    +0.000 C 
ATOM      4  C   UNL     1       5.732   3.999  17.736  0.00  0.00    +0.000 C 
ATOM      5  C   UNL     1       6.711   5.167  17.844  0.00  0.00    +0.000 C 
ATOM      6  C   UNL     1       6.132   6.427  17.202  0.00  0.00    +0.000 C 
ATOM      7  C   UNL     1       7.111   7.596  17.317  0.00  0.00    +0.000 C 
ATOM      8  C   UNL     1       4.796   6.777  17.851  0.00  0.00    +0.000 C 
ATOM      9  C   UNL     1       3.788   5.612  17.760  0.00  0.00    +0.000 C 
ATOM     10  C   UNL     1       2.397   6.020  18.270  0.00  0.00    +0.000 C 
ATOM     11 CL   UNL     1       2.428   6.854  19.856  0.00  0.00    +0.000 Cl
ATOM     12  C   UNL     1       1.411   4.836  18.299  0.00  0.00    +0.000 C 
ATOM     13  C   UNL     1       1.966   3.542  18.971  0.00  0.00    +0.000 C 
ATOM     14  C   UNL     1       2.014   3.715  20.501  0.00  0.00    +0.000 C 
ENDROOT
BRANCH   1  16
ATOM     15  C   UNL     1       4.694   2.161  20.440  0.00  0.00    +0.000 C 
ATOM     16  C   UNL     1       3.910   1.896  19.172  0.00  0.00    +0.000 C 
ATOM     17  O   UNL     1       3.773   0.728  18.795  0.00  0.00    +0.000 OA
ENDBRANCH   1  16
BRANCH  12  18
ATOM     18  O   UNL     1       0.961   4.475  16.970  0.00  0.00    +0.000 OA
ATOM     19  H   UNL     1       0.696   3.540  16.955  0.00  0.00    +0.000 HD
ENDBRANCH  12  18
BRANCH  13  20
ATOM     20  O   UNL     1       0.978   2.513  18.733  0.00  0.00    +0.000 OA
ATOM     21  H   UNL     1       0.754   2.572  17.781  0.00  0.00    +0.000 HD
ENDBRANCH  13  20
TORSDOF 3
ENDMDL
MODEL 5
REMARK VINA RESULT:      -6.1      2.419      4.828
REMARK  Name = 
REMARK  7 active torsions:
REMARK  status: ('A' for Active; 'I' for Inactive)
REMARK    1  A    between atoms: C_1  and  C_2
REMARK    2  A    between atoms: C_2  and  C_4
REMARK    3  A    between atoms: C_4  and  C_5
REMARK    4  A    between atoms: C_9  and  C_10
REMARK    5  A    between atoms: C_15  and  O_16
REMARK    6  A    between atoms: C_17  and  C_18
REMARK    7  A    between atoms: C_17  and  O_19
REMARK                            x       y       z     vdW  Elec       q    Type
REMARK                         _______ _______ _______ _____ _____    ______ ____
ROOT
ATOM      1  C   UNL     1       3.729   5.475  18.819  0.00  0.00    +0.000 C 
ATOM      2  C   UNL     1       5.022   5.747  19.633  0.00  0.00    +0.000 C 
ATOM      3  C   UNL     1       4.104   5.118  17.316  0.00  0.00    +0.000 C 
ATOM      4  C   UNL     1       5.020   6.176  16.642  0.00  0.00    +0.000 C 
ATOM      5  C   UNL     1       5.323   5.839  15.183  0.00  0.00    +0.000 C 
ATOM      6  C   UNL     1       5.986   4.467  15.064  0.00  0.00    +0.000 C 
ATOM      7  C   UNL     1       6.281   4.129  13.602  0.00  0.00    +0.000 C 
ATOM      8  C   UNL     1       5.095   3.401  15.693  0.00  0.00    +0.000 C 
ATOM      9  C   UNL     1       4.769   3.718  17.168  0.00  0.00    +0.000 C 
ATOM     10  C   UNL     1       4.007   2.569  17.845  0.00  0.00    +0.000 C 
ATOM     11 CL   UNL     1       2.614   1.967  16.889  0.00  0.00    +0.000 Cl
ATOM     12  C   UNL     1       3.569   2.917  19.281  0.00  0.00    +0.000 C 
ATOM     13  C   UNL     1       2.866   4.303  19.428  0.00  0.00    +0.000 C 
ATOM     14  C   UNL     1       1.435   4.237  18.863  0.00  0.00    +0.000 C 
ENDROOT
BRANCH   1  16
ATOM     15  C   UNL     1       2.679   7.584  17.586  0.00  0.00    +0.000 C 
ATOM     16  C   UNL     1       2.897   6.793  18.859  0.00  0.00    +0.000 C 
ATOM     17  O   UNL     1       2.442   7.239  19.917  0.00  0.00    +0.000 OA
ENDBRANCH   1  16
BRANCH  12  18
ATOM     18  O   UNL     1       4.683   2.896  20.206  0.00  0.00    +0.000 OA
ATOM     19  H   UNL     1       4.357   2.753  21.110  0.00  0.00    +0.000 HD
ENDBRANCH  12  18
BRANCH  13  20
ATOM     20  O   UNL     1       2.707   4.520  20.849  0.00  0.00    +0.000 OA
ATOM     21  H   UNL     1       3.498   5.023  21.134  0.00  0.00    +0.000 HD
ENDBRANCH  13  20
TORSDOF 3
ENDMDL
MODEL 6
REMARK VINA RESULT:      -6.0      2.785      4.524
REMARK  Name = 
REMARK  7 active torsions:
REMARK  status: ('A' for Active; 'I' for Inactive)
REMARK    1  A    between atoms: C_1  and  C_2
REMARK    2  A    between atoms: C_2  and  C_4
REMARK    3  A    between atoms: C_4  and  C_5
REMARK    4  A    between atoms: C_9  and  C_10
REMARK    5  A    between atoms: C_15  and  O_16
REMARK    6  A    between atoms: C_17  and  C_18
REMARK    7  A    between atoms: C_17  and  O_19
REMARK                            x       y       z     vdW  Elec       q    Type
REMARK                         _______ _______ _______ _____ _____    ______ ____
ROOT
ATOM      1  C   UNL     1       5.229   4.680  18.488  0.00  0.00    +0.000 C 
ATOM      2  C   UNL     1       5.913   5.142  19.803  0.00  0.00    +0.000 C 
ATOM      3  C   UNL     1       4.062   5.689  18.104  0.00  0.00    +0.000 C 
ATOM      4  C   UNL     1       3.044   5.921  19.255  0.00  0.00    +0.000 C 
ATOM      5  C   UNL     1       1.904   6.851  18.844  0.00  0.00    +0.000 C 
ATOM      6  C   UNL     1       2.441   8.205  18.383  0.00  0.00    +0.000 C 
ATOM      7  C   UNL     1       1.299   9.132  17.966  0.00  0.00    +0.000 C 
ATOM      8  C   UNL     1       3.425   8.013  17.233  0.00  0.00    +0.000 C 
ATOM      9  C   UNL     1       4.587   7.072  17.618  0.00  0.00    +0.000 C 
ATOM     10  C   UNL     1       5.657   7.005  16.517  0.00  0.00    +0.000 C 
ATOM     11 CL   UNL     1       4.986   6.725  14.879  0.00  0.00    +0.000 Cl
ATOM     12  C   UNL     1       6.763   5.980  16.834  0.00  0.00    +0.000 C 
ATOM     13  C   UNL     1       6.243   4.579  17.284  0.00  0.00    +0.000 C 
ATOM     14  C   UNL     1       5.683   3.805  16.075  0.00  0.00    +0.000 C 
ENDROOT
BRANCH   1  16
ATOM     15  C   UNL     1       3.428   2.788  17.995  0.00  0.00    +0.000 C 
ATOM     16  C   UNL     1       4.635   3.267  18.774  0.00  0.00    +0.000 C 
ATOM     17  O   UNL     1       5.098   2.536  19.655  0.00  0.00    +0.000 OA
ENDBRANCH   1  16
BRANCH  12  18
ATOM     18  O   UNL     1       7.665   6.458  17.861  0.00  0.00    +0.000 OA
ATOM     19  H   UNL     1       8.579   6.220  17.633  0.00  0.00    +0.000 HD
ENDBRANCH  12  18
BRANCH  13  20
ATOM     20  O   UNL     1       7.410   3.837  17.706  0.00  0.00    +0.000 OA
ATOM     21  H   UNL     1       8.137   4.491  17.764  0.00  0.00    +0.000 HD
ENDBRANCH  13  20
TORSDOF 3
ENDMDL
MODEL 7
REMARK VINA RESULT:      -6.0      3.087      5.869
REMARK  Name = 
REMARK  7 active torsions:
REMARK  status: ('A' for Active; 'I' for Inactive)
REMARK    1  A    between atoms: C_1  and  C_2
REMARK    2  A    between atoms: C_2  and  C_4
REMARK    3  A    between atoms: C_4  and  C_5
REMARK    4  A    between atoms: C_9  and  C_10
REMARK    5  A    between atoms: C_15  and  O_16
REMARK    6  A    between atoms: C_17  and  C_18
REMARK    7  A    between atoms: C_17  and  O_19
REMARK                            x       y       z     vdW  Elec       q    Type
REMARK                         _______ _______ _______ _____ _____    ______ ____
ROOT
ATOM      1  C   UNL     1       6.637   5.524  17.557  0.00  0.00    +0.000 C 
ATOM      2  C   UNL     1       7.834   4.630  17.976  0.00  0.00    +0.000 C 
ATOM      3  C   UNL     1       6.171   5.146  16.085  0.00  0.00    +0.000 C 
ATOM      4  C   UNL     1       7.326   5.173  15.047  0.00  0.00    +0.000 C 
ATOM      5  C   UNL     1       6.844   4.859  13.632  0.00  0.00    +0.000 C 
ATOM      6  C   UNL     1       6.165   3.491  13.576  0.00  0.00    +0.000 C 
ATOM      7  C   UNL     1       5.677   3.181  12.160  0.00  0.00    +0.000 C 
ATOM      8  C   UNL     1       5.006   3.443  14.567  0.00  0.00    +0.000 C 
ATOM      9  C   UNL     1       5.464   3.761  16.006  0.00  0.00    +0.000 C 
ATOM     10  C   UNL     1       4.331   3.557  17.024  0.00  0.00    +0.000 C 
ATOM     11 CL   UNL     1       2.787   4.332  16.547  0.00  0.00    +0.000 Cl
ATOM     12  C   UNL     1       4.736   3.985  18.448  0.00  0.00    +0.000 C 
ATOM     13  C   UNL     1       5.410   5.390  18.539  0.00  0.00    +0.000 C 
ATOM     14  C   UNL     1       4.356   6.499  18.359  0.00  0.00    +0.000 C 
ENDROOT
BRANCH   1  16
ATOM     15  C   UNL     1       8.233   7.393  18.572  0.00  0.00    +0.000 C 
ATOM     16  C   UNL     1       7.154   6.996  17.587  0.00  0.00    +0.000 C 
ATOM     17  O   UNL     1       6.674   7.865  16.853  0.00  0.00    +0.000 OA
ENDBRANCH   1  16
BRANCH  12  18
ATOM     18  O   UNL     1       5.636   3.032  19.064  0.00  0.00    +0.000 OA
ATOM     19  H   UNL     1       5.133   2.424  19.632  0.00  0.00    +0.000 HD
ENDBRANCH  12  18
BRANCH  13  20
ATOM     20  O   UNL     1       5.875   5.521  19.902  0.00  0.00    +0.000 OA
ATOM     21  H   UNL     1       5.080   5.432  20.467  0.00  0.00    +0.000 HD
ENDBRANCH  13  20
TORSDOF 3
ENDMDL
MODEL 8
REMARK VINA RESULT:      -5.7     10.795     12.670
REMARK  Name = 
REMARK  7 active torsions:
REMARK  status: ('A' for Active; 'I' for Inactive)
REMARK    1  A    between atoms: C_1  and  C_2
REMARK    2  A    between atoms: C_2  and  C_4
REMARK    3  A    between atoms: C_4  and  C_5
REMARK    4  A    between atoms: C_9  and  C_10
REMARK    5  A    between atoms: C_15  and  O_16
REMARK    6  A    between atoms: C_17  and  C_18
REMARK    7  A    between atoms: C_17  and  O_19
REMARK                            x       y       z     vdW  Elec       q    Type
REMARK                         _______ _______ _______ _____ _____    ______ ____
ROOT
ATOM      1  C   UNL     1      10.370  15.054  18.659  0.00  0.00    +0.000 C 
ATOM      2  C   UNL     1       9.049  15.730  18.203  0.00  0.00    +0.000 C 
ATOM      3  C   UNL     1      10.180  14.420  20.105  0.00  0.00    +0.000 C 
ATOM      4  C   UNL     1       9.635  15.430  21.153  0.00  0.00    +0.000 C 
ATOM      5  C   UNL     1       9.512  14.812  22.545  0.00  0.00    +0.000 C 
ATOM      6  C   UNL     1       8.600  13.587  22.522  0.00  0.00    +0.000 C 
ATOM      7  C   UNL     1       8.484  12.968  23.915  0.00  0.00    +0.000 C 
ATOM      8  C   UNL     1       9.126  12.563  21.520  0.00  0.00    +0.000 C 
ATOM      9  C   UNL     1       9.264  13.161  20.104  0.00  0.00    +0.000 C 
ATOM     10  C   UNL     1       9.640  12.092  19.067  0.00  0.00    +0.000 C 
ATOM     11 CL   UNL     1      11.010  11.050  19.571  0.00  0.00    +0.000 Cl
ATOM     12  C   UNL     1       9.900  12.691  17.671  0.00  0.00    +0.000 C 
ATOM     13  C   UNL     1      10.849  13.930  17.661  0.00  0.00    +0.000 C 
ATOM     14  C   UNL     1      12.306  13.487  17.891  0.00  0.00    +0.000 C 
ENDROOT
BRANCH   1  16
ATOM     15  C   UNL     1      12.333  16.317  19.931  0.00  0.00    +0.000 C 
ATOM     16  C   UNL     1      11.447  16.181  18.711  0.00  0.00    +0.000 C 
ATOM     17  O   UNL     1      11.570  17.001  17.796  0.00  0.00    +0.000 OA
ENDBRANCH   1  16
BRANCH  12  18
ATOM     18  O   UNL     1       8.670  13.082  17.014  0.00  0.00    +0.000 OA
ATOM     19  H   UNL     1       8.015  13.357  17.677  0.00  0.00    +0.000 HD
ENDBRANCH  12  18
BRANCH  13  20
ATOM     20  O   UNL     1      10.814  14.448  16.311  0.00  0.00    +0.000 OA
ATOM     21  H   UNL     1      11.462  13.916  15.803  0.00  0.00    +0.000 HD
ENDBRANCH  13  20
TORSDOF 3
ENDMDL
MODEL 9
REMARK VINA RESULT:      -5.6      7.764     10.205
REMARK  Name = 
REMARK  7 active torsions:
REMARK  status: ('A' for Active; 'I' for Inactive)
REMARK    1  A    between atoms: C_1  and  C_2
REMARK    2  A    between atoms: C_2  and  C_4
REMARK    3  A    between atoms: C_4  and  C_5
REMARK    4  A    between atoms: C_9  and  C_10
REMARK    5  A    between atoms: C_15  and  O_16
REMARK    6  A    between atoms: C_17  and  C_18
REMARK    7  A    between atoms: C_17  and  O_19
REMARK                            x       y       z     vdW  Elec       q    Type
REMARK                         _______ _______ _______ _____ _____    ______ ____
ROOT
ATOM      1  C   UNL     1      -1.403  12.491  20.330  0.00  0.00    +0.000 C 
ATOM      2  C   UNL     1      -1.217  14.001  20.026  0.00  0.00    +0.000 C 
ATOM      3  C   UNL     1      -2.952  12.131  20.350  0.00  0.00    +0.000 C 
ATOM      4  C   UNL     1      -3.781  13.036  21.302  0.00  0.00    +0.000 C 
ATOM      5  C   UNL     1      -5.256  12.637  21.345  0.00  0.00    +0.000 C 
ATOM      6  C   UNL     1      -5.878  12.689  19.951  0.00  0.00    +0.000 C 
ATOM      7  C   UNL     1      -7.352  12.283  19.996  0.00  0.00    +0.000 C 
ATOM      8  C   UNL     1      -5.100  11.787  18.998  0.00  0.00    +0.000 C 
ATOM      9  C   UNL     1      -3.605  12.165  18.937  0.00  0.00    +0.000 C 
ATOM     10  C   UNL     1      -2.856  11.363  17.862  0.00  0.00    +0.000 C 
ATOM     11 CL   UNL     1      -3.175   9.600  17.927  0.00  0.00    +0.000 Cl
ATOM     12  C   UNL     1      -1.340  11.640  17.870  0.00  0.00    +0.000 C 
ATOM     13  C   UNL     1      -0.672  11.569  19.278  0.00  0.00    +0.000 C 
ATOM     14  C   UNL     1      -0.543  10.103  19.733  0.00  0.00    +0.000 C 
ENDROOT
BRANCH   1  16
ATOM     15  C   UNL     1      -1.578  11.499  22.790  0.00  0.00    +0.000 C 
ATOM     16  C   UNL     1      -0.783  12.245  21.740  0.00  0.00    +0.000 C 
ATOM     17  O   UNL     1       0.331  12.683  22.042  0.00  0.00    +0.000 OA
ENDBRANCH   1  16
BRANCH  12  18
ATOM     18  O   UNL     1      -1.025  12.936  17.306  0.00  0.00    +0.000 OA
ATOM     19  H   UNL     1      -0.100  13.164  17.499  0.00  0.00    +0.000 HD
ENDBRANCH  12  18
BRANCH  13  20
ATOM     20  O   UNL     1       0.685  12.036  19.100  0.00  0.00    +0.000 OA
ATOM     21  H   UNL     1       1.153  11.322  18.618  0.00  0.00    +0.000 HD
ENDBRANCH  13  20
TORSDOF 3
ENDMDL
