MODEL 1
REMARK VINA RESULT:      -7.4      0.000      0.000
REMARK  Name = 
REMARK  5 active torsions:
REMARK  status: ('A' for Active; 'I' for Inactive)
REMARK    1  A    between atoms: C_1  and  C_2
REMARK    2  A    between atoms: C_3  and  C_4
REMARK    3  A    between atoms: C_4  and  O_5
REMARK    4  A    between atoms: O_5  and  C_6
REMARK    5  A    between atoms: C_17  and  C_19
REMARK                            x       y       z     vdW  Elec       q    Type
REMARK                         _______ _______ _______ _____ _____    ______ ____
ROOT
ATOM      1  C   UNL     1       0.117   8.897  22.294  0.00  0.00    +0.000 C 
ATOM      2  C   UNL     1       0.700   9.309  20.994  0.00  0.00    +0.000 A 
ATOM      3  C   UNL     1       0.669  10.607  20.386  0.00  0.00    +0.000 A 
ATOM      4  N   UNL     1       1.271  10.598  19.187  0.00  0.00    +0.000 NA
ATOM      5  N   UNL     1       1.649   9.326  19.024  0.00  0.00    +0.000 N 
ATOM      6  C   UNL     1       1.395   8.513  20.092  0.00  0.00    +0.000 A 
ATOM      7  C   UNL     1       1.813   7.069  20.099  0.00  0.00    +0.000 C 
ATOM      8  N   UNL     1       2.645   6.778  18.921  0.00  0.00    +0.000 N 
ATOM      9  C   UNL     1       3.669   5.832  19.034  0.00  0.00    +0.000 C 
ATOM     10  O   UNL     1       3.834   5.160  20.050  0.00  0.00    +0.000 OA
ATOM     11  C   UNL     1       2.165   7.391  17.677  0.00  0.00    +0.000 C 
ATOM     12  C   UNL     1       2.288   8.903  17.794  0.00  0.00    +0.000 C 
ENDROOT
BRANCH   9  13
ATOM     13  C   UNL     1       4.618   5.602  17.896  0.00  0.00    +0.000 A 
ATOM     14  C   UNL     1       5.797   6.345  17.737  0.00  0.00    +0.000 A 
ATOM     15  C   UNL     1       6.616   6.156  16.621  0.00  0.00    +0.000 A 
ATOM     16  C   UNL     1       6.304   5.159  15.704  0.00  0.00    +0.000 A 
ATOM     17  F   UNL     1       7.091   4.979  14.636  0.00  0.00    +0.000 F 
ATOM     18  C   UNL     1       5.191   4.345  15.894  0.00  0.00    +0.000 A 
ATOM     19  C   UNL     1       4.349   4.564  16.988  0.00  0.00    +0.000 A 
ENDBRANCH   9  13
BRANCH   3  20
ATOM     20  C   UNL     1       0.095  11.891  20.925  0.00  0.00    +0.000 C 
BRANCH  20  21
ATOM     21  O   UNL     1      -1.232  12.119  20.431  0.00  0.00    +0.000 OA
BRANCH  21  22
ATOM     22  C   UNL     1      -2.196  12.354  21.376  0.00  0.00    +0.000 A 
ATOM     23  C   UNL     1      -3.395  12.877  20.886  0.00  0.00    +0.000 A 
ATOM     24  C   UNL     1      -4.471  13.119  21.745  0.00  0.00    +0.000 A 
ATOM     25  C   UNL     1      -4.357  12.823  23.100  0.00  0.00    +0.000 A 
ATOM     26  C   UNL     1      -3.166  12.292  23.595  0.00  0.00    +0.000 A 
ATOM     27  C   UNL     1      -2.086  12.057  22.736  0.00  0.00    +0.000 A 
ENDBRANCH  21  22
ENDBRANCH  20  21
ENDBRANCH   3  20
TORSDOF 4
ENDMDL
MODEL 2
REMARK VINA RESULT:      -7.4      1.150      1.891
REMARK  Name = 
REMARK  5 active torsions:
REMARK  status: ('A' for Active; 'I' for Inactive)
REMARK    1  A    between atoms: C_1  and  C_2
REMARK    2  A    between atoms: C_3  and  C_4
REMARK    3  A    between atoms: C_4  and  O_5
REMARK    4  A    between atoms: O_5  and  C_6
REMARK    5  A    between atoms: C_17  and  C_19
REMARK                            x       y       z     vdW  Elec       q    Type
REMARK                         _______ _______ _______ _____ _____    ______ ____
ROOT
ATOM      1  C   UNL     1       0.226   8.913  22.252  0.00  0.00    +0.000 C 
ATOM      2  C   UNL     1       0.768   9.271  20.919  0.00  0.00    +0.000 A 
ATOM      3  C   UNL     1       0.695  10.537  20.250  0.00  0.00    +0.000 A 
ATOM      4  N   UNL     1       1.267  10.480  19.037  0.00  0.00    +0.000 NA
ATOM      5  N   UNL     1       1.667   9.210  18.927  0.00  0.00    +0.000 N 
ATOM      6  C   UNL     1       1.457   8.446  20.039  0.00  0.00    +0.000 A 
ATOM      7  C   UNL     1       1.904   7.012  20.107  0.00  0.00    +0.000 C 
ATOM      8  N   UNL     1       2.713   6.680  18.923  0.00  0.00    +0.000 N 
ATOM      9  C   UNL     1       3.758   5.761  19.056  0.00  0.00    +0.000 C 
ATOM     10  O   UNL     1       3.963   5.143  20.098  0.00  0.00    +0.000 OA
ATOM     11  C   UNL     1       2.189   7.221  17.663  0.00  0.00    +0.000 C 
ATOM     12  C   UNL     1       2.284   8.738  17.703  0.00  0.00    +0.000 C 
ENDROOT
BRANCH   9  13
ATOM     13  C   UNL     1       4.684   5.493  17.905  0.00  0.00    +0.000 A 
ATOM     14  C   UNL     1       4.426   4.501  16.947  0.00  0.00    +0.000 A 
ATOM     15  C   UNL     1       5.350   4.228  15.936  0.00  0.00    +0.000 A 
ATOM     16  C   UNL     1       6.496   5.006  15.827  0.00  0.00    +0.000 A 
ATOM     17  F   UNL     1       7.380   4.743  14.856  0.00  0.00    +0.000 F 
ATOM     18  C   UNL     1       6.724   6.059  16.709  0.00  0.00    +0.000 A 
ATOM     19  C   UNL     1       5.820   6.304  17.747  0.00  0.00    +0.000 A 
ENDBRANCH   9  13
BRANCH   3  20
ATOM     20  C   UNL     1       0.108  11.835  20.740  0.00  0.00    +0.000 C 
BRANCH  20  21
ATOM     21  O   UNL     1      -0.451  12.597  19.662  0.00  0.00    +0.000 OA
BRANCH  21  22
ATOM     22  C   UNL     1      -1.796  12.444  19.448  0.00  0.00    +0.000 A 
ATOM     23  C   UNL     1      -2.139  11.754  18.283  0.00  0.00    +0.000 A 
ATOM     24  C   UNL     1      -3.477  11.495  17.975  0.00  0.00    +0.000 A 
ATOM     25  C   UNL     1      -4.482  11.913  18.843  0.00  0.00    +0.000 A 
ATOM     26  C   UNL     1      -4.146  12.594  20.013  0.00  0.00    +0.000 A 
ATOM     27  C   UNL     1      -2.806  12.860  20.317  0.00  0.00    +0.000 A 
ENDBRANCH  21  22
ENDBRANCH  20  21
ENDBRANCH   3  20
TORSDOF 4
ENDMDL
MODEL 3
REMARK VINA RESULT:      -7.4      1.227      1.807
REMARK  Name = 
REMARK  5 active torsions:
REMARK  status: ('A' for Active; 'I' for Inactive)
REMARK    1  A    between atoms: C_1  and  C_2
REMARK    2  A    between atoms: C_3  and  C_4
REMARK    3  A    between atoms: C_4  and  O_5
REMARK    4  A    between atoms: O_5  and  C_6
REMARK    5  A    between atoms: C_17  and  C_19
REMARK                            x       y       z     vdW  Elec       q    Type
REMARK                         _______ _______ _______ _____ _____    ______ ____
ROOT
ATOM      1  C   UNL     1       0.227   8.534  22.194  0.00  0.00    +0.000 C 
ATOM      2  C   UNL     1       0.799   8.932  20.885  0.00  0.00    +0.000 A 
ATOM      3  C   UNL     1       0.705  10.205  20.234  0.00  0.00    +0.000 A 
ATOM      4  N   UNL     1       1.317  10.188  19.040  0.00  0.00    +0.000 NA
ATOM      5  N   UNL     1       1.763   8.933  18.923  0.00  0.00    +0.000 N 
ATOM      6  C   UNL     1       1.543   8.144  20.016  0.00  0.00    +0.000 A 
ATOM      7  C   UNL     1       2.036   6.725  20.075  0.00  0.00    +0.000 C 
ATOM      8  N   UNL     1       2.893   6.440  18.913  0.00  0.00    +0.000 N 
ATOM      9  C   UNL     1       3.963   5.553  19.066  0.00  0.00    +0.000 C 
ATOM     10  O   UNL     1       4.155   4.925  20.105  0.00  0.00    +0.000 OA
ATOM     11  C   UNL     1       2.392   6.984  17.646  0.00  0.00    +0.000 C 
ATOM     12  C   UNL     1       2.434   8.503  17.712  0.00  0.00    +0.000 C 
ENDROOT
BRANCH   9  13
ATOM     13  C   UNL     1       4.934   5.335  17.942  0.00  0.00    +0.000 A 
ATOM     14  C   UNL     1       6.105   6.094  17.802  0.00  0.00    +0.000 A 
ATOM     15  C   UNL     1       6.943   5.916  16.698  0.00  0.00    +0.000 A 
ATOM     16  C   UNL     1       6.659   4.915  15.777  0.00  0.00    +0.000 A 
ATOM     17  F   UNL     1       7.465   4.745  14.722  0.00  0.00    +0.000 F 
ATOM     18  C   UNL     1       5.555   4.085  15.951  0.00  0.00    +0.000 A 
ATOM     19  C   UNL     1       4.693   4.293  17.032  0.00  0.00    +0.000 A 
ENDBRANCH   9  13
BRANCH   3  20
ATOM     20  C   UNL     1       0.059  11.475  20.725  0.00  0.00    +0.000 C 
BRANCH  20  21
ATOM     21  O   UNL     1      -0.447  12.260  19.637  0.00  0.00    +0.000 OA
BRANCH  21  22
ATOM     22  C   UNL     1      -1.763  12.062  19.312  0.00  0.00    +0.000 A 
ATOM     23  C   UNL     1      -2.686  12.631  20.193  0.00  0.00    +0.000 A 
ATOM     24  C   UNL     1      -4.058  12.536  19.948  0.00  0.00    +0.000 A 
ATOM     25  C   UNL     1      -4.516  11.881  18.807  0.00  0.00    +0.000 A 
ATOM     26  C   UNL     1      -3.600  11.319  17.919  0.00  0.00    +0.000 A 
ATOM     27  C   UNL     1      -2.226  11.408  18.168  0.00  0.00    +0.000 A 
ENDBRANCH  21  22
ENDBRANCH  20  21
ENDBRANCH   3  20
TORSDOF 4
ENDMDL
MODEL 4
REMARK VINA RESULT:      -7.4      0.367      1.340
REMARK  Name = 
REMARK  5 active torsions:
REMARK  status: ('A' for Active; 'I' for Inactive)
REMARK    1  A    between atoms: C_1  and  C_2
REMARK    2  A    between atoms: C_3  and  C_4
REMARK    3  A    between atoms: C_4  and  O_5
REMARK    4  A    between atoms: O_5  and  C_6
REMARK    5  A    between atoms: C_17  and  C_19
REMARK                            x       y       z     vdW  Elec       q    Type
REMARK                         _______ _______ _______ _____ _____    ______ ____
ROOT
ATOM      1  C   UNL     1       0.391   9.097  22.597  0.00  0.00    +0.000 C 
ATOM      2  C   UNL     1       0.801   9.466  21.220  0.00  0.00    +0.000 A 
ATOM      3  C   UNL     1       0.686  10.744  20.580  0.00  0.00    +0.000 A 
ATOM      4  N   UNL     1       1.129  10.696  19.314  0.00  0.00    +0.000 NA
ATOM      5  N   UNL     1       1.488   9.420  19.145  0.00  0.00    +0.000 N 
ATOM      6  C   UNL     1       1.378   8.642  20.262  0.00  0.00    +0.000 A 
ATOM      7  C   UNL     1       1.799   7.199  20.263  0.00  0.00    +0.000 C 
ATOM      8  N   UNL     1       2.475   6.870  18.997  0.00  0.00    +0.000 N 
ATOM      9  C   UNL     1       3.508   5.928  19.008  0.00  0.00    +0.000 C 
ATOM     10  O   UNL     1       3.806   5.290  20.015  0.00  0.00    +0.000 OA
ATOM     11  C   UNL     1       1.835   7.442  17.806  0.00  0.00    +0.000 C 
ATOM     12  C   UNL     1       1.966   8.956  17.857  0.00  0.00    +0.000 C 
ENDROOT
BRANCH   9  13
ATOM     13  C   UNL     1       4.305   5.661  17.765  0.00  0.00    +0.000 A 
ATOM     14  C   UNL     1       4.221   4.449  17.063  0.00  0.00    +0.000 A 
ATOM     15  C   UNL     1       5.037   4.207  15.956  0.00  0.00    +0.000 A 
ATOM     16  C   UNL     1       5.877   5.213  15.491  0.00  0.00    +0.000 A 
ATOM     17  F   UNL     1       6.657   4.979  14.429  0.00  0.00    +0.000 F 
ATOM     18  C   UNL     1       5.903   6.458  16.114  0.00  0.00    +0.000 A 
ATOM     19  C   UNL     1       5.119   6.683  17.249  0.00  0.00    +0.000 A 
ENDBRANCH   9  13
BRANCH   3  20
ATOM     20  C   UNL     1       0.180  12.045  21.147  0.00  0.00    +0.000 C 
BRANCH  20  21
ATOM     21  O   UNL     1      -1.017  12.475  20.483  0.00  0.00    +0.000 OA
BRANCH  21  22
ATOM     22  C   UNL     1      -2.142  12.553  21.261  0.00  0.00    +0.000 A 
ATOM     23  C   UNL     1      -1.965  12.203  22.601  0.00  0.00    +0.000 A 
ATOM     24  C   UNL     1      -3.027  12.284  23.506  0.00  0.00    +0.000 A 
ATOM     25  C   UNL     1      -4.273  12.732  23.075  0.00  0.00    +0.000 A 
ATOM     26  C   UNL     1      -4.454  13.092  21.740  0.00  0.00    +0.000 A 
ATOM     27  C   UNL     1      -3.392  13.004  20.833  0.00  0.00    +0.000 A 
ENDBRANCH  21  22
ENDBRANCH  20  21
ENDBRANCH   3  20
TORSDOF 4
ENDMDL
MODEL 5
REMARK VINA RESULT:      -7.3      0.852      1.160
REMARK  Name = 
REMARK  5 active torsions:
REMARK  status: ('A' for Active; 'I' for Inactive)
REMARK    1  A    between atoms: C_1  and  C_2
REMARK    2  A    between atoms: C_3  and  C_4
REMARK    3  A    between atoms: C_4  and  O_5
REMARK    4  A    between atoms: O_5  and  C_6
REMARK    5  A    between atoms: C_17  and  C_19
REMARK                            x       y       z     vdW  Elec       q    Type
REMARK                         _______ _______ _______ _____ _____    ______ ____
ROOT
ATOM      1  C   UNL     1       0.112   9.020  22.477  0.00  0.00    +0.000 C 
ATOM      2  C   UNL     1       0.648   9.427  21.155  0.00  0.00    +0.000 A 
ATOM      3  C   UNL     1       0.600  10.724  20.547  0.00  0.00    +0.000 A 
ATOM      4  N   UNL     1       1.156  10.711  19.326  0.00  0.00    +0.000 NA
ATOM      5  N   UNL     1       1.522   9.437  19.151  0.00  0.00    +0.000 N 
ATOM      6  C   UNL     1       1.305   8.627  20.229  0.00  0.00    +0.000 A 
ATOM      7  C   UNL     1       1.716   7.181  20.223  0.00  0.00    +0.000 C 
ATOM      8  N   UNL     1       2.502   6.885  19.014  0.00  0.00    +0.000 N 
ATOM      9  C   UNL     1       3.525   5.934  19.090  0.00  0.00    +0.000 C 
ATOM     10  O   UNL     1       3.726   5.263  20.100  0.00  0.00    +0.000 OA
ATOM     11  C   UNL     1       1.978   7.498  17.789  0.00  0.00    +0.000 C 
ATOM     12  C   UNL     1       2.112   9.009  17.898  0.00  0.00    +0.000 C 
ENDROOT
BRANCH   9  13
ATOM     13  C   UNL     1       4.430   5.698  17.917  0.00  0.00    +0.000 A 
ATOM     14  C   UNL     1       5.524   6.528  17.632  0.00  0.00    +0.000 A 
ATOM     15  C   UNL     1       6.296   6.323  16.486  0.00  0.00    +0.000 A 
ATOM     16  C   UNL     1       6.030   5.232  15.667  0.00  0.00    +0.000 A 
ATOM     17  F   UNL     1       6.773   5.037  14.570  0.00  0.00    +0.000 F 
ATOM     18  C   UNL     1       5.010   4.339  15.985  0.00  0.00    +0.000 A 
ATOM     19  C   UNL     1       4.210   4.571  17.108  0.00  0.00    +0.000 A 
ENDBRANCH   9  13
BRANCH   3  20
ATOM     20  C   UNL     1       0.052  12.012  21.106  0.00  0.00    +0.000 C 
BRANCH  20  21
ATOM     21  O   UNL     1      -1.371  11.947  21.270  0.00  0.00    +0.000 OA
BRANCH  21  22
ATOM     22  C   UNL     1      -1.886  12.621  22.346  0.00  0.00    +0.000 A 
ATOM     23  C   UNL     1      -1.099  13.674  22.820  0.00  0.00    +0.000 A 
ATOM     24  C   UNL     1      -1.534  14.466  23.886  0.00  0.00    +0.000 A 
ATOM     25  C   UNL     1      -2.771  14.217  24.476  0.00  0.00    +0.000 A 
ATOM     26  C   UNL     1      -3.565  13.174  24.001  0.00  0.00    +0.000 A 
ATOM     27  C   UNL     1      -3.126  12.376  22.938  0.00  0.00    +0.000 A 
ENDBRANCH  21  22
ENDBRANCH  20  21
ENDBRANCH   3  20
TORSDOF 4
ENDMDL
MODEL 6
REMARK VINA RESULT:      -7.2      0.732      1.154
REMARK  Name = 
REMARK  5 active torsions:
REMARK  status: ('A' for Active; 'I' for Inactive)
REMARK    1  A    between atoms: C_1  and  C_2
REMARK    2  A    between atoms: C_3  and  C_4
REMARK    3  A    between atoms: C_4  and  O_5
REMARK    4  A    between atoms: O_5  and  C_6
REMARK    5  A    between atoms: C_17  and  C_19
REMARK                            x       y       z     vdW  Elec       q    Type
REMARK                         _______ _______ _______ _____ _____    ______ ____
ROOT
ATOM      1  C   UNL     1       0.402   9.328  22.658  0.00  0.00    +0.000 C 
ATOM      2  C   UNL     1       0.829   9.691  21.285  0.00  0.00    +0.000 A 
ATOM      3  C   UNL     1       0.780  10.980  20.659  0.00  0.00    +0.000 A 
ATOM      4  N   UNL     1       1.218  10.923  19.393  0.00  0.00    +0.000 NA
ATOM      5  N   UNL     1       1.511   9.632  19.209  0.00  0.00    +0.000 N 
ATOM      6  C   UNL     1       1.362   8.849  20.317  0.00  0.00    +0.000 A 
ATOM      7  C   UNL     1       1.708   7.386  20.301  0.00  0.00    +0.000 C 
ATOM      8  N   UNL     1       2.364   7.037  19.031  0.00  0.00    +0.000 N 
ATOM      9  C   UNL     1       3.348   6.043  19.031  0.00  0.00    +0.000 C 
ATOM     10  O   UNL     1       3.613   5.379  20.030  0.00  0.00    +0.000 OA
ATOM     11  C   UNL     1       1.755   7.654  17.848  0.00  0.00    +0.000 C 
ATOM     12  C   UNL     1       1.963   9.159  17.915  0.00  0.00    +0.000 C 
ENDROOT
BRANCH   9  13
ATOM     13  C   UNL     1       4.129   5.749  17.783  0.00  0.00    +0.000 A 
ATOM     14  C   UNL     1       4.887   6.726  17.123  0.00  0.00    +0.000 A 
ATOM     15  C   UNL     1       5.536   6.435  15.920  0.00  0.00    +0.000 A 
ATOM     16  C   UNL     1       5.502   5.139  15.420  0.00  0.00    +0.000 A 
ATOM     17  F   UNL     1       6.125   4.861  14.268  0.00  0.00    +0.000 F 
ATOM     18  C   UNL     1       4.835   4.130  16.112  0.00  0.00    +0.000 A 
ATOM     19  C   UNL     1       4.150   4.433  17.292  0.00  0.00    +0.000 A 
ENDBRANCH   9  13
BRANCH   3  20
ATOM     20  C   UNL     1       0.342  12.299  21.241  0.00  0.00    +0.000 C 
BRANCH  20  21
ATOM     21  O   UNL     1      -0.475  12.112  22.405  0.00  0.00    +0.000 OA
BRANCH  21  22
ATOM     22  C   UNL     1      -1.818  12.327  22.240  0.00  0.00    +0.000 A 
ATOM     23  C   UNL     1      -2.569  12.333  23.418  0.00  0.00    +0.000 A 
ATOM     24  C   UNL     1      -3.943  12.585  23.386  0.00  0.00    +0.000 A 
ATOM     25  C   UNL     1      -4.573  12.848  22.172  0.00  0.00    +0.000 A 
ATOM     26  C   UNL     1      -3.827  12.853  20.994  0.00  0.00    +0.000 A 
ATOM     27  C   UNL     1      -2.452  12.593  21.025  0.00  0.00    +0.000 A 
ENDBRANCH  21  22
ENDBRANCH  20  21
ENDBRANCH   3  20
TORSDOF 4
ENDMDL
MODEL 7
REMARK VINA RESULT:      -7.1      2.044      3.325
REMARK  Name = 
REMARK  5 active torsions:
REMARK  status: ('A' for Active; 'I' for Inactive)
REMARK    1  A    between atoms: C_1  and  C_2
REMARK    2  A    between atoms: C_3  and  C_4
REMARK    3  A    between atoms: C_4  and  O_5
REMARK    4  A    between atoms: O_5  and  C_6
REMARK    5  A    between atoms: C_17  and  C_19
REMARK                            x       y       z     vdW  Elec       q    Type
REMARK                         _______ _______ _______ _____ _____    ______ ____
ROOT
ATOM      1  C   UNL     1       0.383   9.209  22.595  0.00  0.00    +0.000 C 
ATOM      2  C   UNL     1       0.793   9.569  21.216  0.00  0.00    +0.000 A 
ATOM      3  C   UNL     1       0.688  10.845  20.571  0.00  0.00    +0.000 A 
ATOM      4  N   UNL     1       1.127  10.788  19.304  0.00  0.00    +0.000 NA
ATOM      5  N   UNL     1       1.475   9.508  19.140  0.00  0.00    +0.000 N 
ATOM      6  C   UNL     1       1.360   8.736  20.260  0.00  0.00    +0.000 A 
ATOM      7  C   UNL     1       1.769   7.289  20.265  0.00  0.00    +0.000 C 
ATOM      8  N   UNL     1       2.439   6.949  18.999  0.00  0.00    +0.000 N 
ATOM      9  C   UNL     1       3.464   5.999  19.012  0.00  0.00    +0.000 C 
ATOM     10  O   UNL     1       3.758   5.362  20.021  0.00  0.00    +0.000 OA
ATOM     11  C   UNL     1       1.802   7.522  17.808  0.00  0.00    +0.000 C 
ATOM     12  C   UNL     1       1.946   9.036  17.852  0.00  0.00    +0.000 C 
ENDROOT
BRANCH   9  13
ATOM     13  C   UNL     1       4.256   5.720  17.768  0.00  0.00    +0.000 A 
ATOM     14  C   UNL     1       5.103   6.674  17.186  0.00  0.00    +0.000 A 
ATOM     15  C   UNL     1       5.762   6.405  15.984  0.00  0.00    +0.000 A 
ATOM     16  C   UNL     1       5.645   5.146  15.405  0.00  0.00    +0.000 A 
ATOM     17  F   UNL     1       6.278   4.890  14.254  0.00  0.00    +0.000 F 
ATOM     18  C   UNL     1       4.886   4.153  16.019  0.00  0.00    +0.000 A 
ATOM     19  C   UNL     1       4.192   4.438  17.198  0.00  0.00    +0.000 A 
ENDBRANCH   9  13
BRANCH   3  20
ATOM     20  C   UNL     1       0.194  12.153  21.134  0.00  0.00    +0.000 C 
BRANCH  20  21
ATOM     21  O   UNL     1       1.284  13.008  21.504  0.00  0.00    +0.000 OA
BRANCH  21  22
ATOM     22  C   UNL     1       1.640  13.963  20.589  0.00  0.00    +0.000 A 
ATOM     23  C   UNL     1       2.983  13.950  20.206  0.00  0.00    +0.000 A 
ATOM     24  C   UNL     1       3.460  14.846  19.247  0.00  0.00    +0.000 A 
ATOM     25  C   UNL     1       2.589  15.754  18.651  0.00  0.00    +0.000 A 
ATOM     26  C   UNL     1       1.244  15.766  19.021  0.00  0.00    +0.000 A 
ATOM     27  C   UNL     1       0.768  14.873  19.988  0.00  0.00    +0.000 A 
ENDBRANCH  21  22
ENDBRANCH  20  21
ENDBRANCH   3  20
TORSDOF 4
ENDMDL
MODEL 8
REMARK VINA RESULT:      -7.1      1.928      3.340
REMARK  Name = 
REMARK  5 active torsions:
REMARK  status: ('A' for Active; 'I' for Inactive)
REMARK    1  A    between atoms: C_1  and  C_2
REMARK    2  A    between atoms: C_3  and  C_4
REMARK    3  A    between atoms: C_4  and  O_5
REMARK    4  A    between atoms: O_5  and  C_6
REMARK    5  A    between atoms: C_17  and  C_19
REMARK                            x       y       z     vdW  Elec       q    Type
REMARK                         _______ _______ _______ _____ _____    ______ ____
ROOT
ATOM      1  C   UNL     1       0.175   8.879  22.365  0.00  0.00    +0.000 C 
ATOM      2  C   UNL     1       0.725   9.275  21.046  0.00  0.00    +0.000 A 
ATOM      3  C   UNL     1       0.670  10.564  20.420  0.00  0.00    +0.000 A 
ATOM      4  N   UNL     1       1.243  10.541  19.208  0.00  0.00    +0.000 NA
ATOM      5  N   UNL     1       1.627   9.270  19.055  0.00  0.00    +0.000 N 
ATOM      6  C   UNL     1       1.405   8.471  20.140  0.00  0.00    +0.000 A 
ATOM      7  C   UNL     1       1.833   7.031  20.159  0.00  0.00    +0.000 C 
ATOM      8  N   UNL     1       2.640   6.728  18.966  0.00  0.00    +0.000 N 
ATOM      9  C   UNL     1       3.673   5.792  19.069  0.00  0.00    +0.000 C 
ATOM     10  O   UNL     1       3.867   5.136  20.090  0.00  0.00    +0.000 OA
ATOM     11  C   UNL     1       2.126   7.319  17.725  0.00  0.00    +0.000 C 
ATOM     12  C   UNL     1       2.241   8.833  17.816  0.00  0.00    +0.000 C 
ENDROOT
BRANCH   9  13
ATOM     13  C   UNL     1       4.598   5.551  17.912  0.00  0.00    +0.000 A 
ATOM     14  C   UNL     1       4.366   4.548  16.960  0.00  0.00    +0.000 A 
ATOM     15  C   UNL     1       5.291   4.302  15.942  0.00  0.00    +0.000 A 
ATOM     16  C   UNL     1       6.409   5.119  15.820  0.00  0.00    +0.000 A 
ATOM     17  F   UNL     1       7.293   4.883  14.843  0.00  0.00    +0.000 F 
ATOM     18  C   UNL     1       6.607   6.183  16.696  0.00  0.00    +0.000 A 
ATOM     19  C   UNL     1       5.704   6.400  17.741  0.00  0.00    +0.000 A 
ENDBRANCH   9  13
BRANCH   3  20
ATOM     20  C   UNL     1       0.098  11.852  20.954  0.00  0.00    +0.000 C 
BRANCH  20  21
ATOM     21  O   UNL     1       1.134  12.751  21.371  0.00  0.00    +0.000 OA
BRANCH  21  22
ATOM     22  C   UNL     1       1.473  13.736  20.480  0.00  0.00    +0.000 A 
ATOM     23  C   UNL     1       2.821  13.769  20.114  0.00  0.00    +0.000 A 
ATOM     24  C   UNL     1       3.283  14.699  19.179  0.00  0.00    +0.000 A 
ATOM     25  C   UNL     1       2.393  15.594  18.593  0.00  0.00    +0.000 A 
ATOM     26  C   UNL     1       1.044  15.561  18.946  0.00  0.00    +0.000 A 
ATOM     27  C   UNL     1       0.583  14.634  19.888  0.00  0.00    +0.000 A 
ENDBRANCH  21  22
ENDBRANCH  20  21
ENDBRANCH   3  20
TORSDOF 4
ENDMDL
MODEL 9
REMARK VINA RESULT:      -7.1      4.278      9.182
REMARK  Name = 
REMARK  5 active torsions:
REMARK  status: ('A' for Active; 'I' for Inactive)
REMARK    1  A    between atoms: C_1  and  C_2
REMARK    2  A    between atoms: C_3  and  C_4
REMARK    3  A    between atoms: C_4  and  O_5
REMARK    4  A    between atoms: O_5  and  C_6
REMARK    5  A    between atoms: C_17  and  C_19
REMARK                            x       y       z     vdW  Elec       q    Type
REMARK                         _______ _______ _______ _____ _____    ______ ____
ROOT
ATOM      1  C   UNL     1       3.012   6.984  18.137  0.00  0.00    +0.000 C 
ATOM      2  C   UNL     1       2.184   7.596  19.205  0.00  0.00    +0.000 A 
ATOM      3  C   UNL     1       1.736   6.994  20.426  0.00  0.00    +0.000 A 
ATOM      4  N   UNL     1       0.973   7.839  21.135  0.00  0.00    +0.000 NA
ATOM      5  N   UNL     1       0.915   8.938  20.375  0.00  0.00    +0.000 N 
ATOM      6  C   UNL     1       1.667   8.885  19.237  0.00  0.00    +0.000 A 
ATOM      7  C   UNL     1       1.764  10.058  18.302  0.00  0.00    +0.000 C 
ATOM      8  N   UNL     1       1.108  11.234  18.897  0.00  0.00    +0.000 N 
ATOM      9  C   UNL     1       1.625  12.504  18.626  0.00  0.00    +0.000 C 
ATOM     10  O   UNL     1       2.542  12.685  17.828  0.00  0.00    +0.000 OA
ATOM     11  C   UNL     1      -0.163  10.940  19.568  0.00  0.00    +0.000 C 
ATOM     12  C   UNL     1       0.112  10.072  20.786  0.00  0.00    +0.000 C 
ENDROOT
BRANCH   9  13
ATOM     13  C   UNL     1       1.065  13.714  19.315  0.00  0.00    +0.000 A 
ATOM     14  C   UNL     1       0.002  14.458  18.783  0.00  0.00    +0.000 A 
ATOM     15  C   UNL     1      -0.440  15.624  19.413  0.00  0.00    +0.000 A 
ATOM     16  C   UNL     1       0.123  16.001  20.627  0.00  0.00    +0.000 A 
ATOM     17  F   UNL     1      -0.303  17.119  21.230  0.00  0.00    +0.000 F 
ATOM     18  C   UNL     1       1.112  15.223  21.221  0.00  0.00    +0.000 A 
ATOM     19  C   UNL     1       1.583  14.081  20.568  0.00  0.00    +0.000 A 
ENDBRANCH   9  13
BRANCH   3  20
ATOM     20  C   UNL     1       2.030   5.618  20.967  0.00  0.00    +0.000 C 
BRANCH  20  21
ATOM     21  O   UNL     1       1.298   4.609  20.258  0.00  0.00    +0.000 OA
BRANCH  21  22
ATOM     22  C   UNL     1       2.048   3.659  19.616  0.00  0.00    +0.000 A 
ATOM     23  C   UNL     1       1.662   3.385  18.301  0.00  0.00    +0.000 A 
ATOM     24  C   UNL     1       2.375   2.467  17.526  0.00  0.00    +0.000 A 
ATOM     25  C   UNL     1       3.490   1.827  18.059  0.00  0.00    +0.000 A 
ATOM     26  C   UNL     1       3.886   2.102  19.367  0.00  0.00    +0.000 A 
ATOM     27  C   UNL     1       3.168   3.017  20.146  0.00  0.00    +0.000 A 
ENDBRANCH  21  22
ENDBRANCH  20  21
ENDBRANCH   3  20
TORSDOF 4
ENDMDL
