MODEL 1
REMARK VINA RESULT:      -6.7      0.000      0.000
REMARK  Name = 
REMARK  12 active torsions:
REMARK  status: ('A' for Active; 'I' for Inactive)
REMARK    1  A    between atoms: C_1  and  C_2
REMARK    2  A    between atoms: C_2  and  C_3
REMARK    3  A    between atoms: C_4  and  C_5
REMARK    4  A    between atoms: C_5  and  C_6
REMARK    5  A    between atoms: C_6  and  C_7
REMARK    6  A    between atoms: C_7  and  C_8
REMARK    7  A    between atoms: C_9  and  C_10
REMARK    8  A    between atoms: N_12  and  C_13
REMARK    9  A    between atoms: C_13  and  C_14
REMARK   10  A    between atoms: C_14  and  C_15
REMARK   11  A    between atoms: C_15  and  P_16
REMARK   12  A    between atoms: C_15  and  P_20
REMARK                            x       y       z     vdW  Elec       q    Type
REMARK                         _______ _______ _______ _____ _____    ______ ____
ROOT
ATOM      1  C   UNL     1       4.935   6.751  17.150  0.00  0.00    +0.000 C 
ATOM      2  O   UNL     1       4.794   6.543  15.934  0.00  0.00    +0.000 OA
ATOM      3  N   UNL     1       4.159   6.307  18.153  0.00  0.00    +0.000 N 
ATOM      4  H   UNL     1       4.348   6.696  19.092  0.00  0.00    +0.000 HD
ENDROOT
BRANCH   1   7
ATOM      5  C   UNL     1       7.269   6.863  17.949  0.00  0.00    +0.000 C 
ATOM      6  C   UNL     1       7.388   5.362  17.831  0.00  0.00    +0.000 C 
ATOM      7  C   UNL     1       6.129   7.484  17.590  0.00  0.00    +0.000 C 
BRANCH   5   8
ATOM      8  C   UNL     1       8.451   7.700  18.349  0.00  0.00    +0.000 C 
BRANCH   8   9
ATOM      9  C   UNL     1       8.423   9.226  18.190  0.00  0.00    +0.000 C 
BRANCH   9  13
ATOM     10  C   UNL     1      10.706  11.629  20.217  0.00  0.00    +0.000 C 
ATOM     11  C   UNL     1       9.860  11.085  19.102  0.00  0.00    +0.000 C 
ATOM     12  C   UNL     1      10.027  11.718  17.749  0.00  0.00    +0.000 C 
ATOM     13  C   UNL     1       9.101   9.987  19.299  0.00  0.00    +0.000 C 
ENDBRANCH   9  13
ENDBRANCH   8   9
ENDBRANCH   5   8
ENDBRANCH   1   7
BRANCH   3  14
ATOM     14  C   UNL     1       2.732   6.122  18.013  0.00  0.00    +0.000 C 
BRANCH  14  15
ATOM     15  C   UNL     1       2.352   4.660  17.841  0.00  0.00    +0.000 C 
BRANCH  15  16
ATOM     16  C   UNL     1       2.682   3.723  19.051  0.00  0.00    +0.000 C 
BRANCH  16  17
ATOM     17  P   UNL     1       1.087   3.529  20.145  0.00  0.00    +0.000 P 
ATOM     18  O   UNL     1       0.172   2.720  19.193  0.00  0.00    +0.000 OA
ATOM     19  O   UNL     1       1.501   2.687  21.360  0.00  0.00    +0.000 OA
ATOM     20  O   UNL     1       0.469   4.876  20.485  0.00  0.00    +0.000 OA
ENDBRANCH  16  17
BRANCH  16  21
ATOM     21  P   UNL     1       4.221   2.650  18.425  0.00  0.00    +0.000 P 
ATOM     22  O   UNL     1       4.647   3.262  17.086  0.00  0.00    +0.000 OA
ATOM     23  O   UNL     1       5.251   2.951  19.544  0.00  0.00    +0.000 OA
ATOM     24  O   UNL     1       3.862   1.171  18.379  0.00  0.00    +0.000 OA
ENDBRANCH  16  21
ENDBRANCH  15  16
ENDBRANCH  14  15
ENDBRANCH   3  14
TORSDOF 9
ENDMDL
MODEL 2
REMARK VINA RESULT:      -6.7      3.712      6.072
REMARK  Name = 
REMARK  12 active torsions:
REMARK  status: ('A' for Active; 'I' for Inactive)
REMARK    1  A    between atoms: C_1  and  C_2
REMARK    2  A    between atoms: C_2  and  C_3
REMARK    3  A    between atoms: C_4  and  C_5
REMARK    4  A    between atoms: C_5  and  C_6
REMARK    5  A    between atoms: C_6  and  C_7
REMARK    6  A    between atoms: C_7  and  C_8
REMARK    7  A    between atoms: C_9  and  C_10
REMARK    8  A    between atoms: N_12  and  C_13
REMARK    9  A    between atoms: C_13  and  C_14
REMARK   10  A    between atoms: C_14  and  C_15
REMARK   11  A    between atoms: C_15  and  P_16
REMARK   12  A    between atoms: C_15  and  P_20
REMARK                            x       y       z     vdW  Elec       q    Type
REMARK                         _______ _______ _______ _____ _____    ______ ____
ROOT
ATOM      1  C   UNL     1       4.785   6.222  17.309  0.00  0.00    +0.000 C 
ATOM      2  O   UNL     1       5.135   7.313  17.788  0.00  0.00    +0.000 OA
ATOM      3  N   UNL     1       3.947   5.321  17.850  0.00  0.00    +0.000 N 
ATOM      4  H   UNL     1       3.881   4.406  17.373  0.00  0.00    +0.000 HD
ENDROOT
BRANCH   1   7
ATOM      5  C   UNL     1       6.399   5.227  15.727  0.00  0.00    +0.000 C 
ATOM      6  C   UNL     1       7.239   4.736  16.883  0.00  0.00    +0.000 C 
ATOM      7  C   UNL     1       5.245   5.883  15.956  0.00  0.00    +0.000 C 
BRANCH   5   8
ATOM      8  C   UNL     1       6.768   4.890  14.311  0.00  0.00    +0.000 C 
BRANCH   8   9
ATOM      9  C   UNL     1       6.264   3.597  13.654  0.00  0.00    +0.000 C 
BRANCH   9  13
ATOM     10  C   UNL     1       3.714   3.401  10.728  0.00  0.00    +0.000 C 
ATOM     11  C   UNL     1       4.795   3.005  11.693  0.00  0.00    +0.000 C 
ATOM     12  C   UNL     1       5.657   1.835  11.308  0.00  0.00    +0.000 C 
ATOM     13  C   UNL     1       5.052   3.768  12.776  0.00  0.00    +0.000 C 
ENDBRANCH   9  13
ENDBRANCH   8   9
ENDBRANCH   5   8
ENDBRANCH   1   7
BRANCH   3  14
ATOM     14  C   UNL     1       3.848   5.104  19.276  0.00  0.00    +0.000 C 
BRANCH  14  15
ATOM     15  C   UNL     1       2.407   5.107  19.763  0.00  0.00    +0.000 C 
BRANCH  15  16
ATOM     16  C   UNL     1       1.734   3.701  19.907  0.00  0.00    +0.000 C 
BRANCH  16  17
ATOM     17  P   UNL     1       1.358   3.002  18.133  0.00  0.00    +0.000 P 
ATOM     18  O   UNL     1       2.689   2.278  17.811  0.00  0.00    +0.000 OA
ATOM     19  O   UNL     1       0.210   1.998  18.302  0.00  0.00    +0.000 OA
ATOM     20  O   UNL     1       1.086   4.117  17.134  0.00  0.00    +0.000 OA
ENDBRANCH  16  17
BRANCH  16  21
ATOM     21  P   UNL     1       2.323   3.063  21.684  0.00  0.00    +0.000 P 
ATOM     22  O   UNL     1       1.200   2.159  22.203  0.00  0.00    +0.000 OA
ATOM     23  O   UNL     1       3.580   2.244  21.289  0.00  0.00    +0.000 OA
ATOM     24  O   UNL     1       2.681   4.237  22.585  0.00  0.00    +0.000 OA
ENDBRANCH  16  21
ENDBRANCH  15  16
ENDBRANCH  14  15
ENDBRANCH   3  14
TORSDOF 9
ENDMDL
MODEL 3
REMARK VINA RESULT:      -6.6      1.941      2.679
REMARK  Name = 
REMARK  12 active torsions:
REMARK  status: ('A' for Active; 'I' for Inactive)
REMARK    1  A    between atoms: C_1  and  C_2
REMARK    2  A    between atoms: C_2  and  C_3
REMARK    3  A    between atoms: C_4  and  C_5
REMARK    4  A    between atoms: C_5  and  C_6
REMARK    5  A    between atoms: C_6  and  C_7
REMARK    6  A    between atoms: C_7  and  C_8
REMARK    7  A    between atoms: C_9  and  C_10
REMARK    8  A    between atoms: N_12  and  C_13
REMARK    9  A    between atoms: C_13  and  C_14
REMARK   10  A    between atoms: C_14  and  C_15
REMARK   11  A    between atoms: C_15  and  P_16
REMARK   12  A    between atoms: C_15  and  P_20
REMARK                            x       y       z     vdW  Elec       q    Type
REMARK                         _______ _______ _______ _____ _____    ______ ____
ROOT
ATOM      1  C   UNL     1       6.936   5.211  16.522  0.00  0.00    +0.000 C 
ATOM      2  O   UNL     1       7.822   4.498  16.024  0.00  0.00    +0.000 OA
ATOM      3  N   UNL     1       5.782   4.811  17.084  0.00  0.00    +0.000 N 
ATOM      4  H   UNL     1       5.101   5.552  17.320  0.00  0.00    +0.000 HD
ENDROOT
BRANCH   1   7
ATOM      5  C   UNL     1       7.631   7.246  17.735  0.00  0.00    +0.000 C 
ATOM      6  C   UNL     1       7.983   6.412  18.945  0.00  0.00    +0.000 C 
ATOM      7  C   UNL     1       7.181   6.656  16.611  0.00  0.00    +0.000 C 
BRANCH   5   8
ATOM      8  C   UNL     1       7.889   8.726  17.720  0.00  0.00    +0.000 C 
BRANCH   8   9
ATOM      9  C   UNL     1       8.895   9.358  18.691  0.00  0.00    +0.000 C 
BRANCH   9  13
ATOM     10  C   UNL     1       9.732  13.148  18.865  0.00  0.00    +0.000 C 
ATOM     11  C   UNL     1       9.593  11.709  19.272  0.00  0.00    +0.000 C 
ATOM     12  C   UNL     1       9.638  11.410  20.744  0.00  0.00    +0.000 C 
ATOM     13  C   UNL     1       9.299  10.768  18.350  0.00  0.00    +0.000 C 
ENDBRANCH   9  13
ENDBRANCH   8   9
ENDBRANCH   5   8
ENDBRANCH   1   7
BRANCH   3  14
ATOM     14  C   UNL     1       5.055   3.647  16.629  0.00  0.00    +0.000 C 
BRANCH  14  15
ATOM     15  C   UNL     1       3.566   3.743  16.923  0.00  0.00    +0.000 C 
BRANCH  15  16
ATOM     16  C   UNL     1       3.183   4.033  18.413  0.00  0.00    +0.000 C 
BRANCH  16  17
ATOM     17  P   UNL     1       2.781   5.925  18.600  0.00  0.00    +0.000 P 
ATOM     18  O   UNL     1       2.385   5.998  20.095  0.00  0.00    +0.000 OA
ATOM     19  O   UNL     1       4.098   6.670  18.341  0.00  0.00    +0.000 OA
ATOM     20  O   UNL     1       1.625   6.347  17.706  0.00  0.00    +0.000 OA
ENDBRANCH  16  17
BRANCH  16  21
ATOM     21  P   UNL     1       2.561   2.284  19.099  0.00  0.00    +0.000 P 
ATOM     22  O   UNL     1       3.505   1.236  18.502  0.00  0.00    +0.000 OA
ATOM     23  O   UNL     1       2.806   2.474  20.619  0.00  0.00    +0.000 OA
ATOM     24  O   UNL     1       1.084   2.080  18.792  0.00  0.00    +0.000 OA
ENDBRANCH  16  21
ENDBRANCH  15  16
ENDBRANCH  14  15
ENDBRANCH   3  14
TORSDOF 9
ENDMDL
MODEL 4
REMARK VINA RESULT:      -6.6      4.430      7.114
REMARK  Name = 
REMARK  12 active torsions:
REMARK  status: ('A' for Active; 'I' for Inactive)
REMARK    1  A    between atoms: C_1  and  C_2
REMARK    2  A    between atoms: C_2  and  C_3
REMARK    3  A    between atoms: C_4  and  C_5
REMARK    4  A    between atoms: C_5  and  C_6
REMARK    5  A    between atoms: C_6  and  C_7
REMARK    6  A    between atoms: C_7  and  C_8
REMARK    7  A    between atoms: C_9  and  C_10
REMARK    8  A    between atoms: N_12  and  C_13
REMARK    9  A    between atoms: C_13  and  C_14
REMARK   10  A    between atoms: C_14  and  C_15
REMARK   11  A    between atoms: C_15  and  P_16
REMARK   12  A    between atoms: C_15  and  P_20
REMARK                            x       y       z     vdW  Elec       q    Type
REMARK                         _______ _______ _______ _____ _____    ______ ____
ROOT
ATOM      1  C   UNL     1       5.619   4.943  15.471  0.00  0.00    +0.000 C 
ATOM      2  O   UNL     1       5.501   6.164  15.280  0.00  0.00    +0.000 OA
ATOM      3  N   UNL     1       5.688   4.301  16.650  0.00  0.00    +0.000 N 
ATOM      4  H   UNL     1       5.925   3.296  16.617  0.00  0.00    +0.000 HD
ENDROOT
BRANCH   1   7
ATOM      5  C   UNL     1       6.496   4.134  13.309  0.00  0.00    +0.000 C 
ATOM      6  C   UNL     1       7.648   5.108  13.405  0.00  0.00    +0.000 C 
ATOM      7  C   UNL     1       5.589   4.055  14.302  0.00  0.00    +0.000 C 
BRANCH   5   8
ATOM      8  C   UNL     1       6.408   3.158  12.172  0.00  0.00    +0.000 C 
BRANCH   8   9
ATOM      9  C   UNL     1       5.046   2.732  11.606  0.00  0.00    +0.000 C 
BRANCH   9  13
ATOM     10  C   UNL     1       2.637   4.710   9.286  0.00  0.00    +0.000 C 
ATOM     11  C   UNL     1       3.182   3.615  10.158  0.00  0.00    +0.000 C 
ATOM     12  C   UNL     1       2.540   2.262  10.032  0.00  0.00    +0.000 C 
ATOM     13  C   UNL     1       4.286   3.827  10.904  0.00  0.00    +0.000 C 
ENDBRANCH   9  13
ENDBRANCH   8   9
ENDBRANCH   5   8
ENDBRANCH   1   7
BRANCH   3  14
ATOM     14  C   UNL     1       6.308   4.881  17.820  0.00  0.00    +0.000 C 
BRANCH  14  15
ATOM     15  C   UNL     1       5.455   4.721  19.068  0.00  0.00    +0.000 C 
BRANCH  15  16
ATOM     16  C   UNL     1       4.020   4.137  18.842  0.00  0.00    +0.000 C 
BRANCH  16  17
ATOM     17  P   UNL     1       3.943   2.353  19.609  0.00  0.00    +0.000 P 
ATOM     18  O   UNL     1       2.740   2.497  20.573  0.00  0.00    +0.000 OA
ATOM     19  O   UNL     1       3.610   1.403  18.450  0.00  0.00    +0.000 OA
ATOM     20  O   UNL     1       5.215   2.010  20.368  0.00  0.00    +0.000 OA
ENDBRANCH  16  17
BRANCH  16  21
ATOM     21  P   UNL     1       2.876   5.737  18.627  0.00  0.00    +0.000 P 
ATOM     22  O   UNL     1       2.535   6.206  20.045  0.00  0.00    +0.000 OA
ATOM     23  O   UNL     1       3.870   6.703  17.930  0.00  0.00    +0.000 OA
ATOM     24  O   UNL     1       1.680   5.427  17.738  0.00  0.00    +0.000 OA
ENDBRANCH  16  21
ENDBRANCH  15  16
ENDBRANCH  14  15
ENDBRANCH   3  14
TORSDOF 9
ENDMDL
MODEL 5
REMARK VINA RESULT:      -6.5      1.785      2.541
REMARK  Name = 
REMARK  12 active torsions:
REMARK  status: ('A' for Active; 'I' for Inactive)
REMARK    1  A    between atoms: C_1  and  C_2
REMARK    2  A    between atoms: C_2  and  C_3
REMARK    3  A    between atoms: C_4  and  C_5
REMARK    4  A    between atoms: C_5  and  C_6
REMARK    5  A    between atoms: C_6  and  C_7
REMARK    6  A    between atoms: C_7  and  C_8
REMARK    7  A    between atoms: C_9  and  C_10
REMARK    8  A    between atoms: N_12  and  C_13
REMARK    9  A    between atoms: C_13  and  C_14
REMARK   10  A    between atoms: C_14  and  C_15
REMARK   11  A    between atoms: C_15  and  P_16
REMARK   12  A    between atoms: C_15  and  P_20
REMARK                            x       y       z     vdW  Elec       q    Type
REMARK                         _______ _______ _______ _____ _____    ______ ____
ROOT
ATOM      1  C   UNL     1       6.531   5.225  16.745  0.00  0.00    +0.000 C 
ATOM      2  O   UNL     1       7.425   4.494  16.291  0.00  0.00    +0.000 OA
ATOM      3  N   UNL     1       5.366   4.848  17.299  0.00  0.00    +0.000 N 
ATOM      4  H   UNL     1       4.682   5.598  17.495  0.00  0.00    +0.000 HD
ENDROOT
BRANCH   1   7
ATOM      5  C   UNL     1       7.433   7.268  17.800  0.00  0.00    +0.000 C 
ATOM      6  C   UNL     1       8.021   6.439  18.918  0.00  0.00    +0.000 C 
ATOM      7  C   UNL     1       6.777   6.673  16.785  0.00  0.00    +0.000 C 
BRANCH   5   8
ATOM      8  C   UNL     1       7.671   8.750  17.734  0.00  0.00    +0.000 C 
BRANCH   8   9
ATOM      9  C   UNL     1       9.055   9.337  18.043  0.00  0.00    +0.000 C 
BRANCH   9  13
ATOM     10  C   UNL     1      10.193  11.788  20.834  0.00  0.00    +0.000 C 
ATOM     11  C   UNL     1      10.054  11.148  19.483  0.00  0.00    +0.000 C 
ATOM     12  C   UNL     1      11.099  11.489  18.457  0.00  0.00    +0.000 C 
ATOM     13  C   UNL     1       9.110  10.207  19.271  0.00  0.00    +0.000 C 
ENDBRANCH   9  13
ENDBRANCH   8   9
ENDBRANCH   5   8
ENDBRANCH   1   7
BRANCH   3  14
ATOM     14  C   UNL     1       4.645   3.669  16.875  0.00  0.00    +0.000 C 
BRANCH  14  15
ATOM     15  C   UNL     1       3.167   3.736  17.227  0.00  0.00    +0.000 C 
BRANCH  15  16
ATOM     16  C   UNL     1       2.837   3.933  18.745  0.00  0.00    +0.000 C 
BRANCH  16  17
ATOM     17  P   UNL     1       2.813   5.836  19.138  0.00  0.00    +0.000 P 
ATOM     18  O   UNL     1       1.853   5.875  20.352  0.00  0.00    +0.000 OA
ATOM     19  O   UNL     1       4.244   6.206  19.553  0.00  0.00    +0.000 OA
ATOM     20  O   UNL     1       2.258   6.645  17.975  0.00  0.00    +0.000 OA
ENDBRANCH  16  17
BRANCH  16  21
ATOM     21  P   UNL     1       1.880   2.277  19.249  0.00  0.00    +0.000 P 
ATOM     22  O   UNL     1       0.650   2.205  18.337  0.00  0.00    +0.000 OA
ATOM     23  O   UNL     1       2.938   1.210  18.866  0.00  0.00    +0.000 OA
ATOM     24  O   UNL     1       1.584   2.260  20.742  0.00  0.00    +0.000 OA
ENDBRANCH  16  21
ENDBRANCH  15  16
ENDBRANCH  14  15
ENDBRANCH   3  14
TORSDOF 9
ENDMDL
MODEL 6
REMARK VINA RESULT:      -6.5      3.342      6.229
REMARK  Name = 
REMARK  12 active torsions:
REMARK  status: ('A' for Active; 'I' for Inactive)
REMARK    1  A    between atoms: C_1  and  C_2
REMARK    2  A    between atoms: C_2  and  C_3
REMARK    3  A    between atoms: C_4  and  C_5
REMARK    4  A    between atoms: C_5  and  C_6
REMARK    5  A    between atoms: C_6  and  C_7
REMARK    6  A    between atoms: C_7  and  C_8
REMARK    7  A    between atoms: C_9  and  C_10
REMARK    8  A    between atoms: N_12  and  C_13
REMARK    9  A    between atoms: C_13  and  C_14
REMARK   10  A    between atoms: C_14  and  C_15
REMARK   11  A    between atoms: C_15  and  P_16
REMARK   12  A    between atoms: C_15  and  P_20
REMARK                            x       y       z     vdW  Elec       q    Type
REMARK                         _______ _______ _______ _____ _____    ______ ____
ROOT
ATOM      1  C   UNL     1       4.314   6.233  17.143  0.00  0.00    +0.000 C 
ATOM      2  O   UNL     1       4.972   7.285  17.194  0.00  0.00    +0.000 OA
ATOM      3  N   UNL     1       3.239   5.902  17.880  0.00  0.00    +0.000 N 
ATOM      4  H   UNL     1       2.905   4.928  17.799  0.00  0.00    +0.000 HD
ENDROOT
BRANCH   1   7
ATOM      5  C   UNL     1       5.934   4.979  15.765  0.00  0.00    +0.000 C 
ATOM      6  C   UNL     1       7.079   5.628  16.508  0.00  0.00    +0.000 C 
ATOM      7  C   UNL     1       4.660   5.252  16.107  0.00  0.00    +0.000 C 
BRANCH   5   8
ATOM      8  C   UNL     1       6.191   3.931  14.720  0.00  0.00    +0.000 C 
BRANCH   8   9
ATOM      9  C   UNL     1       6.594   4.328  13.293  0.00  0.00    +0.000 C 
BRANCH   9  13
ATOM     10  C   UNL     1       6.112   1.290  10.918  0.00  0.00    +0.000 C 
ATOM     11  C   UNL     1       5.856   2.593  11.620  0.00  0.00    +0.000 C 
ATOM     12  C   UNL     1       4.449   3.121  11.585  0.00  0.00    +0.000 C 
ATOM     13  C   UNL     1       6.827   3.169  12.359  0.00  0.00    +0.000 C 
ENDBRANCH   9  13
ENDBRANCH   8   9
ENDBRANCH   5   8
ENDBRANCH   1   7
BRANCH   3  14
ATOM     14  C   UNL     1       3.069   6.334  19.249  0.00  0.00    +0.000 C 
BRANCH  14  15
ATOM     15  C   UNL     1       3.147   5.178  20.234  0.00  0.00    +0.000 C 
BRANCH  15  16
ATOM     16  C   UNL     1       2.880   3.755  19.638  0.00  0.00    +0.000 C 
BRANCH  16  17
ATOM     17  P   UNL     1       4.586   2.890  19.294  0.00  0.00    +0.000 P 
ATOM     18  O   UNL     1       4.339   2.300  17.884  0.00  0.00    +0.000 OA
ATOM     19  O   UNL     1       5.633   4.012  19.247  0.00  0.00    +0.000 OA
ATOM     20  O   UNL     1       4.875   1.791  20.305  0.00  0.00    +0.000 OA
ENDBRANCH  16  17
BRANCH  16  21
ATOM     21  P   UNL     1       1.060   3.303  20.267  0.00  0.00    +0.000 P 
ATOM     22  O   UNL     1       1.245   2.535  21.580  0.00  0.00    +0.000 OA
ATOM     23  O   UNL     1       0.484   4.722  20.513  0.00  0.00    +0.000 OA
ATOM     24  O   UNL     1       0.284   2.565  19.185  0.00  0.00    +0.000 OA
ENDBRANCH  16  21
ENDBRANCH  15  16
ENDBRANCH  14  15
ENDBRANCH   3  14
TORSDOF 9
ENDMDL
MODEL 7
REMARK VINA RESULT:      -6.4      3.804      5.833
REMARK  Name = 
REMARK  12 active torsions:
REMARK  status: ('A' for Active; 'I' for Inactive)
REMARK    1  A    between atoms: C_1  and  C_2
REMARK    2  A    between atoms: C_2  and  C_3
REMARK    3  A    between atoms: C_4  and  C_5
REMARK    4  A    between atoms: C_5  and  C_6
REMARK    5  A    between atoms: C_6  and  C_7
REMARK    6  A    between atoms: C_7  and  C_8
REMARK    7  A    between atoms: C_9  and  C_10
REMARK    8  A    between atoms: N_12  and  C_13
REMARK    9  A    between atoms: C_13  and  C_14
REMARK   10  A    between atoms: C_14  and  C_15
REMARK   11  A    between atoms: C_15  and  P_16
REMARK   12  A    between atoms: C_15  and  P_20
REMARK                            x       y       z     vdW  Elec       q    Type
REMARK                         _______ _______ _______ _____ _____    ______ ____
ROOT
ATOM      1  C   UNL     1       2.211   4.994  18.737  0.00  0.00    +0.000 C 
ATOM      2  O   UNL     1       1.287   4.170  18.817  0.00  0.00    +0.000 OA
ATOM      3  N   UNL     1       2.557   5.928  19.640  0.00  0.00    +0.000 N 
ATOM      4  H   UNL     1       3.266   6.619  19.342  0.00  0.00    +0.000 HD
ENDROOT
BRANCH   1   7
ATOM      5  C   UNL     1       4.320   4.319  17.644  0.00  0.00    +0.000 C 
ATOM      6  C   UNL     1       4.767   3.634  18.915  0.00  0.00    +0.000 C 
ATOM      7  C   UNL     1       3.112   4.911  17.580  0.00  0.00    +0.000 C 
BRANCH   5   8
ATOM      8  C   UNL     1       5.156   4.249  16.398  0.00  0.00    +0.000 C 
BRANCH   8   9
ATOM      9  C   UNL     1       6.676   4.444  16.460  0.00  0.00    +0.000 C 
BRANCH   9  13
ATOM     10  C   UNL     1       7.674   8.012  17.633  0.00  0.00    +0.000 C 
ATOM     11  C   UNL     1       7.491   6.521  17.633  0.00  0.00    +0.000 C 
ATOM     12  C   UNL     1       7.577   5.824  18.963  0.00  0.00    +0.000 C 
ATOM     13  C   UNL     1       7.125   5.881  16.503  0.00  0.00    +0.000 C 
ENDBRANCH   9  13
ENDBRANCH   8   9
ENDBRANCH   5   8
ENDBRANCH   1   7
BRANCH   3  14
ATOM     14  C   UNL     1       1.590   6.596  20.482  0.00  0.00    +0.000 C 
BRANCH  14  15
ATOM     15  C   UNL     1       1.905   8.072  20.668  0.00  0.00    +0.000 C 
BRANCH  15  16
ATOM     16  C   UNL     1       0.718   9.059  20.410  0.00  0.00    +0.000 C 
BRANCH  16  17
ATOM     17  P   UNL     1       0.014   9.653  22.121  0.00  0.00    +0.000 P 
ATOM     18  O   UNL     1      -0.919   8.471  22.484  0.00  0.00    +0.000 OA
ATOM     19  O   UNL     1       1.213   9.723  23.077  0.00  0.00    +0.000 OA
ATOM     20  O   UNL     1      -0.771  10.949  21.989  0.00  0.00    +0.000 OA
ENDBRANCH  16  17
BRANCH  16  21
ATOM     21  P   UNL     1       1.065   9.766  18.595  0.00  0.00    +0.000 P 
ATOM     22  O   UNL     1       1.624  11.180  18.792  0.00  0.00    +0.000 OA
ATOM     23  O   UNL     1       2.162   8.781  18.113  0.00  0.00    +0.000 OA
ATOM     24  O   UNL     1      -0.187   9.675  17.734  0.00  0.00    +0.000 OA
ENDBRANCH  16  21
ENDBRANCH  15  16
ENDBRANCH  14  15
ENDBRANCH   3  14
TORSDOF 9
ENDMDL
MODEL 8
REMARK VINA RESULT:      -6.3      4.017      6.429
REMARK  Name = 
REMARK  12 active torsions:
REMARK  status: ('A' for Active; 'I' for Inactive)
REMARK    1  A    between atoms: C_1  and  C_2
REMARK    2  A    between atoms: C_2  and  C_3
REMARK    3  A    between atoms: C_4  and  C_5
REMARK    4  A    between atoms: C_5  and  C_6
REMARK    5  A    between atoms: C_6  and  C_7
REMARK    6  A    between atoms: C_7  and  C_8
REMARK    7  A    between atoms: C_9  and  C_10
REMARK    8  A    between atoms: N_12  and  C_13
REMARK    9  A    between atoms: C_13  and  C_14
REMARK   10  A    between atoms: C_14  and  C_15
REMARK   11  A    between atoms: C_15  and  P_16
REMARK   12  A    between atoms: C_15  and  P_20
REMARK                            x       y       z     vdW  Elec       q    Type
REMARK                         _______ _______ _______ _____ _____    ______ ____
ROOT
ATOM      1  C   UNL     1       7.240   4.952  16.933  0.00  0.00    +0.000 C 
ATOM      2  O   UNL     1       8.168   4.225  17.322  0.00  0.00    +0.000 OA
ATOM      3  N   UNL     1       6.474   5.771  17.674  0.00  0.00    +0.000 N 
ATOM      4  H   UNL     1       5.658   6.194  17.202  0.00  0.00    +0.000 HD
ENDROOT
BRANCH   1   7
ATOM      5  C   UNL     1       6.018   4.293  14.891  0.00  0.00    +0.000 C 
ATOM      6  C   UNL     1       5.102   3.417  15.713  0.00  0.00    +0.000 C 
ATOM      7  C   UNL     1       6.979   5.023  15.489  0.00  0.00    +0.000 C 
BRANCH   5   8
ATOM      8  C   UNL     1       5.799   4.462  13.414  0.00  0.00    +0.000 C 
BRANCH   8   9
ATOM      9  C   UNL     1       6.948   4.243  12.420  0.00  0.00    +0.000 C 
BRANCH   9  13
ATOM     10  C   UNL     1       6.087   0.693  11.096  0.00  0.00    +0.000 C 
ATOM     11  C   UNL     1       5.961   2.157  11.406  0.00  0.00    +0.000 C 
ATOM     12  C   UNL     1       4.581   2.749  11.351  0.00  0.00    +0.000 C 
ATOM     13  C   UNL     1       7.030   2.852  11.849  0.00  0.00    +0.000 C 
ENDBRANCH   9  13
ENDBRANCH   8   9
ENDBRANCH   5   8
ENDBRANCH   1   7
BRANCH   3  14
ATOM     14  C   UNL     1       6.112   5.476  19.042  0.00  0.00    +0.000 C 
BRANCH  14  15
ATOM     15  C   UNL     1       5.338   4.174  19.168  0.00  0.00    +0.000 C 
BRANCH  15  16
ATOM     16  C   UNL     1       3.874   4.301  19.706  0.00  0.00    +0.000 C 
BRANCH  16  17
ATOM     17  P   UNL     1       2.946   5.668  18.682  0.00  0.00    +0.000 P 
ATOM     18  O   UNL     1       1.617   4.943  18.357  0.00  0.00    +0.000 OA
ATOM     19  O   UNL     1       2.715   6.841  19.644  0.00  0.00    +0.000 OA
ATOM     20  O   UNL     1       3.700   6.027  17.410  0.00  0.00    +0.000 OA
ENDBRANCH  16  17
BRANCH  16  21
ATOM     21  P   UNL     1       3.517   2.548  20.552  0.00  0.00    +0.000 P 
ATOM     22  O   UNL     1       2.758   2.851  21.848  0.00  0.00    +0.000 OA
ATOM     23  O   UNL     1       2.592   1.903  19.487  0.00  0.00    +0.000 OA
ATOM     24  O   UNL     1       4.808   1.760  20.722  0.00  0.00    +0.000 OA
ENDBRANCH  16  21
ENDBRANCH  15  16
ENDBRANCH  14  15
ENDBRANCH   3  14
TORSDOF 9
ENDMDL
MODEL 9
REMARK VINA RESULT:      -6.2      1.812      2.769
REMARK  Name = 
REMARK  12 active torsions:
REMARK  status: ('A' for Active; 'I' for Inactive)
REMARK    1  A    between atoms: C_1  and  C_2
REMARK    2  A    between atoms: C_2  and  C_3
REMARK    3  A    between atoms: C_4  and  C_5
REMARK    4  A    between atoms: C_5  and  C_6
REMARK    5  A    between atoms: C_6  and  C_7
REMARK    6  A    between atoms: C_7  and  C_8
REMARK    7  A    between atoms: C_9  and  C_10
REMARK    8  A    between atoms: N_12  and  C_13
REMARK    9  A    between atoms: C_13  and  C_14
REMARK   10  A    between atoms: C_14  and  C_15
REMARK   11  A    between atoms: C_15  and  P_16
REMARK   12  A    between atoms: C_15  and  P_20
REMARK                            x       y       z     vdW  Elec       q    Type
REMARK                         _______ _______ _______ _____ _____    ______ ____
ROOT
ATOM      1  C   UNL     1       7.016   4.783  17.388  0.00  0.00    +0.000 C 
ATOM      2  O   UNL     1       7.744   4.151  16.605  0.00  0.00    +0.000 OA
ATOM      3  N   UNL     1       5.913   4.342  18.018  0.00  0.00    +0.000 N 
ATOM      4  H   UNL     1       5.355   5.050  18.523  0.00  0.00    +0.000 HD
ENDROOT
BRANCH   1   7
ATOM      5  C   UNL     1       6.784   7.240  17.328  0.00  0.00    +0.000 C 
ATOM      6  C   UNL     1       5.544   7.109  16.476  0.00  0.00    +0.000 C 
ATOM      7  C   UNL     1       7.426   6.141  17.768  0.00  0.00    +0.000 C 
BRANCH   5   8
ATOM      8  C   UNL     1       7.253   8.587  17.802  0.00  0.00    +0.000 C 
BRANCH   8   9
ATOM      9  C   UNL     1       8.731   8.831  18.137  0.00  0.00    +0.000 C 
BRANCH   9  13
ATOM     10  C   UNL     1      10.147  11.670  20.379  0.00  0.00    +0.000 C 
ATOM     11  C   UNL     1       9.755  10.897  19.152  0.00  0.00    +0.000 C 
ATOM     12  C   UNL     1      10.400  11.303  17.857  0.00  0.00    +0.000 C 
ATOM     13  C   UNL     1       8.969   9.805  19.260  0.00  0.00    +0.000 C 
ENDBRANCH   9  13
ENDBRANCH   8   9
ENDBRANCH   5   8
ENDBRANCH   1   7
BRANCH   3  14
ATOM     14  C   UNL     1       5.009   3.380  17.428  0.00  0.00    +0.000 C 
BRANCH  14  15
ATOM     15  C   UNL     1       3.562   3.843  17.473  0.00  0.00    +0.000 C 
BRANCH  15  16
ATOM     16  C   UNL     1       2.945   4.014  18.901  0.00  0.00    +0.000 C 
BRANCH  16  17
ATOM     17  P   UNL     1       2.870   5.908  19.329  0.00  0.00    +0.000 P 
ATOM     18  O   UNL     1       4.367   6.213  19.584  0.00  0.00    +0.000 OA
ATOM     19  O   UNL     1       2.370   6.614  18.061  0.00  0.00    +0.000 OA
ATOM     20  O   UNL     1       2.037   6.172  20.575  0.00  0.00    +0.000 OA
ENDBRANCH  16  17
BRANCH  16  21
ATOM     21  P   UNL     1       1.885   2.364  19.169  0.00  0.00    +0.000 P 
ATOM     22  O   UNL     1       0.716   2.449  18.182  0.00  0.00    +0.000 OA
ATOM     23  O   UNL     1       2.919   1.291  18.739  0.00  0.00    +0.000 OA
ATOM     24  O   UNL     1       1.492   2.209  20.631  0.00  0.00    +0.000 OA
ENDBRANCH  16  21
ENDBRANCH  15  16
ENDBRANCH  14  15
ENDBRANCH   3  14
TORSDOF 9
ENDMDL
