MODEL 1
REMARK VINA RESULT:      -4.7      0.000      0.000
REMARK  Name = 
REMARK  5 active torsions:
REMARK  status: ('A' for Active; 'I' for Inactive)
REMARK    1  A    between atoms: C_1  and  C_2
REMARK    2  A    between atoms: C_2  and  C_3
REMARK    3  A    between atoms: C_2  and  N_4
REMARK    4  A    between atoms: C_8  and  C_9
REMARK    5  A    between atoms: C_9  and  O_10
REMARK                            x       y       z     vdW  Elec       q    Type
REMARK                         _______ _______ _______ _____ _____    ______ ____
ROOT
ATOM      1  N   UNL     1       2.621   3.650  19.220  0.00  0.00    +0.000 N 
ATOM      2  C   UNL     1       1.780   3.040  18.325  0.00  0.00    +0.000 A 
ATOM      3  N   UNL     1       2.291   3.006  17.118  0.00  0.00    +0.000 NA
ATOM      4  C   UNL     1       3.514   3.606  17.231  0.00  0.00    +0.000 A 
ATOM      5  C   UNL     1       3.758   4.012  18.529  0.00  0.00    +0.000 A 
ENDROOT
BRANCH   1   7
ATOM      6  C   UNL     1       1.775   5.297  20.849  0.00  0.00    +0.000 C 
ATOM      7  C   UNL     1       2.312   3.884  20.629  0.00  0.00    +0.000 C 
ATOM      8  C   UNL     1       1.340   2.837  21.179  0.00  0.00    +0.000 C 
ENDBRANCH   1   7
BRANCH   5   9
ATOM      9  C   UNL     1       4.957   4.654  19.109  0.00  0.00    +0.000 C 
BRANCH   9  10
ATOM     10  O   UNL     1       6.073   3.836  18.797  0.00  0.00    +0.000 OA
ATOM     11  H   UNL     1       6.716   3.963  19.517  0.00  0.00    +0.000 HD
ENDBRANCH   9  10
ENDBRANCH   5   9
TORSDOF 3
ENDMDL
MODEL 2
REMARK VINA RESULT:      -4.6      2.962      4.229
REMARK  Name = 
REMARK  5 active torsions:
REMARK  status: ('A' for Active; 'I' for Inactive)
REMARK    1  A    between atoms: C_1  and  C_2
REMARK    2  A    between atoms: C_2  and  C_3
REMARK    3  A    between atoms: C_2  and  N_4
REMARK    4  A    between atoms: C_8  and  C_9
REMARK    5  A    between atoms: C_9  and  O_10
REMARK                            x       y       z     vdW  Elec       q    Type
REMARK                         _______ _______ _______ _____ _____    ______ ____
ROOT
ATOM      1  N   UNL     1       5.420   4.585  17.794  0.00  0.00    +0.000 N 
ATOM      2  C   UNL     1       5.738   4.891  19.093  0.00  0.00    +0.000 A 
ATOM      3  N   UNL     1       7.021   5.121  19.242  0.00  0.00    +0.000 NA
ATOM      4  C   UNL     1       7.557   4.970  17.993  0.00  0.00    +0.000 A 
ATOM      5  C   UNL     1       6.589   4.646  17.064  0.00  0.00    +0.000 A 
ENDROOT
BRANCH   1   7
ATOM      6  C   UNL     1       3.715   2.805  17.725  0.00  0.00    +0.000 C 
ATOM      7  C   UNL     1       4.083   4.233  17.324  0.00  0.00    +0.000 C 
ATOM      8  C   UNL     1       3.027   5.229  17.813  0.00  0.00    +0.000 C 
ENDBRANCH   1   7
BRANCH   5   9
ATOM      9  C   UNL     1       6.710   4.439  15.605  0.00  0.00    +0.000 C 
BRANCH   9  10
ATOM     10  O   UNL     1       7.599   5.425  15.105  0.00  0.00    +0.000 OA
ATOM     11  H   UNL     1       8.416   5.346  15.629  0.00  0.00    +0.000 HD
ENDBRANCH   9  10
ENDBRANCH   5   9
TORSDOF 3
ENDMDL
MODEL 3
REMARK VINA RESULT:      -4.6      2.220      2.793
REMARK  Name = 
REMARK  5 active torsions:
REMARK  status: ('A' for Active; 'I' for Inactive)
REMARK    1  A    between atoms: C_1  and  C_2
REMARK    2  A    between atoms: C_2  and  C_3
REMARK    3  A    between atoms: C_2  and  N_4
REMARK    4  A    between atoms: C_8  and  C_9
REMARK    5  A    between atoms: C_9  and  O_10
REMARK                            x       y       z     vdW  Elec       q    Type
REMARK                         _______ _______ _______ _____ _____    ______ ____
ROOT
ATOM      1  N   UNL     1       2.921   3.869  19.673  0.00  0.00    +0.000 N 
ATOM      2  C   UNL     1       3.994   3.015  19.677  0.00  0.00    +0.000 A 
ATOM      3  N   UNL     1       5.113   3.634  19.385  0.00  0.00    +0.000 NA
ATOM      4  C   UNL     1       4.759   4.940  19.195  0.00  0.00    +0.000 A 
ATOM      5  C   UNL     1       3.403   5.127  19.375  0.00  0.00    +0.000 A 
ENDROOT
BRANCH   1   7
ATOM      6  C   UNL     1       1.034   2.537  18.810  0.00  0.00    +0.000 C 
ATOM      7  C   UNL     1       1.537   3.469  19.911  0.00  0.00    +0.000 C 
ATOM      8  C   UNL     1       1.358   2.831  21.292  0.00  0.00    +0.000 C 
ENDBRANCH   1   7
BRANCH   5   9
ATOM      9  C   UNL     1       2.602   6.369  19.315  0.00  0.00    +0.000 C 
BRANCH   9  10
ATOM     10  O   UNL     1       2.343   6.774  20.649  0.00  0.00    +0.000 OA
ATOM     11  H   UNL     1       2.603   7.711  20.706  0.00  0.00    +0.000 HD
ENDBRANCH   9  10
ENDBRANCH   5   9
TORSDOF 3
ENDMDL
MODEL 4
REMARK VINA RESULT:      -4.5      1.339      2.348
REMARK  Name = 
REMARK  5 active torsions:
REMARK  status: ('A' for Active; 'I' for Inactive)
REMARK    1  A    between atoms: C_1  and  C_2
REMARK    2  A    between atoms: C_2  and  C_3
REMARK    3  A    between atoms: C_2  and  N_4
REMARK    4  A    between atoms: C_8  and  C_9
REMARK    5  A    between atoms: C_9  and  O_10
REMARK                            x       y       z     vdW  Elec       q    Type
REMARK                         _______ _______ _______ _____ _____    ______ ____
ROOT
ATOM      1  N   UNL     1       2.426   4.186  19.739  0.00  0.00    +0.000 N 
ATOM      2  C   UNL     1       1.871   5.342  20.225  0.00  0.00    +0.000 A 
ATOM      3  N   UNL     1       2.560   6.401  19.874  0.00  0.00    +0.000 NA
ATOM      4  C   UNL     1       3.595   5.921  19.122  0.00  0.00    +0.000 A 
ATOM      5  C   UNL     1       3.540   4.546  19.008  0.00  0.00    +0.000 A 
ENDROOT
BRANCH   1   7
ATOM      6  C   UNL     1       1.378   2.724  21.425  0.00  0.00    +0.000 C 
ATOM      7  C   UNL     1       1.918   2.842  20.000  0.00  0.00    +0.000 C 
ATOM      8  C   UNL     1       0.858   2.425  18.977  0.00  0.00    +0.000 C 
ENDBRANCH   1   7
BRANCH   5   9
ATOM      9  C   UNL     1       4.418   3.623  18.257  0.00  0.00    +0.000 C 
BRANCH   9  10
ATOM     10  O   UNL     1       5.469   3.232  19.126  0.00  0.00    +0.000 OA
ATOM     11  H   UNL     1       5.879   4.055  19.447  0.00  0.00    +0.000 HD
ENDBRANCH   9  10
ENDBRANCH   5   9
TORSDOF 3
ENDMDL
MODEL 5
REMARK VINA RESULT:      -4.5      3.316      4.989
REMARK  Name = 
REMARK  5 active torsions:
REMARK  status: ('A' for Active; 'I' for Inactive)
REMARK    1  A    between atoms: C_1  and  C_2
REMARK    2  A    between atoms: C_2  and  C_3
REMARK    3  A    between atoms: C_2  and  N_4
REMARK    4  A    between atoms: C_8  and  C_9
REMARK    5  A    between atoms: C_9  and  O_10
REMARK                            x       y       z     vdW  Elec       q    Type
REMARK                         _______ _______ _______ _____ _____    ______ ____
ROOT
ATOM      1  N   UNL     1       6.548   5.375  17.114  0.00  0.00    +0.000 N 
ATOM      2  C   UNL     1       7.089   5.275  15.858  0.00  0.00    +0.000 A 
ATOM      3  N   UNL     1       6.556   4.292  15.172  0.00  0.00    +0.000 NA
ATOM      4  C   UNL     1       5.626   3.738  16.007  0.00  0.00    +0.000 A 
ATOM      5  C   UNL     1       5.586   4.393  17.223  0.00  0.00    +0.000 A 
ENDROOT
BRANCH   1   7
ATOM      6  C   UNL     1       7.927   5.697  19.133  0.00  0.00    +0.000 C 
ATOM      7  C   UNL     1       6.970   6.338  18.129  0.00  0.00    +0.000 C 
ATOM      8  C   UNL     1       7.590   7.590  17.503  0.00  0.00    +0.000 C 
ENDBRANCH   1   7
BRANCH   5   9
ATOM      9  C   UNL     1       4.710   4.164  18.392  0.00  0.00    +0.000 C 
BRANCH   9  10
ATOM     10  O   UNL     1       5.346   3.207  19.223  0.00  0.00    +0.000 OA
ATOM     11  H   UNL     1       4.646   2.813  19.773  0.00  0.00    +0.000 HD
ENDBRANCH   9  10
ENDBRANCH   5   9
TORSDOF 3
ENDMDL
MODEL 6
REMARK VINA RESULT:      -4.4      1.690      2.469
REMARK  Name = 
REMARK  5 active torsions:
REMARK  status: ('A' for Active; 'I' for Inactive)
REMARK    1  A    between atoms: C_1  and  C_2
REMARK    2  A    between atoms: C_2  and  C_3
REMARK    3  A    between atoms: C_2  and  N_4
REMARK    4  A    between atoms: C_8  and  C_9
REMARK    5  A    between atoms: C_9  and  O_10
REMARK                            x       y       z     vdW  Elec       q    Type
REMARK                         _______ _______ _______ _____ _____    ______ ____
ROOT
ATOM      1  N   UNL     1       2.685   4.116  19.808  0.00  0.00    +0.000 N 
ATOM      2  C   UNL     1       2.942   5.461  19.738  0.00  0.00    +0.000 A 
ATOM      3  N   UNL     1       4.186   5.704  19.397  0.00  0.00    +0.000 NA
ATOM      4  C   UNL     1       4.756   4.474  19.229  0.00  0.00    +0.000 A 
ATOM      5  C   UNL     1       3.849   3.460  19.467  0.00  0.00    +0.000 A 
ENDROOT
BRANCH   1   7
ATOM      6  C   UNL     1       0.827   2.658  19.097  0.00  0.00    +0.000 C 
ATOM      7  C   UNL     1       1.407   3.532  20.209  0.00  0.00    +0.000 C 
ATOM      8  C   UNL     1       1.527   2.746  21.518  0.00  0.00    +0.000 C 
ENDBRANCH   1   7
BRANCH   5   9
ATOM      9  C   UNL     1       4.017   1.995  19.358  0.00  0.00    +0.000 C 
BRANCH   9  10
ATOM     10  O   UNL     1       5.160   1.638  20.119  0.00  0.00    +0.000 OA
ATOM     11  H   UNL     1       5.809   1.280  19.488  0.00  0.00    +0.000 HD
ENDBRANCH   9  10
ENDBRANCH   5   9
TORSDOF 3
ENDMDL
MODEL 7
REMARK VINA RESULT:      -4.4      2.132      3.314
REMARK  Name = 
REMARK  5 active torsions:
REMARK  status: ('A' for Active; 'I' for Inactive)
REMARK    1  A    between atoms: C_1  and  C_2
REMARK    2  A    between atoms: C_2  and  C_3
REMARK    3  A    between atoms: C_2  and  N_4
REMARK    4  A    between atoms: C_8  and  C_9
REMARK    5  A    between atoms: C_9  and  O_10
REMARK                            x       y       z     vdW  Elec       q    Type
REMARK                         _______ _______ _______ _____ _____    ______ ____
ROOT
ATOM      1  N   UNL     1       3.023   3.906  18.051  0.00  0.00    +0.000 N 
ATOM      2  C   UNL     1       1.742   4.258  17.713  0.00  0.00    +0.000 A 
ATOM      3  N   UNL     1       0.870   3.353  18.088  0.00  0.00    +0.000 NA
ATOM      4  C   UNL     1       1.608   2.381  18.703  0.00  0.00    +0.000 A 
ATOM      5  C   UNL     1       2.953   2.695  18.708  0.00  0.00    +0.000 A 
ENDROOT
BRANCH   1   7
ATOM      6  C   UNL     1       4.839   4.214  16.412  0.00  0.00    +0.000 C 
ATOM      7  C   UNL     1       4.216   4.684  17.725  0.00  0.00    +0.000 C 
ATOM      8  C   UNL     1       3.922   6.186  17.685  0.00  0.00    +0.000 C 
ENDBRANCH   1   7
BRANCH   5   9
ATOM      9  C   UNL     1       4.093   1.962  19.298  0.00  0.00    +0.000 C 
BRANCH   9  10
ATOM     10  O   UNL     1       4.295   0.790  18.525  0.00  0.00    +0.000 OA
ATOM     11  H   UNL     1       4.918   1.033  17.817  0.00  0.00    +0.000 HD
ENDBRANCH   9  10
ENDBRANCH   5   9
TORSDOF 3
ENDMDL
MODEL 8
REMARK VINA RESULT:      -4.4      1.734      2.492
REMARK  Name = 
REMARK  5 active torsions:
REMARK  status: ('A' for Active; 'I' for Inactive)
REMARK    1  A    between atoms: C_1  and  C_2
REMARK    2  A    between atoms: C_2  and  C_3
REMARK    3  A    between atoms: C_2  and  N_4
REMARK    4  A    between atoms: C_8  and  C_9
REMARK    5  A    between atoms: C_9  and  O_10
REMARK                            x       y       z     vdW  Elec       q    Type
REMARK                         _______ _______ _______ _____ _____    ______ ____
ROOT
ATOM      1  N   UNL     1       3.149   4.110  18.832  0.00  0.00    +0.000 N 
ATOM      2  C   UNL     1       2.438   4.185  17.661  0.00  0.00    +0.000 A 
ATOM      3  N   UNL     1       2.116   2.997  17.208  0.00  0.00    +0.000 NA
ATOM      4  C   UNL     1       2.625   2.116  18.122  0.00  0.00    +0.000 A 
ATOM      5  C   UNL     1       3.268   2.774  19.152  0.00  0.00    +0.000 A 
ENDROOT
BRANCH   1   7
ATOM      6  C   UNL     1       5.158   5.495  19.194  0.00  0.00    +0.000 C 
ATOM      7  C   UNL     1       3.691   5.259  19.553  0.00  0.00    +0.000 C 
ATOM      8  C   UNL     1       2.860   6.524  19.315  0.00  0.00    +0.000 C 
ENDBRANCH   1   7
BRANCH   5   9
ATOM      9  C   UNL     1       3.915   2.228  20.364  0.00  0.00    +0.000 C 
BRANCH   9  10
ATOM     10  O   UNL     1       5.232   1.840  20.008  0.00  0.00    +0.000 OA
ATOM     11  H   UNL     1       5.508   1.174  20.663  0.00  0.00    +0.000 HD
ENDBRANCH   9  10
ENDBRANCH   5   9
TORSDOF 3
ENDMDL
MODEL 9
REMARK VINA RESULT:      -4.4      2.498      3.556
REMARK  Name = 
REMARK  5 active torsions:
REMARK  status: ('A' for Active; 'I' for Inactive)
REMARK    1  A    between atoms: C_1  and  C_2
REMARK    2  A    between atoms: C_2  and  C_3
REMARK    3  A    between atoms: C_2  and  N_4
REMARK    4  A    between atoms: C_8  and  C_9
REMARK    5  A    between atoms: C_9  and  O_10
REMARK                            x       y       z     vdW  Elec       q    Type
REMARK                         _______ _______ _______ _____ _____    ______ ____
ROOT
ATOM      1  N   UNL     1       4.377   3.939  17.753  0.00  0.00    +0.000 N 
ATOM      2  C   UNL     1       4.792   4.084  19.052  0.00  0.00    +0.000 A 
ATOM      3  N   UNL     1       6.038   4.484  19.125  0.00  0.00    +0.000 NA
ATOM      4  C   UNL     1       6.448   4.615  17.828  0.00  0.00    +0.000 A 
ATOM      5  C   UNL     1       5.436   4.293  16.944  0.00  0.00    +0.000 A 
ENDROOT
BRANCH   1   7
ATOM      6  C   UNL     1       2.786   2.059  17.893  0.00  0.00    +0.000 C 
ATOM      7  C   UNL     1       3.057   3.461  17.348  0.00  0.00    +0.000 C 
ATOM      8  C   UNL     1       1.948   4.433  17.762  0.00  0.00    +0.000 C 
ENDBRANCH   1   7
BRANCH   5   9
ATOM      9  C   UNL     1       5.421   4.338  15.467  0.00  0.00    +0.000 C 
BRANCH   9  10
ATOM     10  O   UNL     1       6.765   4.242  15.022  0.00  0.00    +0.000 OA
ATOM     11  H   UNL     1       7.125   5.146  15.043  0.00  0.00    +0.000 HD
ENDBRANCH   9  10
ENDBRANCH   5   9
TORSDOF 3
ENDMDL
