MODEL 1
REMARK VINA RESULT:      -7.8      0.000      0.000
REMARK  Name = 
REMARK  5 active torsions:
REMARK  status: ('A' for Active; 'I' for Inactive)
REMARK    1  A    between atoms: C_1  and  N_2
REMARK    2  A    between atoms: N_2  and  C_3
REMARK    3  A    between atoms: N_2  and  S_16
REMARK    4  A    between atoms: C_3  and  C_4
REMARK    5  A    between atoms: S_16  and  C_19
REMARK                            x       y       z     vdW  Elec       q    Type
REMARK                         _______ _______ _______ _____ _____    ______ ____
ROOT
ATOM      1  C   UNL     1       2.555   5.456  20.221  0.00  0.00    +0.000 C 
ENDROOT
BRANCH   1   2
ATOM      2  C   UNL     1       2.086   6.899  20.106  0.00  0.00    +0.000 C 
ATOM      3  O   UNL     1       2.505   7.610  19.198  0.00  0.00    +0.000 OA
ATOM      4  N   UNL     1       1.205   7.272  21.105  0.00  0.00    +0.000 N 
ATOM      5  C   UNL     1       0.599   8.503  21.209  0.00  0.00    +0.000 A 
ATOM      6  N   UNL     1       0.066   8.928  22.329  0.00  0.00    +0.000 NA
ATOM      7  C   UNL     1      -0.430  10.218  22.149  0.00  0.00    +0.000 A 
ATOM      8  C   UNL     1      -1.004  11.044  23.141  0.00  0.00    +0.000 A 
ATOM      9  C   UNL     1      -1.452  12.328  22.806  0.00  0.00    +0.000 A 
ATOM     10  C   UNL     1      -1.345  12.797  21.502  0.00  0.00    +0.000 A 
ATOM     11  C   UNL     1      -0.784  11.999  20.500  0.00  0.00    +0.000 A 
ATOM     12  C   UNL     1      -0.326  10.718  20.849  0.00  0.00    +0.000 A 
ATOM     13  S   UNL     1       0.422   9.532  19.860  0.00  0.00    +0.000 S 
ATOM     14  H   UNL     1       1.154   6.701  21.939  0.00  0.00    +0.000 HD
ENDBRANCH   1   2
BRANCH   1  16
ATOM     15  C   UNL     1       0.885   3.639  20.070  0.00  0.00    +0.000 C 
ATOM     16  N   UNL     1       1.826   4.513  19.313  0.00  0.00    +0.000 NA
BRANCH  16  17
ATOM     17  S   UNL     1       2.944   3.608  18.354  0.00  0.00    +0.000 S 
ATOM     18  O   UNL     1       3.451   2.527  19.173  0.00  0.00    +0.000 OA
ATOM     19  O   UNL     1       2.317   3.359  17.076  0.00  0.00    +0.000 OA
BRANCH  17  20
ATOM     20  C   UNL     1       4.283   4.754  18.123  0.00  0.00    +0.000 A 
ATOM     21  C   UNL     1       5.386   4.688  18.980  0.00  0.00    +0.000 A 
ATOM     22  C   UNL     1       6.449   5.575  18.803  0.00  0.00    +0.000 A 
ATOM     23  C   UNL     1       6.404   6.511  17.769  0.00  0.00    +0.000 A 
ATOM     24 BR   UNL     1       7.845   7.713  17.531  0.00  0.00    +0.000 Br
ATOM     25  C   UNL     1       5.308   6.568  16.905  0.00  0.00    +0.000 A 
ATOM     26  C   UNL     1       4.241   5.684  17.078  0.00  0.00    +0.000 A 
ENDBRANCH  17  20
ENDBRANCH  16  17
ENDBRANCH   1  16
TORSDOF 4
ENDMDL
MODEL 2
REMARK VINA RESULT:      -7.7      6.293      8.119
REMARK  Name = 
REMARK  5 active torsions:
REMARK  status: ('A' for Active; 'I' for Inactive)
REMARK    1  A    between atoms: C_1  and  N_2
REMARK    2  A    between atoms: N_2  and  C_3
REMARK    3  A    between atoms: N_2  and  S_16
REMARK    4  A    between atoms: C_3  and  C_4
REMARK    5  A    between atoms: S_16  and  C_19
REMARK                            x       y       z     vdW  Elec       q    Type
REMARK                         _______ _______ _______ _____ _____    ______ ____
ROOT
ATOM      1  C   UNL     1       7.828   7.133  18.356  0.00  0.00    +0.000 C 
ENDROOT
BRANCH   1   2
ATOM      2  C   UNL     1       8.231   8.561  18.021  0.00  0.00    +0.000 C 
ATOM      3  O   UNL     1       7.954   9.035  16.923  0.00  0.00    +0.000 OA
ATOM      4  N   UNL     1       8.919   9.193  19.041  0.00  0.00    +0.000 N 
ATOM      5  C   UNL     1       9.359  10.496  19.013  0.00  0.00    +0.000 A 
ATOM      6  N   UNL     1      10.289  10.938  19.825  0.00  0.00    +0.000 NA
ATOM      7  C   UNL     1      10.560  12.275  19.539  0.00  0.00    +0.000 A 
ATOM      8  C   UNL     1      11.554  13.078  20.140  0.00  0.00    +0.000 A 
ATOM      9  C   UNL     1      11.712  14.411  19.739  0.00  0.00    +0.000 A 
ATOM     10  C   UNL     1      10.892  14.955  18.757  0.00  0.00    +0.000 A 
ATOM     11  C   UNL     1       9.898  14.183  18.147  0.00  0.00    +0.000 A 
ATOM     12  C   UNL     1       9.757  12.845  18.549  0.00  0.00    +0.000 A 
ATOM     13  S   UNL     1       8.661  11.656  17.976  0.00  0.00    +0.000 S 
ATOM     14  H   UNL     1       9.326   8.622  19.772  0.00  0.00    +0.000 HD
ENDBRANCH   1   2
BRANCH   1  16
ATOM     15  C   UNL     1       5.544   6.931  17.431  0.00  0.00    +0.000 C 
ATOM     16  N   UNL     1       6.964   6.492  17.314  0.00  0.00    +0.000 NA
BRANCH  16  17
ATOM     17  S   UNL     1       7.131   4.773  17.359  0.00  0.00    +0.000 S 
ATOM     18  O   UNL     1       7.383   4.320  16.007  0.00  0.00    +0.000 OA
ATOM     19  O   UNL     1       8.031   4.453  18.444  0.00  0.00    +0.000 OA
BRANCH  17  20
ATOM     20  C   UNL     1       5.496   4.228  17.792  0.00  0.00    +0.000 A 
ATOM     21  C   UNL     1       4.603   3.890  16.770  0.00  0.00    +0.000 A 
ATOM     22  C   UNL     1       3.318   3.451  17.096  0.00  0.00    +0.000 A 
ATOM     23  C   UNL     1       2.942   3.347  18.436  0.00  0.00    +0.000 A 
ATOM     24 BR   UNL     1       1.201   2.753  18.875  0.00  0.00    +0.000 Br
ATOM     25  C   UNL     1       3.838   3.673  19.456  0.00  0.00    +0.000 A 
ATOM     26  C   UNL     1       5.125   4.113  19.136  0.00  0.00    +0.000 A 
ENDBRANCH  17  20
ENDBRANCH  16  17
ENDBRANCH   1  16
TORSDOF 4
ENDMDL
MODEL 3
REMARK VINA RESULT:      -7.7      1.966      2.209
REMARK  Name = 
REMARK  5 active torsions:
REMARK  status: ('A' for Active; 'I' for Inactive)
REMARK    1  A    between atoms: C_1  and  N_2
REMARK    2  A    between atoms: N_2  and  C_3
REMARK    3  A    between atoms: N_2  and  S_16
REMARK    4  A    between atoms: C_3  and  C_4
REMARK    5  A    between atoms: S_16  and  C_19
REMARK                            x       y       z     vdW  Elec       q    Type
REMARK                         _______ _______ _______ _____ _____    ______ ____
ROOT
ATOM      1  C   UNL     1       3.641   5.882  19.237  0.00  0.00    +0.000 C 
ENDROOT
BRANCH   1   2
ATOM      2  C   UNL     1       2.825   7.165  19.273  0.00  0.00    +0.000 C 
ATOM      3  O   UNL     1       2.884   7.957  18.337  0.00  0.00    +0.000 OA
ATOM      4  N   UNL     1       2.081   7.311  20.430  0.00  0.00    +0.000 N 
ATOM      5  C   UNL     1       1.225   8.355  20.696  0.00  0.00    +0.000 A 
ATOM      6  N   UNL     1       0.822   8.637  21.912  0.00  0.00    +0.000 NA
ATOM      7  C   UNL     1       0.004   9.765  21.882  0.00  0.00    +0.000 A 
ATOM      8  C   UNL     1      -0.558  10.425  22.997  0.00  0.00    +0.000 A 
ATOM      9  C   UNL     1      -1.358  11.559  22.806  0.00  0.00    +0.000 A 
ATOM     10  C   UNL     1      -1.611  12.039  21.526  0.00  0.00    +0.000 A 
ATOM     11  C   UNL     1      -1.069  11.403  20.405  0.00  0.00    +0.000 A 
ATOM     12  C   UNL     1      -0.259  10.274  20.608  0.00  0.00    +0.000 A 
ATOM     13  S   UNL     1       0.558   9.308  19.449  0.00  0.00    +0.000 S 
ATOM     14  H   UNL     1       2.325   6.746  21.233  0.00  0.00    +0.000 HD
ENDBRANCH   1   2
BRANCH   1  16
ATOM     15  C   UNL     1       1.783   4.457  18.443  0.00  0.00    +0.000 C 
ATOM     16  N   UNL     1       3.183   4.907  18.196  0.00  0.00    +0.000 NA
BRANCH  16  17
ATOM     17  S   UNL     1       4.291   3.586  18.073  0.00  0.00    +0.000 S 
ATOM     18  O   UNL     1       5.140   3.612  19.245  0.00  0.00    +0.000 OA
ATOM     19  O   UNL     1       3.527   2.411  17.719  0.00  0.00    +0.000 OA
BRANCH  17  20
ATOM     20  C   UNL     1       5.304   4.048  16.688  0.00  0.00    +0.000 A 
ATOM     21  C   UNL     1       4.766   3.965  15.399  0.00  0.00    +0.000 A 
ATOM     22  C   UNL     1       5.548   4.335  14.303  0.00  0.00    +0.000 A 
ATOM     23  C   UNL     1       6.851   4.791  14.505  0.00  0.00    +0.000 A 
ATOM     24 BR   UNL     1       7.908   5.292  13.018  0.00  0.00    +0.000 Br
ATOM     25  C   UNL     1       7.382   4.887  15.793  0.00  0.00    +0.000 A 
ATOM     26  C   UNL     1       6.606   4.517  16.893  0.00  0.00    +0.000 A 
ENDBRANCH  17  20
ENDBRANCH  16  17
ENDBRANCH   1  16
TORSDOF 4
ENDMDL
MODEL 4
REMARK VINA RESULT:      -7.6      3.992      8.675
REMARK  Name = 
REMARK  5 active torsions:
REMARK  status: ('A' for Active; 'I' for Inactive)
REMARK    1  A    between atoms: C_1  and  N_2
REMARK    2  A    between atoms: N_2  and  C_3
REMARK    3  A    between atoms: N_2  and  S_16
REMARK    4  A    between atoms: C_3  and  C_4
REMARK    5  A    between atoms: S_16  and  C_19
REMARK                            x       y       z     vdW  Elec       q    Type
REMARK                         _______ _______ _______ _____ _____    ______ ____
ROOT
ATOM      1  C   UNL     1       1.403  10.459  18.400  0.00  0.00    +0.000 C 
ENDROOT
BRANCH   1   2
ATOM      2  C   UNL     1       1.914   9.029  18.306  0.00  0.00    +0.000 C 
ATOM      3  O   UNL     1       2.373   8.610  17.248  0.00  0.00    +0.000 OA
ATOM      4  N   UNL     1       1.778   8.317  19.484  0.00  0.00    +0.000 N 
ATOM      5  C   UNL     1       2.199   7.022  19.681  0.00  0.00    +0.000 A 
ATOM      6  N   UNL     1       1.747   6.282  20.665  0.00  0.00    +0.000 NA
ATOM      7  C   UNL     1       2.312   5.011  20.590  0.00  0.00    +0.000 A 
ATOM      8  C   UNL     1       2.015   3.908  21.421  0.00  0.00    +0.000 A 
ATOM      9  C   UNL     1       2.664   2.684  21.215  0.00  0.00    +0.000 A 
ATOM     10  C   UNL     1       3.607   2.545  20.202  0.00  0.00    +0.000 A 
ATOM     11  C   UNL     1       3.921   3.621  19.366  0.00  0.00    +0.000 A 
ATOM     12  C   UNL     1       3.256   4.840  19.574  0.00  0.00    +0.000 A 
ATOM     13  S   UNL     1       3.406   6.313  18.708  0.00  0.00    +0.000 S 
ATOM     14  H   UNL     1       1.142   8.670  20.188  0.00  0.00    +0.000 HD
ENDBRANCH   1   2
BRANCH   1  16
ATOM     15  C   UNL     1      -1.002  10.418  18.973  0.00  0.00    +0.000 C 
ATOM     16  N   UNL     1       0.380  10.663  19.476  0.00  0.00    +0.000 NA
BRANCH  16  17
ATOM     17  S   UNL     1       0.557  12.225  20.194  0.00  0.00    +0.000 S 
ATOM     18  O   UNL     1       1.773  12.212  20.980  0.00  0.00    +0.000 OA
ATOM     19  O   UNL     1       0.337  13.207  19.157  0.00  0.00    +0.000 OA
BRANCH  17  20
ATOM     20  C   UNL     1      -0.800  12.288  21.340  0.00  0.00    +0.000 A 
ATOM     21  C   UNL     1      -0.813  11.402  22.422  0.00  0.00    +0.000 A 
ATOM     22  C   UNL     1      -1.868  11.448  23.336  0.00  0.00    +0.000 A 
ATOM     23  C   UNL     1      -2.892  12.381  23.163  0.00  0.00    +0.000 A 
ATOM     24 BR   UNL     1      -4.321  12.440  24.402  0.00  0.00    +0.000 Br
ATOM     25  C   UNL     1      -2.872  13.273  22.090  0.00  0.00    +0.000 A 
ATOM     26  C   UNL     1      -1.820  13.232  21.172  0.00  0.00    +0.000 A 
ENDBRANCH  17  20
ENDBRANCH  16  17
ENDBRANCH   1  16
TORSDOF 4
ENDMDL
MODEL 5
REMARK VINA RESULT:      -7.6      0.542      1.110
REMARK  Name = 
REMARK  5 active torsions:
REMARK  status: ('A' for Active; 'I' for Inactive)
REMARK    1  A    between atoms: C_1  and  N_2
REMARK    2  A    between atoms: N_2  and  C_3
REMARK    3  A    between atoms: N_2  and  S_16
REMARK    4  A    between atoms: C_3  and  C_4
REMARK    5  A    between atoms: S_16  and  C_19
REMARK                            x       y       z     vdW  Elec       q    Type
REMARK                         _______ _______ _______ _____ _____    ______ ____
ROOT
ATOM      1  C   UNL     1       2.418   5.021  20.392  0.00  0.00    +0.000 C 
ENDROOT
BRANCH   1   2
ATOM      2  C   UNL     1       2.154   6.513  20.259  0.00  0.00    +0.000 C 
ATOM      3  O   UNL     1       2.783   7.177  19.440  0.00  0.00    +0.000 OA
ATOM      4  N   UNL     1       1.196   6.983  21.139  0.00  0.00    +0.000 N 
ATOM      5  C   UNL     1       0.740   8.280  21.197  0.00  0.00    +0.000 A 
ATOM      6  N   UNL     1       0.112   8.755  22.246  0.00  0.00    +0.000 NA
ATOM      7  C   UNL     1      -0.189  10.100  22.040  0.00  0.00    +0.000 A 
ATOM      8  C   UNL     1      -0.788  10.979  22.968  0.00  0.00    +0.000 A 
ATOM      9  C   UNL     1      -1.021  12.314  22.616  0.00  0.00    +0.000 A 
ATOM     10  C   UNL     1      -0.674  12.783  21.354  0.00  0.00    +0.000 A 
ATOM     11  C   UNL     1      -0.082  11.933  20.414  0.00  0.00    +0.000 A 
ATOM     12  C   UNL     1       0.158  10.600  20.782  0.00  0.00    +0.000 A 
ATOM     13  S   UNL     1       0.884   9.341  19.870  0.00  0.00    +0.000 S 
ATOM     14  H   UNL     1       0.957   6.412  21.940  0.00  0.00    +0.000 HD
ENDBRANCH   1   2
BRANCH   1  16
ATOM     15  C   UNL     1       0.923   3.397  19.278  0.00  0.00    +0.000 C 
ATOM     16  N   UNL     1       2.140   4.247  19.140  0.00  0.00    +0.000 NA
BRANCH  16  17
ATOM     17  S   UNL     1       3.532   3.339  18.665  0.00  0.00    +0.000 S 
ATOM     18  O   UNL     1       3.988   2.596  19.821  0.00  0.00    +0.000 OA
ATOM     19  O   UNL     1       3.215   2.680  17.419  0.00  0.00    +0.000 OA
BRANCH  17  20
ATOM     20  C   UNL     1       4.741   4.605  18.353  0.00  0.00    +0.000 A 
ATOM     21  C   UNL     1       4.538   5.485  17.285  0.00  0.00    +0.000 A 
ATOM     22  C   UNL     1       5.475   6.490  17.035  0.00  0.00    +0.000 A 
ATOM     23  C   UNL     1       6.597   6.610  17.857  0.00  0.00    +0.000 A 
ATOM     24 BR   UNL     1       7.864   7.972  17.516  0.00  0.00    +0.000 Br
ATOM     25  C   UNL     1       6.791   5.739  18.931  0.00  0.00    +0.000 A 
ATOM     26  C   UNL     1       5.858   4.731  19.185  0.00  0.00    +0.000 A 
ENDBRANCH  17  20
ENDBRANCH  16  17
ENDBRANCH   1  16
TORSDOF 4
ENDMDL
MODEL 6
REMARK VINA RESULT:      -7.6      1.536      1.980
REMARK  Name = 
REMARK  5 active torsions:
REMARK  status: ('A' for Active; 'I' for Inactive)
REMARK    1  A    between atoms: C_1  and  N_2
REMARK    2  A    between atoms: N_2  and  C_3
REMARK    3  A    between atoms: N_2  and  S_16
REMARK    4  A    between atoms: C_3  and  C_4
REMARK    5  A    between atoms: S_16  and  C_19
REMARK                            x       y       z     vdW  Elec       q    Type
REMARK                         _______ _______ _______ _____ _____    ______ ____
ROOT
ATOM      1  C   UNL     1       3.336   5.516  19.416  0.00  0.00    +0.000 C 
ENDROOT
BRANCH   1   2
ATOM      2  C   UNL     1       2.686   6.891  19.456  0.00  0.00    +0.000 C 
ATOM      3  O   UNL     1       2.921   7.706  18.569  0.00  0.00    +0.000 OA
ATOM      4  N   UNL     1       1.875   7.085  20.559  0.00  0.00    +0.000 N 
ATOM      5  C   UNL     1       1.139   8.219  20.813  0.00  0.00    +0.000 A 
ATOM      6  N   UNL     1       0.677   8.501  22.008  0.00  0.00    +0.000 NA
ATOM      7  C   UNL     1       0.012   9.725  21.974  0.00  0.00    +0.000 A 
ATOM      8  C   UNL     1      -0.551  10.406  23.075  0.00  0.00    +0.000 A 
ATOM      9  C   UNL     1      -1.184  11.641  22.883  0.00  0.00    +0.000 A 
ATOM     10  C   UNL     1      -1.269  12.202  21.613  0.00  0.00    +0.000 A 
ATOM     11  C   UNL     1      -0.722  11.548  20.505  0.00  0.00    +0.000 A 
ATOM     12  C   UNL     1      -0.080  10.316  20.711  0.00  0.00    +0.000 A 
ATOM     13  S   UNL     1       0.700   9.301  19.569  0.00  0.00    +0.000 S 
ATOM     14  H   UNL     1       1.980   6.460  21.349  0.00  0.00    +0.000 HD
ENDBRANCH   1   2
BRANCH   1  16
ATOM     15  C   UNL     1       2.553   4.069  17.570  0.00  0.00    +0.000 C 
ATOM     16  N   UNL     1       3.606   5.019  18.029  0.00  0.00    +0.000 NA
BRANCH  16  17
ATOM     17  S   UNL     1       5.195   4.347  17.925  0.00  0.00    +0.000 S 
ATOM     18  O   UNL     1       5.439   3.602  19.142  0.00  0.00    +0.000 OA
ATOM     19  O   UNL     1       5.321   3.730  16.624  0.00  0.00    +0.000 OA
BRANCH  17  20
ATOM     20  C   UNL     1       6.237   5.786  17.980  0.00  0.00    +0.000 A 
ATOM     21  C   UNL     1       5.902   6.894  17.194  0.00  0.00    +0.000 A 
ATOM     22  C   UNL     1       6.706   8.034  17.236  0.00  0.00    +0.000 A 
ATOM     23  C   UNL     1       7.829   8.060  18.065  0.00  0.00    +0.000 A 
ATOM     24 BR   UNL     1       8.916   9.606  18.119  0.00  0.00    +0.000 Br
ATOM     25  C   UNL     1       8.155   6.958  18.858  0.00  0.00    +0.000 A 
ATOM     26  C   UNL     1       7.355   5.814  18.820  0.00  0.00    +0.000 A 
ENDBRANCH  17  20
ENDBRANCH  16  17
ENDBRANCH   1  16
TORSDOF 4
ENDMDL
MODEL 7
REMARK VINA RESULT:      -7.4      2.170      2.572
REMARK  Name = 
REMARK  5 active torsions:
REMARK  status: ('A' for Active; 'I' for Inactive)
REMARK    1  A    between atoms: C_1  and  N_2
REMARK    2  A    between atoms: N_2  and  C_3
REMARK    3  A    between atoms: N_2  and  S_16
REMARK    4  A    between atoms: C_3  and  C_4
REMARK    5  A    between atoms: S_16  and  C_19
REMARK                            x       y       z     vdW  Elec       q    Type
REMARK                         _______ _______ _______ _____ _____    ______ ____
ROOT
ATOM      1  C   UNL     1       2.876   5.571  19.934  0.00  0.00    +0.000 C 
ENDROOT
BRANCH   1   2
ATOM      2  C   UNL     1       2.515   6.974  19.469  0.00  0.00    +0.000 C 
ATOM      3  O   UNL     1       2.894   7.373  18.371  0.00  0.00    +0.000 OA
ATOM      4  N   UNL     1       1.777   7.688  20.394  0.00  0.00    +0.000 N 
ATOM      5  C   UNL     1       1.287   8.961  20.207  0.00  0.00    +0.000 A 
ATOM      6  N   UNL     1       0.910   9.720  21.208  0.00  0.00    +0.000 NA
ATOM      7  C   UNL     1       0.504  10.961  20.724  0.00  0.00    +0.000 A 
ATOM      8  C   UNL     1       0.106  12.075  21.496  0.00  0.00    +0.000 A 
ATOM      9  C   UNL     1      -0.269  13.266  20.861  0.00  0.00    +0.000 A 
ATOM     10  C   UNL     1      -0.261  13.361  19.474  0.00  0.00    +0.000 A 
ATOM     11  C   UNL     1       0.126  12.273  18.686  0.00  0.00    +0.000 A 
ATOM     12  C   UNL     1       0.512  11.088  19.333  0.00  0.00    +0.000 A 
ATOM     13  S   UNL     1       1.054   9.611  18.648  0.00  0.00    +0.000 S 
ATOM     14  H   UNL     1       1.768   7.366  21.354  0.00  0.00    +0.000 HD
ENDBRANCH   1   2
BRANCH   1  16
ATOM     15  C   UNL     1       2.563   3.438  18.723  0.00  0.00    +0.000 C 
ATOM     16  N   UNL     1       3.375   4.683  18.835  0.00  0.00    +0.000 NA
BRANCH  16  17
ATOM     17  S   UNL     1       5.061   4.359  19.036  0.00  0.00    +0.000 S 
ATOM     18  O   UNL     1       5.638   5.467  19.767  0.00  0.00    +0.000 OA
ATOM     19  O   UNL     1       5.188   2.997  19.503  0.00  0.00    +0.000 OA
BRANCH  17  20
ATOM     20  C   UNL     1       5.682   4.455  17.374  0.00  0.00    +0.000 A 
ATOM     21  C   UNL     1       4.779   4.371  16.308  0.00  0.00    +0.000 A 
ATOM     22  C   UNL     1       5.252   4.455  14.998  0.00  0.00    +0.000 A 
ATOM     23  C   UNL     1       6.617   4.630  14.765  0.00  0.00    +0.000 A 
ATOM     24 BR   UNL     1       7.256   4.743  12.988  0.00  0.00    +0.000 Br
ATOM     25  C   UNL     1       7.516   4.727  15.829  0.00  0.00    +0.000 A 
ATOM     26  C   UNL     1       7.049   4.642  17.143  0.00  0.00    +0.000 A 
ENDBRANCH  17  20
ENDBRANCH  16  17
ENDBRANCH   1  16
TORSDOF 4
ENDMDL
MODEL 8
REMARK VINA RESULT:      -7.4      2.571      3.167
REMARK  Name = 
REMARK  5 active torsions:
REMARK  status: ('A' for Active; 'I' for Inactive)
REMARK    1  A    between atoms: C_1  and  N_2
REMARK    2  A    between atoms: N_2  and  C_3
REMARK    3  A    between atoms: N_2  and  S_16
REMARK    4  A    between atoms: C_3  and  C_4
REMARK    5  A    between atoms: S_16  and  C_19
REMARK                            x       y       z     vdW  Elec       q    Type
REMARK                         _______ _______ _______ _____ _____    ______ ____
ROOT
ATOM      1  C   UNL     1       3.146   5.469  18.972  0.00  0.00    +0.000 C 
ENDROOT
BRANCH   1   2
ATOM      2  C   UNL     1       2.249   6.283  19.893  0.00  0.00    +0.000 C 
ATOM      3  O   UNL     1       1.754   5.759  20.887  0.00  0.00    +0.000 OA
ATOM      4  N   UNL     1       2.068   7.588  19.473  0.00  0.00    +0.000 N 
ATOM      5  C   UNL     1       1.341   8.544  20.145  0.00  0.00    +0.000 A 
ATOM      6  N   UNL     1       0.907   9.634  19.559  0.00  0.00    +0.000 NA
ATOM      7  C   UNL     1       0.168  10.389  20.467  0.00  0.00    +0.000 A 
ATOM      8  C   UNL     1      -0.529  11.586  20.193  0.00  0.00    +0.000 A 
ATOM      9  C   UNL     1      -1.238  12.230  21.215  0.00  0.00    +0.000 A 
ATOM     10  C   UNL     1      -1.257  11.705  22.502  0.00  0.00    +0.000 A 
ATOM     11  C   UNL     1      -0.574  10.522  22.801  0.00  0.00    +0.000 A 
ATOM     12  C   UNL     1       0.124   9.879  21.767  0.00  0.00    +0.000 A 
ATOM     13  S   UNL     1       1.024   8.419  21.816  0.00  0.00    +0.000 S 
ATOM     14  H   UNL     1       2.290   7.820  18.513  0.00  0.00    +0.000 HD
ENDBRANCH   1   2
BRANCH   1  16
ATOM     15  C   UNL     1       4.584   6.925  17.583  0.00  0.00    +0.000 C 
ATOM     16  N   UNL     1       4.513   6.055  18.792  0.00  0.00    +0.000 NA
BRANCH  16  17
ATOM     17  S   UNL     1       5.711   4.809  18.784  0.00  0.00    +0.000 S 
ATOM     18  O   UNL     1       6.938   5.375  19.303  0.00  0.00    +0.000 OA
ATOM     19  O   UNL     1       5.115   3.630  19.369  0.00  0.00    +0.000 OA
BRANCH  17  20
ATOM     20  C   UNL     1       5.967   4.521  17.049  0.00  0.00    +0.000 A 
ATOM     21  C   UNL     1       4.999   3.810  16.331  0.00  0.00    +0.000 A 
ATOM     22  C   UNL     1       5.183   3.585  14.965  0.00  0.00    +0.000 A 
ATOM     23  C   UNL     1       6.325   4.077  14.331  0.00  0.00    +0.000 A 
ATOM     24 BR   UNL     1       6.572   3.771  12.481  0.00  0.00    +0.000 Br
ATOM     25  C   UNL     1       7.284   4.798  15.045  0.00  0.00    +0.000 A 
ATOM     26  C   UNL     1       7.106   5.025  16.412  0.00  0.00    +0.000 A 
ENDBRANCH  17  20
ENDBRANCH  16  17
ENDBRANCH   1  16
TORSDOF 4
ENDMDL
MODEL 9
REMARK VINA RESULT:      -7.3      2.140      2.416
REMARK  Name = 
REMARK  5 active torsions:
REMARK  status: ('A' for Active; 'I' for Inactive)
REMARK    1  A    between atoms: C_1  and  N_2
REMARK    2  A    between atoms: N_2  and  C_3
REMARK    3  A    between atoms: N_2  and  S_16
REMARK    4  A    between atoms: C_3  and  C_4
REMARK    5  A    between atoms: S_16  and  C_19
REMARK                            x       y       z     vdW  Elec       q    Type
REMARK                         _______ _______ _______ _____ _____    ______ ____
ROOT
ATOM      1  C   UNL     1       2.833   6.044  19.668  0.00  0.00    +0.000 C 
ENDROOT
BRANCH   1   2
ATOM      2  C   UNL     1       2.359   7.419  19.221  0.00  0.00    +0.000 C 
ATOM      3  O   UNL     1       2.619   7.820  18.090  0.00  0.00    +0.000 OA
ATOM      4  N   UNL     1       1.667   8.108  20.200  0.00  0.00    +0.000 N 
ATOM      5  C   UNL     1       1.095   9.349  20.043  0.00  0.00    +0.000 A 
ATOM      6  N   UNL     1       0.766  10.103  21.065  0.00  0.00    +0.000 NA
ATOM      7  C   UNL     1       0.253  11.314  20.604  0.00  0.00    +0.000 A 
ATOM      8  C   UNL     1      -0.136  12.417  21.396  0.00  0.00    +0.000 A 
ATOM      9  C   UNL     1      -0.628  13.576  20.784  0.00  0.00    +0.000 A 
ATOM     10  C   UNL     1      -0.746  13.650  19.400  0.00  0.00    +0.000 A 
ATOM     11  C   UNL     1      -0.371  12.572  18.593  0.00  0.00    +0.000 A 
ATOM     12  C   UNL     1       0.133  11.419  19.217  0.00  0.00    +0.000 A 
ATOM     13  S   UNL     1       0.693   9.962  18.503  0.00  0.00    +0.000 S 
ATOM     14  H   UNL     1       1.758   7.800  21.160  0.00  0.00    +0.000 HD
ENDBRANCH   1   2
BRANCH   1  16
ATOM     15  C   UNL     1       2.103   4.118  18.300  0.00  0.00    +0.000 C 
ATOM     16  N   UNL     1       3.175   5.128  18.534  0.00  0.00    +0.000 NA
BRANCH  16  17
ATOM     17  S   UNL     1       4.724   4.404  18.784  0.00  0.00    +0.000 S 
ATOM     18  O   UNL     1       5.467   5.255  19.690  0.00  0.00    +0.000 OA
ATOM     19  O   UNL     1       4.508   3.003  19.068  0.00  0.00    +0.000 OA
BRANCH  17  20
ATOM     20  C   UNL     1       5.492   4.553  17.188  0.00  0.00    +0.000 A 
ATOM     21  C   UNL     1       6.808   5.020  17.111  0.00  0.00    +0.000 A 
ATOM     22  C   UNL     1       7.426   5.132  15.864  0.00  0.00    +0.000 A 
ATOM     23  C   UNL     1       6.729   4.770  14.710  0.00  0.00    +0.000 A 
ATOM     24 BR   UNL     1       7.568   4.924  13.023  0.00  0.00    +0.000 Br
ATOM     25  C   UNL     1       5.419   4.292  14.789  0.00  0.00    +0.000 A 
ATOM     26  C   UNL     1       4.795   4.178  16.034  0.00  0.00    +0.000 A 
ENDBRANCH  17  20
ENDBRANCH  16  17
ENDBRANCH   1  16
TORSDOF 4
ENDMDL
