MODEL 1
REMARK VINA RESULT:      -7.9      0.000      0.000
REMARK  Name = 
REMARK  5 active torsions:
REMARK  status: ('A' for Active; 'I' for Inactive)
REMARK    1  A    between atoms: C_2  and  C_3
REMARK    2  A    between atoms: C_8  and  C_10
REMARK    3  A    between atoms: C_10  and  N_11
REMARK    4  A    between atoms: N_11  and  C_12
REMARK    5  A    between atoms: C_15  and  N_16
REMARK                            x       y       z     vdW  Elec       q    Type
REMARK                         _______ _______ _______ _____ _____    ______ ____
ROOT
ATOM      1  C   UNL     1       3.024   5.171  18.625  0.00  0.00    +0.000 C 
ATOM      2  C   UNL     1       2.773   6.664  18.334  0.00  0.00    +0.000 C 
ATOM      3  C   UNL     1       2.490   7.470  19.598  0.00  0.00    +0.000 C 
ATOM      4  C   UNL     1       1.314   6.872  20.373  0.00  0.00    +0.000 C 
ATOM      5  C   UNL     1       1.636   5.425  20.756  0.00  0.00    +0.000 C 
ATOM      6  C   UNL     1       1.906   4.578  19.507  0.00  0.00    +0.000 C 
ENDROOT
BRANCH   4   7
ATOM      7  N   UNL     1       1.041   7.641  21.575  0.00  0.00    +0.000 N 
ATOM      8  C   UNL     1       0.372   8.811  21.507  0.00  0.00    +0.000 A 
ATOM      9  N   UNL     1      -0.100   9.338  20.403  0.00  0.00    +0.000 NA
ATOM     10  C   UNL     1      -0.681  10.564  20.660  0.00  0.00    +0.000 A 
ATOM     11  C   UNL     1      -1.248  11.425  19.698  0.00  0.00    +0.000 A 
ATOM     12  C   UNL     1      -1.795  12.648  20.097  0.00  0.00    +0.000 A 
ATOM     13  C   UNL     1      -1.786  13.018  21.438  0.00  0.00    +0.000 A 
ATOM     14  C   UNL     1      -1.228  12.183  22.411  0.00  0.00    +0.000 A 
ATOM     15  C   UNL     1      -0.678  10.958  21.998  0.00  0.00    +0.000 A 
ATOM     16  S   UNL     1       0.084   9.730  22.933  0.00  0.00    +0.000 S 
ATOM     17  H   UNL     1       1.395   7.307  22.462  0.00  0.00    +0.000 HD
ENDBRANCH   4   7
BRANCH   1  18
ATOM     18  N   UNL     1       3.164   4.402  17.375  0.00  0.00    +0.000 NA
ATOM     19  H   UNL     1       2.480   3.646  17.322  0.00  0.00    +0.000 HD
BRANCH  18  20
ATOM     20  C   UNL     1       4.519   3.838  17.233  0.00  0.00    +0.000 C 
BRANCH  20  26
ATOM     21  C   UNL     1       6.299   6.175  17.069  0.00  0.00    +0.000 C 
ATOM     22  C   UNL     1       7.148   7.350  17.562  0.00  0.00    +0.000 C 
ATOM     23  C   UNL     1       8.124   6.688  18.529  0.00  0.00    +0.000 C 
ATOM     24  C   UNL     1       7.255   5.645  19.222  0.00  0.00    +0.000 C 
ATOM     25  N   UNL     1       6.312   5.233  18.197  0.00  0.00    +0.000 N 
ATOM     26  C   UNL     1       5.457   4.157  18.405  0.00  0.00    +0.000 C 
ATOM     27  O   UNL     1       5.459   3.524  19.461  0.00  0.00    +0.000 OA
BRANCH  21  29
ATOM     28  N   UNL     1       7.312   5.137  14.868  0.00  0.00    +0.000 NA
ATOM     29  C   UNL     1       6.875   5.607  15.828  0.00  0.00    +0.000 C 
ENDBRANCH  21  29
ENDBRANCH  20  26
ENDBRANCH  18  20
ENDBRANCH   1  18
TORSDOF 5
ENDMDL
MODEL 2
REMARK VINA RESULT:      -7.8      3.105      4.762
REMARK  Name = 
REMARK  5 active torsions:
REMARK  status: ('A' for Active; 'I' for Inactive)
REMARK    1  A    between atoms: C_2  and  C_3
REMARK    2  A    between atoms: C_8  and  C_10
REMARK    3  A    between atoms: C_10  and  N_11
REMARK    4  A    between atoms: N_11  and  C_12
REMARK    5  A    between atoms: C_15  and  N_16
REMARK                            x       y       z     vdW  Elec       q    Type
REMARK                         _______ _______ _______ _____ _____    ______ ____
ROOT
ATOM      1  C   UNL     1       2.486   7.013  18.372  0.00  0.00    +0.000 C 
ATOM      2  C   UNL     1       2.299   7.418  19.847  0.00  0.00    +0.000 C 
ATOM      3  C   UNL     1       1.124   8.372  20.050  0.00  0.00    +0.000 C 
ATOM      4  C   UNL     1       1.273   9.614  19.170  0.00  0.00    +0.000 C 
ATOM      5  C   UNL     1       1.337   9.195  17.698  0.00  0.00    +0.000 C 
ATOM      6  C   UNL     1       2.520   8.251  17.451  0.00  0.00    +0.000 C 
ENDROOT
BRANCH   4   7
ATOM      7  N   UNL     1       0.159  10.525  19.365  0.00  0.00    +0.000 N 
ATOM      8  C   UNL     1       0.314  11.853  19.183  0.00  0.00    +0.000 A 
ATOM      9  N   UNL     1       1.430  12.429  18.807  0.00  0.00    +0.000 NA
ATOM     10  C   UNL     1       1.280  13.802  18.769  0.00  0.00    +0.000 A 
ATOM     11  C   UNL     1       2.288  14.732  18.449  0.00  0.00    +0.000 A 
ATOM     12  C   UNL     1       2.001  16.100  18.460  0.00  0.00    +0.000 A 
ATOM     13  C   UNL     1       0.723  16.546  18.782  0.00  0.00    +0.000 A 
ATOM     14  C   UNL     1      -0.295  15.644  19.105  0.00  0.00    +0.000 A 
ATOM     15  C   UNL     1       0.007  14.272  19.094  0.00  0.00    +0.000 A 
ATOM     16  S   UNL     1      -1.004  12.926  19.451  0.00  0.00    +0.000 S 
ATOM     17  H   UNL     1      -0.729  10.154  19.679  0.00  0.00    +0.000 HD
ENDBRANCH   4   7
BRANCH   1  18
ATOM     18  N   UNL     1       3.702   6.199  18.194  0.00  0.00    +0.000 NA
ATOM     19  H   UNL     1       4.381   6.668  17.593  0.00  0.00    +0.000 HD
BRANCH  18  20
ATOM     20  C   UNL     1       3.392   4.873  17.631  0.00  0.00    +0.000 C 
BRANCH  20  26
ATOM     21  C   UNL     1       2.986   3.880  20.370  0.00  0.00    +0.000 C 
ATOM     22  C   UNL     1       2.233   3.536  21.659  0.00  0.00    +0.000 C 
ATOM     23  C   UNL     1       1.118   2.617  21.172  0.00  0.00    +0.000 C 
ATOM     24  C   UNL     1       0.714   3.253  19.847  0.00  0.00    +0.000 C 
ATOM     25  N   UNL     1       1.952   3.807  19.328  0.00  0.00    +0.000 N 
ATOM     26  C   UNL     1       2.018   4.324  18.039  0.00  0.00    +0.000 C 
ATOM     27  O   UNL     1       1.035   4.340  17.299  0.00  0.00    +0.000 OA
BRANCH  21  29
ATOM     28  N   UNL     1       4.953   2.173  19.960  0.00  0.00    +0.000 NA
ATOM     29  C   UNL     1       4.099   2.927  20.153  0.00  0.00    +0.000 C 
ENDBRANCH  21  29
ENDBRANCH  20  26
ENDBRANCH  18  20
ENDBRANCH   1  18
TORSDOF 5
ENDMDL
MODEL 3
REMARK VINA RESULT:      -7.6      3.081      4.744
REMARK  Name = 
REMARK  5 active torsions:
REMARK  status: ('A' for Active; 'I' for Inactive)
REMARK    1  A    between atoms: C_2  and  C_3
REMARK    2  A    between atoms: C_8  and  C_10
REMARK    3  A    between atoms: C_10  and  N_11
REMARK    4  A    between atoms: N_11  and  C_12
REMARK    5  A    between atoms: C_15  and  N_16
REMARK                            x       y       z     vdW  Elec       q    Type
REMARK                         _______ _______ _______ _____ _____    ______ ____
ROOT
ATOM      1  C   UNL     1       2.479   7.095  18.559  0.00  0.00    +0.000 C 
ATOM      2  C   UNL     1       2.228   7.318  20.063  0.00  0.00    +0.000 C 
ATOM      3  C   UNL     1       1.086   8.295  20.329  0.00  0.00    +0.000 C 
ATOM      4  C   UNL     1       1.337   9.630  19.627  0.00  0.00    +0.000 C 
ATOM      5  C   UNL     1       1.464   9.399  18.118  0.00  0.00    +0.000 C 
ATOM      6  C   UNL     1       2.617   8.437  17.809  0.00  0.00    +0.000 C 
ENDROOT
BRANCH   4   7
ATOM      7  N   UNL     1       0.253  10.563  19.883  0.00  0.00    +0.000 N 
ATOM      8  C   UNL     1      -0.795  10.651  19.037  0.00  0.00    +0.000 A 
ATOM      9  N   UNL     1      -0.947   9.920  17.959  0.00  0.00    +0.000 NA
ATOM     10  C   UNL     1      -2.091  10.290  17.279  0.00  0.00    +0.000 A 
ATOM     11  C   UNL     1      -2.535   9.744  16.058  0.00  0.00    +0.000 A 
ATOM     12  C   UNL     1      -3.710  10.222  15.470  0.00  0.00    +0.000 A 
ATOM     13  C   UNL     1      -4.444  11.231  16.087  0.00  0.00    +0.000 A 
ATOM     14  C   UNL     1      -4.023  11.790  17.297  0.00  0.00    +0.000 A 
ATOM     15  C   UNL     1      -2.839  11.304  17.876  0.00  0.00    +0.000 A 
ATOM     16  S   UNL     1      -2.056  11.783  19.332  0.00  0.00    +0.000 S 
ATOM     17  H   UNL     1       0.313  11.176  20.685  0.00  0.00    +0.000 HD
ENDBRANCH   4   7
BRANCH   1  18
ATOM     18  N   UNL     1       3.667   6.251  18.338  0.00  0.00    +0.000 NA
ATOM     19  H   UNL     1       4.394   6.755  17.827  0.00  0.00    +0.000 HD
BRANCH  18  20
ATOM     20  C   UNL     1       3.329   5.017  17.605  0.00  0.00    +0.000 C 
BRANCH  20  26
ATOM     21  C   UNL     1       2.997   3.921  20.315  0.00  0.00    +0.000 C 
ATOM     22  C   UNL     1       2.274   3.506  21.600  0.00  0.00    +0.000 C 
ATOM     23  C   UNL     1       1.194   2.555  21.094  0.00  0.00    +0.000 C 
ATOM     24  C   UNL     1       0.748   3.213  19.794  0.00  0.00    +0.000 C 
ATOM     25  N   UNL     1       1.955   3.837  19.281  0.00  0.00    +0.000 N 
ATOM     26  C   UNL     1       1.985   4.396  18.009  0.00  0.00    +0.000 C 
ATOM     27  O   UNL     1       0.994   4.393  17.279  0.00  0.00    +0.000 OA
BRANCH  21  29
ATOM     28  N   UNL     1       5.061   2.341  19.877  0.00  0.00    +0.000 NA
ATOM     29  C   UNL     1       4.148   3.026  20.057  0.00  0.00    +0.000 C 
ENDBRANCH  21  29
ENDBRANCH  20  26
ENDBRANCH  18  20
ENDBRANCH   1  18
TORSDOF 5
ENDMDL
MODEL 4
REMARK VINA RESULT:      -7.5      3.560      5.746
REMARK  Name = 
REMARK  5 active torsions:
REMARK  status: ('A' for Active; 'I' for Inactive)
REMARK    1  A    between atoms: C_2  and  C_3
REMARK    2  A    between atoms: C_8  and  C_10
REMARK    3  A    between atoms: C_10  and  N_11
REMARK    4  A    between atoms: N_11  and  C_12
REMARK    5  A    between atoms: C_15  and  N_16
REMARK                            x       y       z     vdW  Elec       q    Type
REMARK                         _______ _______ _______ _____ _____    ______ ____
ROOT
ATOM      1  C   UNL     1       0.980   8.320  21.043  0.00  0.00    +0.000 C 
ATOM      2  C   UNL     1       1.103   9.291  22.233  0.00  0.00    +0.000 C 
ATOM      3  C   UNL     1       0.269  10.556  22.049  0.00  0.00    +0.000 C 
ATOM      4  C   UNL     1       0.634  11.264  20.743  0.00  0.00    +0.000 C 
ATOM      5  C   UNL     1       0.390  10.319  19.562  0.00  0.00    +0.000 C 
ATOM      6  C   UNL     1       1.229   9.043  19.703  0.00  0.00    +0.000 C 
ENDROOT
BRANCH   4   7
ATOM      7  N   UNL     1      -0.156  12.470  20.568  0.00  0.00    +0.000 N 
ATOM      8  C   UNL     1       0.339  13.525  19.888  0.00  0.00    +0.000 A 
ATOM      9  N   UNL     1       1.521  13.560  19.322  0.00  0.00    +0.000 NA
ATOM     10  C   UNL     1       1.753  14.799  18.757  0.00  0.00    +0.000 A 
ATOM     11  C   UNL     1       2.937  15.199  18.106  0.00  0.00    +0.000 A 
ATOM     12  C   UNL     1       3.042  16.493  17.587  0.00  0.00    +0.000 A 
ATOM     13  C   UNL     1       1.983  17.386  17.708  0.00  0.00    +0.000 A 
ATOM     14  C   UNL     1       0.798  17.015  18.352  0.00  0.00    +0.000 A 
ATOM     15  C   UNL     1       0.705  15.713  18.872  0.00  0.00    +0.000 A 
ATOM     16  S   UNL     1      -0.592  14.962  19.717  0.00  0.00    +0.000 S 
ATOM     17  H   UNL     1      -1.070  12.524  20.997  0.00  0.00    +0.000 HD
ENDBRANCH   4   7
BRANCH   1  18
ATOM     18  N   UNL     1       1.895   7.175  21.194  0.00  0.00    +0.000 NA
ATOM     19  H   UNL     1       2.845   7.415  20.906  0.00  0.00    +0.000 HD
BRANCH  18  20
ATOM     20  C   UNL     1       1.437   6.006  20.421  0.00  0.00    +0.000 C 
BRANCH  20  26
ATOM     21  C   UNL     1       1.340   3.186  19.588  0.00  0.00    +0.000 C 
ATOM     22  C   UNL     1       1.525   1.966  18.680  0.00  0.00    +0.000 C 
ATOM     23  C   UNL     1       3.016   1.999  18.362  0.00  0.00    +0.000 C 
ATOM     24  C   UNL     1       3.294   3.489  18.203  0.00  0.00    +0.000 C 
ATOM     25  N   UNL     1       2.383   4.120  19.141  0.00  0.00    +0.000 N 
ATOM     26  C   UNL     1       2.464   5.482  19.408  0.00  0.00    +0.000 C 
ATOM     27  O   UNL     1       3.297   6.200  18.857  0.00  0.00    +0.000 OA
BRANCH  21  29
ATOM     28  N   UNL     1       1.602   2.517  22.124  0.00  0.00    +0.000 NA
ATOM     29  C   UNL     1       1.477   2.797  21.011  0.00  0.00    +0.000 C 
ENDBRANCH  21  29
ENDBRANCH  20  26
ENDBRANCH  18  20
ENDBRANCH   1  18
TORSDOF 5
ENDMDL
MODEL 5
REMARK VINA RESULT:      -7.4      3.375      4.844
REMARK  Name = 
REMARK  5 active torsions:
REMARK  status: ('A' for Active; 'I' for Inactive)
REMARK    1  A    between atoms: C_2  and  C_3
REMARK    2  A    between atoms: C_8  and  C_10
REMARK    3  A    between atoms: C_10  and  N_11
REMARK    4  A    between atoms: N_11  and  C_12
REMARK    5  A    between atoms: C_15  and  N_16
REMARK                            x       y       z     vdW  Elec       q    Type
REMARK                         _______ _______ _______ _____ _____    ______ ____
ROOT
ATOM      1  C   UNL     1       1.491   7.682  20.009  0.00  0.00    +0.000 C 
ATOM      2  C   UNL     1       1.431   8.471  21.331  0.00  0.00    +0.000 C 
ATOM      3  C   UNL     1       0.505   9.682  21.251  0.00  0.00    +0.000 C 
ATOM      4  C   UNL     1       0.909  10.602  20.098  0.00  0.00    +0.000 C 
ATOM      5  C   UNL     1       0.846   9.827  18.778  0.00  0.00    +0.000 C 
ATOM      6  C   UNL     1       1.781   8.613  18.813  0.00  0.00    +0.000 C 
ENDROOT
BRANCH   4   7
ATOM      7  N   UNL     1       0.031  11.756  20.024  0.00  0.00    +0.000 N 
ATOM      8  C   UNL     1       0.477  12.931  19.530  0.00  0.00    +0.000 A 
ATOM      9  N   UNL     1       1.686  13.134  19.066  0.00  0.00    +0.000 NA
ATOM     10  C   UNL     1       1.847  14.453  18.689  0.00  0.00    +0.000 A 
ATOM     11  C   UNL     1       3.032  15.029  18.191  0.00  0.00    +0.000 A 
ATOM     12  C   UNL     1       3.059  16.386  17.857  0.00  0.00    +0.000 A 
ATOM     13  C   UNL     1       1.920  17.170  18.013  0.00  0.00    +0.000 A 
ATOM     14  C   UNL     1       0.732  16.623  18.508  0.00  0.00    +0.000 A 
ATOM     15  C   UNL     1       0.718  15.259  18.843  0.00  0.00    +0.000 A 
ATOM     16  S   UNL     1      -0.562  14.301  19.479  0.00  0.00    +0.000 S 
ATOM     17  H   UNL     1      -0.911  11.681  20.385  0.00  0.00    +0.000 HD
ENDBRANCH   4   7
BRANCH   1  18
ATOM     18  N   UNL     1       2.491   6.600  20.080  0.00  0.00    +0.000 NA
ATOM     19  H   UNL     1       3.294   6.870  20.651  0.00  0.00    +0.000 HD
BRANCH  18  20
ATOM     20  C   UNL     1       2.961   6.205  18.740  0.00  0.00    +0.000 C 
BRANCH  20  26
ATOM     21  C   UNL     1       4.156   3.618  19.471  0.00  0.00    +0.000 C 
ATOM     22  C   UNL     1       4.220   2.117  19.771  0.00  0.00    +0.000 C 
ATOM     23  C   UNL     1       3.661   1.488  18.500  0.00  0.00    +0.000 C 
ATOM     24  C   UNL     1       2.538   2.444  18.117  0.00  0.00    +0.000 C 
ATOM     25  N   UNL     1       3.017   3.745  18.550  0.00  0.00    +0.000 N 
ATOM     26  C   UNL     1       2.333   4.907  18.214  0.00  0.00    +0.000 C 
ATOM     27  O   UNL     1       1.297   4.877  17.550  0.00  0.00    +0.000 OA
BRANCH  21  29
ATOM     28  N   UNL     1       6.418   4.446  18.400  0.00  0.00    +0.000 NA
ATOM     29  C   UNL     1       5.435   4.082  18.884  0.00  0.00    +0.000 C 
ENDBRANCH  21  29
ENDBRANCH  20  26
ENDBRANCH  18  20
ENDBRANCH   1  18
TORSDOF 5
ENDMDL
MODEL 6
REMARK VINA RESULT:      -7.4      3.230      5.643
REMARK  Name = 
REMARK  5 active torsions:
REMARK  status: ('A' for Active; 'I' for Inactive)
REMARK    1  A    between atoms: C_2  and  C_3
REMARK    2  A    between atoms: C_8  and  C_10
REMARK    3  A    between atoms: C_10  and  N_11
REMARK    4  A    between atoms: N_11  and  C_12
REMARK    5  A    between atoms: C_15  and  N_16
REMARK                            x       y       z     vdW  Elec       q    Type
REMARK                         _______ _______ _______ _____ _____    ______ ____
ROOT
ATOM      1  C   UNL     1       0.865   8.487  21.084  0.00  0.00    +0.000 C 
ATOM      2  C   UNL     1       1.113   8.912  22.544  0.00  0.00    +0.000 C 
ATOM      3  C   UNL     1      -0.024   9.757  23.111  0.00  0.00    +0.000 C 
ATOM      4  C   UNL     1      -0.280  10.985  22.235  0.00  0.00    +0.000 C 
ATOM      5  C   UNL     1      -0.642  10.534  20.816  0.00  0.00    +0.000 C 
ATOM      6  C   UNL     1       0.488   9.698  20.205  0.00  0.00    +0.000 C 
ENDROOT
BRANCH   4   7
ATOM      7  N   UNL     1      -1.359  11.792  22.775  0.00  0.00    +0.000 N 
ATOM      8  C   UNL     1      -1.210  13.124  22.934  0.00  0.00    +0.000 A 
ATOM      9  N   UNL     1      -0.134  13.798  22.610  0.00  0.00    +0.000 NA
ATOM     10  C   UNL     1      -0.273  15.130  22.949  0.00  0.00    +0.000 A 
ATOM     11  C   UNL     1       0.706  16.129  22.783  0.00  0.00    +0.000 A 
ATOM     12  C   UNL     1       0.435  17.441  23.182  0.00  0.00    +0.000 A 
ATOM     13  C   UNL     1      -0.797  17.765  23.740  0.00  0.00    +0.000 A 
ATOM     14  C   UNL     1      -1.786  16.791  23.918  0.00  0.00    +0.000 A 
ATOM     15  C   UNL     1      -1.500  15.476  23.515  0.00  0.00    +0.000 A 
ATOM     16  S   UNL     1      -2.483  14.066  23.608  0.00  0.00    +0.000 S 
ATOM     17  H   UNL     1      -2.213  11.337  23.070  0.00  0.00    +0.000 HD
ENDBRANCH   4   7
BRANCH   1  18
ATOM     18  N   UNL     1       2.036   7.785  20.528  0.00  0.00    +0.000 NA
ATOM     19  H   UNL     1       2.289   8.149  19.608  0.00  0.00    +0.000 HD
BRANCH  18  20
ATOM     20  C   UNL     1       1.803   6.333  20.426  0.00  0.00    +0.000 C 
BRANCH  20  26
ATOM     21  C   UNL     1       1.075   3.574  19.712  0.00  0.00    +0.000 C 
ATOM     22  C   UNL     1       0.830   2.357  18.814  0.00  0.00    +0.000 C 
ATOM     23  C   UNL     1       2.169   2.175  18.108  0.00  0.00    +0.000 C 
ATOM     24  C   UNL     1       2.609   3.611  17.848  0.00  0.00    +0.000 C 
ATOM     25  N   UNL     1       2.085   4.353  18.981  0.00  0.00    +0.000 N 
ATOM     26  C   UNL     1       2.433   5.683  19.187  0.00  0.00    +0.000 C 
ATOM     27  O   UNL     1       3.184   6.280  18.417  0.00  0.00    +0.000 OA
BRANCH  21  29
ATOM     28  N   UNL     1       1.859   2.793  22.104  0.00  0.00    +0.000 NA
ATOM     29  C   UNL     1       1.530   3.143  21.053  0.00  0.00    +0.000 C 
ENDBRANCH  21  29
ENDBRANCH  20  26
ENDBRANCH  18  20
ENDBRANCH   1  18
TORSDOF 5
ENDMDL
MODEL 7
REMARK VINA RESULT:      -7.4      3.350      5.871
REMARK  Name = 
REMARK  5 active torsions:
REMARK  status: ('A' for Active; 'I' for Inactive)
REMARK    1  A    between atoms: C_2  and  C_3
REMARK    2  A    between atoms: C_8  and  C_10
REMARK    3  A    between atoms: C_10  and  N_11
REMARK    4  A    between atoms: N_11  and  C_12
REMARK    5  A    between atoms: C_15  and  N_16
REMARK                            x       y       z     vdW  Elec       q    Type
REMARK                         _______ _______ _______ _____ _____    ______ ____
ROOT
ATOM      1  C   UNL     1       0.589   8.699  21.350  0.00  0.00    +0.000 C 
ATOM      2  C   UNL     1       0.352   9.394  22.705  0.00  0.00    +0.000 C 
ATOM      3  C   UNL     1      -0.896  10.272  22.705  0.00  0.00    +0.000 C 
ATOM      4  C   UNL     1      -0.834  11.307  21.580  0.00  0.00    +0.000 C 
ATOM      5  C   UNL     1      -0.718  10.589  20.231  0.00  0.00    +0.000 C 
ATOM      6  C   UNL     1       0.537   9.711  20.186  0.00  0.00    +0.000 C 
ENDROOT
BRANCH   4   7
ATOM      7  N   UNL     1      -2.018  12.146  21.581  0.00  0.00    +0.000 N 
ATOM      8  C   UNL     1      -2.110  13.207  22.411  0.00  0.00    +0.000 A 
ATOM      9  N   UNL     1      -1.172  13.585  23.245  0.00  0.00    +0.000 NA
ATOM     10  C   UNL     1      -1.594  14.667  23.992  0.00  0.00    +0.000 A 
ATOM     11  C   UNL     1      -0.857  15.301  25.013  0.00  0.00    +0.000 A 
ATOM     12  C   UNL     1      -1.412  16.385  25.700  0.00  0.00    +0.000 A 
ATOM     13  C   UNL     1      -2.686  16.842  25.379  0.00  0.00    +0.000 A 
ATOM     14  C   UNL     1      -3.438  16.229  24.372  0.00  0.00    +0.000 A 
ATOM     15  C   UNL     1      -2.872  15.139  23.691  0.00  0.00    +0.000 A 
ATOM     16  S   UNL     1      -3.533  14.174  22.429  0.00  0.00    +0.000 S 
ATOM     17  H   UNL     1      -2.794  11.902  20.979  0.00  0.00    +0.000 HD
ENDBRANCH   4   7
BRANCH   1  18
ATOM     18  N   UNL     1       1.868   7.965  21.345  0.00  0.00    +0.000 NA
ATOM     19  H   UNL     1       2.532   8.377  20.688  0.00  0.00    +0.000 HD
BRANCH  18  20
ATOM     20  C   UNL     1       1.676   6.542  21.011  0.00  0.00    +0.000 C 
BRANCH  20  26
ATOM     21  C   UNL     1       1.065   3.876  19.927  0.00  0.00    +0.000 C 
ATOM     22  C   UNL     1       0.817   2.796  18.870  0.00  0.00    +0.000 C 
ATOM     23  C   UNL     1       2.095   2.830  18.038  0.00  0.00    +0.000 C 
ATOM     24  C   UNL     1       2.417   4.318  17.976  0.00  0.00    +0.000 C 
ATOM     25  N   UNL     1       1.952   4.834  19.251  0.00  0.00    +0.000 N 
ATOM     26  C   UNL     1       2.231   6.140  19.638  0.00  0.00    +0.000 C 
ATOM     27  O   UNL     1       2.869   6.905  18.915  0.00  0.00    +0.000 OA
BRANCH  21  29
ATOM     28  N   UNL     1       2.123   2.837  22.106  0.00  0.00    +0.000 NA
ATOM     29  C   UNL     1       1.668   3.282  21.142  0.00  0.00    +0.000 C 
ENDBRANCH  21  29
ENDBRANCH  20  26
ENDBRANCH  18  20
ENDBRANCH   1  18
TORSDOF 5
ENDMDL
MODEL 8
REMARK VINA RESULT:      -7.4      3.270      4.103
REMARK  Name = 
REMARK  5 active torsions:
REMARK  status: ('A' for Active; 'I' for Inactive)
REMARK    1  A    between atoms: C_2  and  C_3
REMARK    2  A    between atoms: C_8  and  C_10
REMARK    3  A    between atoms: C_10  and  N_11
REMARK    4  A    between atoms: N_11  and  C_12
REMARK    5  A    between atoms: C_15  and  N_16
REMARK                            x       y       z     vdW  Elec       q    Type
REMARK                         _______ _______ _______ _____ _____    ______ ____
ROOT
ATOM      1  C   UNL     1       1.840   7.189  19.642  0.00  0.00    +0.000 C 
ATOM      2  C   UNL     1       1.515   7.987  20.920  0.00  0.00    +0.000 C 
ATOM      3  C   UNL     1       0.577   9.162  20.656  0.00  0.00    +0.000 C 
ATOM      4  C   UNL     1       1.152  10.086  19.581  0.00  0.00    +0.000 C 
ATOM      5  C   UNL     1       1.355   9.299  18.284  0.00  0.00    +0.000 C 
ATOM      6  C   UNL     1       2.309   8.120  18.505  0.00  0.00    +0.000 C 
ENDROOT
BRANCH   4   7
ATOM      7  N   UNL     1       0.263  11.207  19.333  0.00  0.00    +0.000 N 
ATOM      8  C   UNL     1       0.756  12.449  19.140  0.00  0.00    +0.000 A 
ATOM      9  N   UNL     1       2.032  12.752  19.135  0.00  0.00    +0.000 NA
ATOM     10  C   UNL     1       2.207  14.112  18.970  0.00  0.00    +0.000 A 
ATOM     11  C   UNL     1       3.444  14.788  18.962  0.00  0.00    +0.000 A 
ATOM     12  C   UNL     1       3.476  16.176  18.797  0.00  0.00    +0.000 A 
ATOM     13  C   UNL     1       2.294  16.892  18.638  0.00  0.00    +0.000 A 
ATOM     14  C   UNL     1       1.054  16.245  18.645  0.00  0.00    +0.000 A 
ATOM     15  C   UNL     1       1.034  14.851  18.815  0.00  0.00    +0.000 A 
ATOM     16  S   UNL     1      -0.308  13.775  18.881  0.00  0.00    +0.000 S 
ATOM     17  H   UNL     1      -0.737  11.053  19.345  0.00  0.00    +0.000 HD
ENDBRANCH   4   7
BRANCH   1  18
ATOM     18  N   UNL     1       2.846   6.145  19.909  0.00  0.00    +0.000 NA
ATOM     19  H   UNL     1       3.179   6.184  20.873  0.00  0.00    +0.000 HD
BRANCH  18  20
ATOM     20  C   UNL     1       3.998   6.253  18.995  0.00  0.00    +0.000 C 
BRANCH  20  26
ATOM     21  C   UNL     1       6.560   5.408  17.820  0.00  0.00    +0.000 C 
ATOM     22  C   UNL     1       7.568   4.489  17.124  0.00  0.00    +0.000 C 
ATOM     23  C   UNL     1       6.864   4.131  15.820  0.00  0.00    +0.000 C 
ATOM     24  C   UNL     1       5.411   3.973  16.254  0.00  0.00    +0.000 C 
ATOM     25  N   UNL     1       5.256   4.938  17.329  0.00  0.00    +0.000 N 
ATOM     26  C   UNL     1       4.005   5.211  17.869  0.00  0.00    +0.000 C 
ATOM     27  O   UNL     1       2.990   4.641  17.468  0.00  0.00    +0.000 OA
BRANCH  21  29
ATOM     28  N   UNL     1       7.058   7.920  17.195  0.00  0.00    +0.000 NA
ATOM     29  C   UNL     1       6.833   6.825  17.484  0.00  0.00    +0.000 C 
ENDBRANCH  21  29
ENDBRANCH  20  26
ENDBRANCH  18  20
ENDBRANCH   1  18
TORSDOF 5
ENDMDL
MODEL 9
REMARK VINA RESULT:      -7.3      3.317      5.084
REMARK  Name = 
REMARK  5 active torsions:
REMARK  status: ('A' for Active; 'I' for Inactive)
REMARK    1  A    between atoms: C_2  and  C_3
REMARK    2  A    between atoms: C_8  and  C_10
REMARK    3  A    between atoms: C_10  and  N_11
REMARK    4  A    between atoms: N_11  and  C_12
REMARK    5  A    between atoms: C_15  and  N_16
REMARK                            x       y       z     vdW  Elec       q    Type
REMARK                         _______ _______ _______ _____ _____    ______ ____
ROOT
ATOM      1  C   UNL     1       1.563   7.769  20.183  0.00  0.00    +0.000 C 
ATOM      2  C   UNL     1       1.479   8.589  21.484  0.00  0.00    +0.000 C 
ATOM      3  C   UNL     1       0.525   9.775  21.371  0.00  0.00    +0.000 C 
ATOM      4  C   UNL     1       0.911  10.676  20.197  0.00  0.00    +0.000 C 
ATOM      5  C   UNL     1       0.872   9.867  18.897  0.00  0.00    +0.000 C 
ATOM      6  C   UNL     1       1.836   8.677  18.965  0.00  0.00    +0.000 C 
ENDROOT
BRANCH   4   7
ATOM      7  N   UNL     1       0.007  11.806  20.091  0.00  0.00    +0.000 N 
ATOM      8  C   UNL     1       0.430  12.983  19.583  0.00  0.00    +0.000 A 
ATOM      9  N   UNL     1       1.640  13.208  19.132  0.00  0.00    +0.000 NA
ATOM     10  C   UNL     1       1.774  14.524  18.734  0.00  0.00    +0.000 A 
ATOM     11  C   UNL     1       2.952  15.120  18.241  0.00  0.00    +0.000 A 
ATOM     12  C   UNL     1       2.950  16.472  17.885  0.00  0.00    +0.000 A 
ATOM     13  C   UNL     1       1.790  17.230  18.011  0.00  0.00    +0.000 A 
ATOM     14  C   UNL     1       0.609  16.663  18.500  0.00  0.00    +0.000 A 
ATOM     15  C   UNL     1       0.624  15.304  18.858  0.00  0.00    +0.000 A 
ATOM     16  S   UNL     1      -0.641  14.326  19.494  0.00  0.00    +0.000 S 
ATOM     17  H   UNL     1      -0.938  11.714  20.441  0.00  0.00    +0.000 HD
ENDBRANCH   4   7
BRANCH   1  18
ATOM     18  N   UNL     1       2.588   6.714  20.284  0.00  0.00    +0.000 NA
ATOM     19  H   UNL     1       3.314   6.961  20.958  0.00  0.00    +0.000 HD
BRANCH  18  20
ATOM     20  C   UNL     1       3.214   6.436  18.979  0.00  0.00    +0.000 C 
BRANCH  20  26
ATOM     21  C   UNL     1       2.331   3.714  18.293  0.00  0.00    +0.000 C 
ATOM     22  C   UNL     1       2.435   2.275  17.778  0.00  0.00    +0.000 C 
ATOM     23  C   UNL     1       3.558   1.687  18.626  0.00  0.00    +0.000 C 
ATOM     24  C   UNL     1       4.541   2.846  18.734  0.00  0.00    +0.000 C 
ATOM     25  N   UNL     1       3.696   4.027  18.741  0.00  0.00    +0.000 N 
ATOM     26  C   UNL     1       4.228   5.284  19.003  0.00  0.00    +0.000 C 
ATOM     27  O   UNL     1       5.428   5.444  19.226  0.00  0.00    +0.000 OA
BRANCH  21  29
ATOM     28  N   UNL     1       0.564   3.887  20.241  0.00  0.00    +0.000 NA
ATOM     29  C   UNL     1       1.327   3.803  19.378  0.00  0.00    +0.000 C 
ENDBRANCH  21  29
ENDBRANCH  20  26
ENDBRANCH  18  20
ENDBRANCH   1  18
TORSDOF 5
ENDMDL
