MODEL 1
REMARK VINA RESULT:      -7.6      0.000      0.000
REMARK  Name = 
REMARK  8 active torsions:
REMARK  status: ('A' for Active; 'I' for Inactive)
REMARK    1  A    between atoms: C_2  and  O_3
REMARK    2  A    between atoms: C_2  and  C_4
REMARK    3  A    between atoms: C_4  and  C_5
REMARK    4  A    between atoms: C_5  and  C_6
REMARK    5  A    between atoms: C_6  and  S_7
REMARK    6  A    between atoms: S_7  and  C_8
REMARK    7  A    between atoms: C_11  and  C_12
REMARK    8  A    between atoms: C_15  and  C_16
REMARK                            x       y       z     vdW  Elec       q    Type
REMARK                         _______ _______ _______ _____ _____    ______ ____
ROOT
ATOM      1  C   UNL     1       4.700   5.246  16.706  0.00  0.00    +0.000 A 
ATOM      2  N   UNL     1       3.928   4.204  16.942  0.00  0.00    +0.000 NA
ATOM      3  N   UNL     1       2.925   4.639  17.788  0.00  0.00    +0.000 NA
ATOM      4  C   UNL     1       3.138   5.926  17.984  0.00  0.00    +0.000 A 
ATOM      5  O   UNL     1       4.268   6.369  17.355  0.00  0.00    +0.000 OA
ENDROOT
BRANCH   4   6
ATOM      6  C   UNL     1       2.451   6.871  18.854  0.00  0.00    +0.000 A 
ATOM      7  C   UNL     1       2.201   8.162  18.365  0.00  0.00    +0.000 A 
ATOM      8  C   UNL     1       1.489   9.100  19.125  0.00  0.00    +0.000 A 
ATOM      9  C   UNL     1       0.991   8.789  20.401  0.00  0.00    +0.000 A 
ATOM     10  C   UNL     1       1.279   7.507  20.898  0.00  0.00    +0.000 A 
ATOM     11  C   UNL     1       2.006   6.565  20.147  0.00  0.00    +0.000 A 
ATOM     12 CL   UNL     1       2.342   5.055  20.926  0.00  0.00    +0.000 Cl
BRANCH   9  13
ATOM     13  C   UNL     1       0.188   9.764  21.180  0.00  0.00    +0.000 A 
ATOM     14  C   UNL     1      -0.265  10.964  20.601  0.00  0.00    +0.000 A 
ATOM     15  C   UNL     1      -1.025  11.888  21.326  0.00  0.00    +0.000 A 
ATOM     16  C   UNL     1      -1.364  11.626  22.649  0.00  0.00    +0.000 A 
ATOM     17  C   UNL     1      -0.939  10.444  23.247  0.00  0.00    +0.000 A 
ATOM     18  C   UNL     1      -0.166   9.528  22.520  0.00  0.00    +0.000 A 
ENDBRANCH   9  13
ENDBRANCH   4   6
BRANCH   1  19
ATOM     19  S   UNL     1       6.148   5.238  15.750  0.00  0.00    +0.000 S 
BRANCH  19  20
ATOM     20  C   UNL     1       5.601   4.302  14.295  0.00  0.00    +0.000 C 
BRANCH  20  21
ATOM     21  C   UNL     1       6.829   3.869  13.490  0.00  0.00    +0.000 C 
BRANCH  21  22
ATOM     22  C   UNL     1       6.540   3.747  11.993  0.00  0.00    +0.000 C 
BRANCH  22  24
ATOM     23  O   UNL     1       4.304   2.998  11.438  0.00  0.00    +0.000 OA
ATOM     24  C   UNL     1       5.468   2.728  11.688  0.00  0.00    +0.000 C 
BRANCH  24  25
ATOM     25  O   UNL     1       5.931   1.460  11.688  0.00  0.00    +0.000 OA
ATOM     26  H   UNL     1       6.673   1.301  11.074  0.00  0.00    +0.000 HD
ENDBRANCH  24  25
ENDBRANCH  22  24
ENDBRANCH  21  22
ENDBRANCH  20  21
ENDBRANCH  19  20
ENDBRANCH   1  19
TORSDOF 8
ENDMDL
MODEL 2
REMARK VINA RESULT:      -7.5      2.628      3.632
REMARK  Name = 
REMARK  8 active torsions:
REMARK  status: ('A' for Active; 'I' for Inactive)
REMARK    1  A    between atoms: C_2  and  O_3
REMARK    2  A    between atoms: C_2  and  C_4
REMARK    3  A    between atoms: C_4  and  C_5
REMARK    4  A    between atoms: C_5  and  C_6
REMARK    5  A    between atoms: C_6  and  S_7
REMARK    6  A    between atoms: S_7  and  C_8
REMARK    7  A    between atoms: C_11  and  C_12
REMARK    8  A    between atoms: C_15  and  C_16
REMARK                            x       y       z     vdW  Elec       q    Type
REMARK                         _______ _______ _______ _____ _____    ______ ____
ROOT
ATOM      1  C   UNL     1       4.593   4.385  16.914  0.00  0.00    +0.000 A 
ATOM      2  N   UNL     1       4.209   3.343  17.624  0.00  0.00    +0.000 NA
ATOM      3  N   UNL     1       3.362   3.824  18.605  0.00  0.00    +0.000 NA
ATOM      4  C   UNL     1       3.263   5.125  18.405  0.00  0.00    +0.000 A 
ATOM      5  O   UNL     1       4.046   5.552  17.369  0.00  0.00    +0.000 OA
ENDROOT
BRANCH   4   6
ATOM      6  C   UNL     1       2.581   6.147  19.185  0.00  0.00    +0.000 A 
ATOM      7  C   UNL     1       2.501   7.443  18.654  0.00  0.00    +0.000 A 
ATOM      8  C   UNL     1       1.803   8.459  19.322  0.00  0.00    +0.000 A 
ATOM      9  C   UNL     1       1.152   8.224  20.544  0.00  0.00    +0.000 A 
ATOM     10  C   UNL     1       1.270   6.933  21.087  0.00  0.00    +0.000 A 
ATOM     11  C   UNL     1       1.980   5.913  20.429  0.00  0.00    +0.000 A 
ATOM     12 CL   UNL     1       2.097   4.398  21.261  0.00  0.00    +0.000 Cl
BRANCH   9  13
ATOM     13  C   UNL     1       0.366   9.285  21.222  0.00  0.00    +0.000 A 
ATOM     14  C   UNL     1      -0.187  10.358  20.499  0.00  0.00    +0.000 A 
ATOM     15  C   UNL     1      -0.932  11.361  21.128  0.00  0.00    +0.000 A 
ATOM     16  C   UNL     1      -1.154  11.308  22.500  0.00  0.00    +0.000 A 
ATOM     17  C   UNL     1      -0.628  10.255  23.241  0.00  0.00    +0.000 A 
ATOM     18  C   UNL     1       0.129   9.259  22.608  0.00  0.00    +0.000 A 
ENDBRANCH   9  13
ENDBRANCH   4   6
BRANCH   1  19
ATOM     19  S   UNL     1       5.714   4.351  15.591  0.00  0.00    +0.000 S 
BRANCH  19  20
ATOM     20  C   UNL     1       7.298   4.416  16.473  0.00  0.00    +0.000 C 
BRANCH  20  21
ATOM     21  C   UNL     1       7.238   5.527  17.525  0.00  0.00    +0.000 C 
BRANCH  21  22
ATOM     22  C   UNL     1       7.381   6.924  16.918  0.00  0.00    +0.000 C 
BRANCH  22  24
ATOM     23  O   UNL     1       7.737   9.145  17.818  0.00  0.00    +0.000 OA
ATOM     24  C   UNL     1       7.902   7.938  17.907  0.00  0.00    +0.000 C 
BRANCH  24  25
ATOM     25  O   UNL     1       8.560   7.375  18.944  0.00  0.00    +0.000 OA
ATOM     26  H   UNL     1       9.528   7.490  18.918  0.00  0.00    +0.000 HD
ENDBRANCH  24  25
ENDBRANCH  22  24
ENDBRANCH  21  22
ENDBRANCH  20  21
ENDBRANCH  19  20
ENDBRANCH   1  19
TORSDOF 8
ENDMDL
MODEL 3
REMARK VINA RESULT:      -7.4      0.788      1.343
REMARK  Name = 
REMARK  8 active torsions:
REMARK  status: ('A' for Active; 'I' for Inactive)
REMARK    1  A    between atoms: C_2  and  O_3
REMARK    2  A    between atoms: C_2  and  C_4
REMARK    3  A    between atoms: C_4  and  C_5
REMARK    4  A    between atoms: C_5  and  C_6
REMARK    5  A    between atoms: C_6  and  S_7
REMARK    6  A    between atoms: S_7  and  C_8
REMARK    7  A    between atoms: C_11  and  C_12
REMARK    8  A    between atoms: C_15  and  C_16
REMARK                            x       y       z     vdW  Elec       q    Type
REMARK                         _______ _______ _______ _____ _____    ______ ____
ROOT
ATOM      1  C   UNL     1       4.867   4.584  16.953  0.00  0.00    +0.000 A 
ATOM      2  N   UNL     1       4.176   3.536  17.354  0.00  0.00    +0.000 NA
ATOM      3  N   UNL     1       3.196   4.012  18.206  0.00  0.00    +0.000 NA
ATOM      4  C   UNL     1       3.338   5.323  18.238  0.00  0.00    +0.000 A 
ATOM      5  O   UNL     1       4.402   5.750  17.493  0.00  0.00    +0.000 OA
ENDROOT
BRANCH   4   6
ATOM      6  C   UNL     1       2.643   6.324  19.034  0.00  0.00    +0.000 A 
ATOM      7  C   UNL     1       2.495   7.612  18.497  0.00  0.00    +0.000 A 
ATOM      8  C   UNL     1       1.781   8.606  19.182  0.00  0.00    +0.000 A 
ATOM      9  C   UNL     1       1.181   8.356  20.427  0.00  0.00    +0.000 A 
ATOM     10  C   UNL     1       1.366   7.075  20.974  0.00  0.00    +0.000 A 
ATOM     11  C   UNL     1       2.093   6.077  20.299  0.00  0.00    +0.000 A 
ATOM     12 CL   UNL     1       2.296   4.574  21.136  0.00  0.00    +0.000 Cl
BRANCH   9  13
ATOM     13  C   UNL     1       0.377   9.391  21.124  0.00  0.00    +0.000 A 
ATOM     14  C   UNL     1       0.042   9.260  22.485  0.00  0.00    +0.000 A 
ATOM     15  C   UNL     1      -0.712  10.231  23.151  0.00  0.00    +0.000 A 
ATOM     16  C   UNL     1      -1.139  11.368  22.474  0.00  0.00    +0.000 A 
ATOM     17  C   UNL     1      -0.816  11.531  21.131  0.00  0.00    +0.000 A 
ATOM     18  C   UNL     1      -0.072  10.548  20.464  0.00  0.00    +0.000 A 
ENDBRANCH   9  13
ENDBRANCH   4   6
BRANCH   1  19
ATOM     19  S   UNL     1       6.258   4.543  15.916  0.00  0.00    +0.000 S 
BRANCH  19  20
ATOM     20  C   UNL     1       5.475   4.361  14.289  0.00  0.00    +0.000 C 
BRANCH  20  21
ATOM     21  C   UNL     1       6.461   3.682  13.335  0.00  0.00    +0.000 C 
BRANCH  21  22
ATOM     22  C   UNL     1       5.784   3.136  12.077  0.00  0.00    +0.000 C 
BRANCH  22  24
ATOM     23  O   UNL     1       7.664   2.071  10.982  0.00  0.00    +0.000 OA
ATOM     24  C   UNL     1       6.543   1.987  11.458  0.00  0.00    +0.000 C 
BRANCH  24  25
ATOM     25  O   UNL     1       5.865   0.820  11.506  0.00  0.00    +0.000 OA
ATOM     26  H   UNL     1       4.935   0.882  11.215  0.00  0.00    +0.000 HD
ENDBRANCH  24  25
ENDBRANCH  22  24
ENDBRANCH  21  22
ENDBRANCH  20  21
ENDBRANCH  19  20
ENDBRANCH   1  19
TORSDOF 8
ENDMDL
MODEL 4
REMARK VINA RESULT:      -7.4      2.599      3.817
REMARK  Name = 
REMARK  8 active torsions:
REMARK  status: ('A' for Active; 'I' for Inactive)
REMARK    1  A    between atoms: C_2  and  O_3
REMARK    2  A    between atoms: C_2  and  C_4
REMARK    3  A    between atoms: C_4  and  C_5
REMARK    4  A    between atoms: C_5  and  C_6
REMARK    5  A    between atoms: C_6  and  S_7
REMARK    6  A    between atoms: S_7  and  C_8
REMARK    7  A    between atoms: C_11  and  C_12
REMARK    8  A    between atoms: C_15  and  C_16
REMARK                            x       y       z     vdW  Elec       q    Type
REMARK                         _______ _______ _______ _____ _____    ______ ____
ROOT
ATOM      1  C   UNL     1       4.390   4.821  16.545  0.00  0.00    +0.000 A 
ATOM      2  N   UNL     1       3.632   3.813  16.926  0.00  0.00    +0.000 NA
ATOM      3  N   UNL     1       2.731   4.320  17.843  0.00  0.00    +0.000 NA
ATOM      4  C   UNL     1       2.982   5.612  17.934  0.00  0.00    +0.000 A 
ATOM      5  O   UNL     1       4.046   5.991  17.163  0.00  0.00    +0.000 OA
ENDROOT
BRANCH   4   6
ATOM      6  C   UNL     1       2.406   6.623  18.810  0.00  0.00    +0.000 A 
ATOM      7  C   UNL     1       2.188   7.906  18.287  0.00  0.00    +0.000 A 
ATOM      8  C   UNL     1       1.577   8.908  19.055  0.00  0.00    +0.000 A 
ATOM      9  C   UNL     1       1.155   8.671  20.372  0.00  0.00    +0.000 A 
ATOM     10  C   UNL     1       1.412   7.394  20.900  0.00  0.00    +0.000 A 
ATOM     11  C   UNL     1       2.036   6.388  20.141  0.00  0.00    +0.000 A 
ATOM     12 CL   UNL     1       2.349   4.892  20.955  0.00  0.00    +0.000 Cl
BRANCH   9  13
ATOM     13  C   UNL     1       0.457   9.715  21.164  0.00  0.00    +0.000 A 
ATOM     14  C   UNL     1      -0.251   9.389  22.337  0.00  0.00    +0.000 A 
ATOM     15  C   UNL     1      -0.909  10.366  23.091  0.00  0.00    +0.000 A 
ATOM     16  C   UNL     1      -0.862  11.699  22.698  0.00  0.00    +0.000 A 
ATOM     17  C   UNL     1      -0.163  12.053  21.549  0.00  0.00    +0.000 A 
ATOM     18  C   UNL     1       0.483  11.070  20.789  0.00  0.00    +0.000 A 
ENDBRANCH   9  13
ENDBRANCH   4   6
BRANCH   1  19
ATOM     19  S   UNL     1       5.729   4.724  15.446  0.00  0.00    +0.000 S 
BRANCH  19  20
ATOM     20  C   UNL     1       7.131   4.842  16.591  0.00  0.00    +0.000 C 
BRANCH  20  21
ATOM     21  C   UNL     1       6.706   4.301  17.958  0.00  0.00    +0.000 C 
BRANCH  21  22
ATOM     22  C   UNL     1       6.609   5.395  19.022  0.00  0.00    +0.000 C 
BRANCH  22  24
ATOM     23  O   UNL     1       8.359   7.058  18.824  0.00  0.00    +0.000 OA
ATOM     24  C   UNL     1       7.945   6.027  19.331  0.00  0.00    +0.000 C 
BRANCH  24  25
ATOM     25  O   UNL     1       8.647   5.349  20.264  0.00  0.00    +0.000 OA
ATOM     26  H   UNL     1       9.389   5.848  20.653  0.00  0.00    +0.000 HD
ENDBRANCH  24  25
ENDBRANCH  22  24
ENDBRANCH  21  22
ENDBRANCH  20  21
ENDBRANCH  19  20
ENDBRANCH   1  19
TORSDOF 8
ENDMDL
MODEL 5
REMARK VINA RESULT:      -7.3      0.955      1.198
REMARK  Name = 
REMARK  8 active torsions:
REMARK  status: ('A' for Active; 'I' for Inactive)
REMARK    1  A    between atoms: C_2  and  O_3
REMARK    2  A    between atoms: C_2  and  C_4
REMARK    3  A    between atoms: C_4  and  C_5
REMARK    4  A    between atoms: C_5  and  C_6
REMARK    5  A    between atoms: C_6  and  S_7
REMARK    6  A    between atoms: S_7  and  C_8
REMARK    7  A    between atoms: C_11  and  C_12
REMARK    8  A    between atoms: C_15  and  C_16
REMARK                            x       y       z     vdW  Elec       q    Type
REMARK                         _______ _______ _______ _____ _____    ______ ____
ROOT
ATOM      1  C   UNL     1       5.429   4.570  16.852  0.00  0.00    +0.000 A 
ATOM      2  N   UNL     1       4.529   3.612  16.949  0.00  0.00    +0.000 NA
ATOM      3  N   UNL     1       3.426   4.169  17.572  0.00  0.00    +0.000 NA
ATOM      4  C   UNL     1       3.720   5.437  17.782  0.00  0.00    +0.000 A 
ATOM      5  O   UNL     1       4.989   5.751  17.381  0.00  0.00    +0.000 OA
ENDROOT
BRANCH   4   6
ATOM      6  C   UNL     1       2.972   6.472  18.480  0.00  0.00    +0.000 A 
ATOM      7  C   UNL     1       2.805   7.712  17.846  0.00  0.00    +0.000 A 
ATOM      8  C   UNL     1       2.042   8.731  18.434  0.00  0.00    +0.000 A 
ATOM      9  C   UNL     1       1.408   8.554  19.674  0.00  0.00    +0.000 A 
ATOM     10  C   UNL     1       1.612   7.322  20.320  0.00  0.00    +0.000 A 
ATOM     11  C   UNL     1       2.388   6.301  19.743  0.00  0.00    +0.000 A 
ATOM     12 CL   UNL     1       2.606   4.870  20.694  0.00  0.00    +0.000 Cl
BRANCH   9  13
ATOM     13  C   UNL     1       0.553   9.612  20.269  0.00  0.00    +0.000 A 
ATOM     14  C   UNL     1      -0.338  10.360  19.476  0.00  0.00    +0.000 A 
ATOM     15  C   UNL     1      -1.149  11.358  20.027  0.00  0.00    +0.000 A 
ATOM     16  C   UNL     1      -1.100  11.621  21.392  0.00  0.00    +0.000 A 
ATOM     17  C   UNL     1      -0.236  10.892  22.202  0.00  0.00    +0.000 A 
ATOM     18  C   UNL     1       0.585   9.904  21.644  0.00  0.00    +0.000 A 
ENDBRANCH   9  13
ENDBRANCH   4   6
BRANCH   1  19
ATOM     19  S   UNL     1       7.028   4.394  16.203  0.00  0.00    +0.000 S 
BRANCH  19  20
ATOM     20  C   UNL     1       6.779   4.968  14.499  0.00  0.00    +0.000 C 
BRANCH  20  21
ATOM     21  C   UNL     1       6.161   3.835  13.676  0.00  0.00    +0.000 C 
BRANCH  21  22
ATOM     22  C   UNL     1       6.620   3.847  12.217  0.00  0.00    +0.000 C 
BRANCH  22  24
ATOM     23  O   UNL     1       7.679   1.964  11.121  0.00  0.00    +0.000 OA
ATOM     24  C   UNL     1       6.681   2.464  11.614  0.00  0.00    +0.000 C 
BRANCH  24  25
ATOM     25  O   UNL     1       5.507   1.801  11.697  0.00  0.00    +0.000 OA
ATOM     26  H   UNL     1       4.870   2.185  12.329  0.00  0.00    +0.000 HD
ENDBRANCH  24  25
ENDBRANCH  22  24
ENDBRANCH  21  22
ENDBRANCH  20  21
ENDBRANCH  19  20
ENDBRANCH   1  19
TORSDOF 8
ENDMDL
MODEL 6
REMARK VINA RESULT:      -7.3      2.627      3.726
REMARK  Name = 
REMARK  8 active torsions:
REMARK  status: ('A' for Active; 'I' for Inactive)
REMARK    1  A    between atoms: C_2  and  O_3
REMARK    2  A    between atoms: C_2  and  C_4
REMARK    3  A    between atoms: C_4  and  C_5
REMARK    4  A    between atoms: C_5  and  C_6
REMARK    5  A    between atoms: C_6  and  S_7
REMARK    6  A    between atoms: S_7  and  C_8
REMARK    7  A    between atoms: C_11  and  C_12
REMARK    8  A    between atoms: C_15  and  C_16
REMARK                            x       y       z     vdW  Elec       q    Type
REMARK                         _______ _______ _______ _____ _____    ______ ____
ROOT
ATOM      1  C   UNL     1       4.626   4.590  16.732  0.00  0.00    +0.000 A 
ATOM      2  N   UNL     1       3.678   3.683  16.856  0.00  0.00    +0.000 NA
ATOM      3  N   UNL     1       2.696   4.244  17.652  0.00  0.00    +0.000 NA
ATOM      4  C   UNL     1       3.100   5.468  17.931  0.00  0.00    +0.000 A 
ATOM      5  O   UNL     1       4.333   5.742  17.408  0.00  0.00    +0.000 OA
ENDROOT
BRANCH   4   6
ATOM      6  C   UNL     1       2.512   6.477  18.800  0.00  0.00    +0.000 A 
ATOM      7  C   UNL     1       2.317   7.766  18.282  0.00  0.00    +0.000 A 
ATOM      8  C   UNL     1       1.696   8.768  19.042  0.00  0.00    +0.000 A 
ATOM      9  C   UNL     1       1.240   8.525  20.347  0.00  0.00    +0.000 A 
ATOM     10  C   UNL     1       1.473   7.242  20.872  0.00  0.00    +0.000 A 
ATOM     11  C   UNL     1       2.107   6.236  20.120  0.00  0.00    +0.000 A 
ATOM     12 CL   UNL     1       2.388   4.732  20.931  0.00  0.00    +0.000 Cl
BRANCH   9  13
ATOM     13  C   UNL     1       0.532   9.569  21.130  0.00  0.00    +0.000 A 
ATOM     14  C   UNL     1       0.446  10.895  20.667  0.00  0.00    +0.000 A 
ATOM     15  C   UNL     1      -0.221  11.885  21.395  0.00  0.00    +0.000 A 
ATOM     16  C   UNL     1      -0.833  11.568  22.603  0.00  0.00    +0.000 A 
ATOM     17  C   UNL     1      -0.774  10.264  23.083  0.00  0.00    +0.000 A 
ATOM     18  C   UNL     1      -0.093   9.279  22.356  0.00  0.00    +0.000 A 
ENDBRANCH   9  13
ENDBRANCH   4   6
BRANCH   1  19
ATOM     19  S   UNL     1       6.123   4.380  15.882  0.00  0.00    +0.000 S 
BRANCH  19  20
ATOM     20  C   UNL     1       6.904   5.996  16.145  0.00  0.00    +0.000 C 
BRANCH  20  21
ATOM     21  C   UNL     1       6.625   6.457  17.578  0.00  0.00    +0.000 C 
BRANCH  21  22
ATOM     22  C   UNL     1       7.819   6.243  18.510  0.00  0.00    +0.000 C 
BRANCH  22  24
ATOM     23  O   UNL     1       8.237   5.178  20.646  0.00  0.00    +0.000 OA
ATOM     24  C   UNL     1       7.458   5.455  19.747  0.00  0.00    +0.000 C 
BRANCH  24  25
ATOM     25  O   UNL     1       6.157   5.098  19.783  0.00  0.00    +0.000 OA
ATOM     26  H   UNL     1       5.998   4.139  19.692  0.00  0.00    +0.000 HD
ENDBRANCH  24  25
ENDBRANCH  22  24
ENDBRANCH  21  22
ENDBRANCH  20  21
ENDBRANCH  19  20
ENDBRANCH   1  19
TORSDOF 8
ENDMDL
MODEL 7
REMARK VINA RESULT:      -7.2      5.969     10.166
REMARK  Name = 
REMARK  8 active torsions:
REMARK  status: ('A' for Active; 'I' for Inactive)
REMARK    1  A    between atoms: C_2  and  O_3
REMARK    2  A    between atoms: C_2  and  C_4
REMARK    3  A    between atoms: C_4  and  C_5
REMARK    4  A    between atoms: C_5  and  C_6
REMARK    5  A    between atoms: C_6  and  S_7
REMARK    6  A    between atoms: S_7  and  C_8
REMARK    7  A    between atoms: C_11  and  C_12
REMARK    8  A    between atoms: C_15  and  C_16
REMARK                            x       y       z     vdW  Elec       q    Type
REMARK                         _______ _______ _______ _____ _____    ______ ____
ROOT
ATOM      1  C   UNL     1      -1.327  12.229  20.898  0.00  0.00    +0.000 A 
ATOM      2  N   UNL     1      -0.247  12.825  21.363  0.00  0.00    +0.000 NA
ATOM      3  N   UNL     1       0.830  12.045  20.982  0.00  0.00    +0.000 NA
ATOM      4  C   UNL     1       0.332  11.043  20.282  0.00  0.00    +0.000 A 
ATOM      5  O   UNL     1      -1.033  11.080  20.219  0.00  0.00    +0.000 OA
ENDROOT
BRANCH   4   6
ATOM      6  C   UNL     1       0.991   9.876  19.713  0.00  0.00    +0.000 A 
ATOM      7  C   UNL     1       1.386   9.929  18.368  0.00  0.00    +0.000 A 
ATOM      8  C   UNL     1       2.082   8.866  17.774  0.00  0.00    +0.000 A 
ATOM      9  C   UNL     1       2.417   7.710  18.498  0.00  0.00    +0.000 A 
ATOM     10  C   UNL     1       1.983   7.650  19.834  0.00  0.00    +0.000 A 
ATOM     11  C   UNL     1       1.273   8.707  20.432  0.00  0.00    +0.000 A 
ATOM     12 CL   UNL     1       0.744   8.453  22.061  0.00  0.00    +0.000 Cl
BRANCH   9  13
ATOM     13  C   UNL     1       3.203   6.610  17.885  0.00  0.00    +0.000 A 
ATOM     14  C   UNL     1       4.410   6.866  17.208  0.00  0.00    +0.000 A 
ATOM     15  C   UNL     1       5.160   5.836  16.629  0.00  0.00    +0.000 A 
ATOM     16  C   UNL     1       4.726   4.519  16.728  0.00  0.00    +0.000 A 
ATOM     17  C   UNL     1       3.541   4.233  17.399  0.00  0.00    +0.000 A 
ATOM     18  C   UNL     1       2.787   5.269  17.965  0.00  0.00    +0.000 A 
ENDBRANCH   9  13
ENDBRANCH   4   6
BRANCH   1  19
ATOM     19  S   UNL     1      -2.961  12.756  21.147  0.00  0.00    +0.000 S 
BRANCH  19  20
ATOM     20  C   UNL     1      -3.723  12.287  19.568  0.00  0.00    +0.000 C 
BRANCH  20  21
ATOM     21  C   UNL     1      -5.245  12.294  19.728  0.00  0.00    +0.000 C 
BRANCH  21  22
ATOM     22  C   UNL     1      -5.926  11.174  18.939  0.00  0.00    +0.000 C 
BRANCH  22  24
ATOM     23  O   UNL     1      -7.089  10.551  20.971  0.00  0.00    +0.000 OA
ATOM     24  C   UNL     1      -6.887  10.369  19.780  0.00  0.00    +0.000 C 
BRANCH  24  25
ATOM     25  O   UNL     1      -7.543   9.423  19.073  0.00  0.00    +0.000 OA
ATOM     26  H   UNL     1      -8.114   8.842  19.610  0.00  0.00    +0.000 HD
ENDBRANCH  24  25
ENDBRANCH  22  24
ENDBRANCH  21  22
ENDBRANCH  20  21
ENDBRANCH  19  20
ENDBRANCH   1  19
TORSDOF 8
ENDMDL
MODEL 8
REMARK VINA RESULT:      -7.2      3.410      4.757
REMARK  Name = 
REMARK  8 active torsions:
REMARK  status: ('A' for Active; 'I' for Inactive)
REMARK    1  A    between atoms: C_2  and  O_3
REMARK    2  A    between atoms: C_2  and  C_4
REMARK    3  A    between atoms: C_4  and  C_5
REMARK    4  A    between atoms: C_5  and  C_6
REMARK    5  A    between atoms: C_6  and  S_7
REMARK    6  A    between atoms: S_7  and  C_8
REMARK    7  A    between atoms: C_11  and  C_12
REMARK    8  A    between atoms: C_15  and  C_16
REMARK                            x       y       z     vdW  Elec       q    Type
REMARK                         _______ _______ _______ _____ _____    ______ ____
ROOT
ATOM      1  C   UNL     1       3.976   4.990  17.508  0.00  0.00    +0.000 A 
ATOM      2  N   UNL     1       4.735   5.831  16.835  0.00  0.00    +0.000 NA
ATOM      3  N   UNL     1       4.280   7.101  17.135  0.00  0.00    +0.000 NA
ATOM      4  C   UNL     1       3.294   6.947  17.998  0.00  0.00    +0.000 A 
ATOM      5  O   UNL     1       3.026   5.631  18.252  0.00  0.00    +0.000 OA
ENDROOT
BRANCH   4   6
ATOM      6  C   UNL     1       2.395   7.932  18.583  0.00  0.00    +0.000 A 
ATOM      7  C   UNL     1       2.141   9.108  17.862  0.00  0.00    +0.000 A 
ATOM      8  C   UNL     1       1.236  10.069  18.337  0.00  0.00    +0.000 A 
ATOM      9  C   UNL     1       0.544   9.894  19.546  0.00  0.00    +0.000 A 
ATOM     10  C   UNL     1       0.833   8.730  20.279  0.00  0.00    +0.000 A 
ATOM     11  C   UNL     1       1.749   7.769  19.816  0.00  0.00    +0.000 A 
ATOM     12 CL   UNL     1       2.053   6.427  20.868  0.00  0.00    +0.000 Cl
BRANCH   9  13
ATOM     13  C   UNL     1      -0.456  10.884  20.019  0.00  0.00    +0.000 A 
ATOM     14  C   UNL     1      -1.521  11.295  19.195  0.00  0.00    +0.000 A 
ATOM     15  C   UNL     1      -2.469  12.226  19.633  0.00  0.00    +0.000 A 
ATOM     16  C   UNL     1      -2.384  12.758  20.915  0.00  0.00    +0.000 A 
ATOM     17  C   UNL     1      -1.349  12.363  21.756  0.00  0.00    +0.000 A 
ATOM     18  C   UNL     1      -0.393  11.442  21.308  0.00  0.00    +0.000 A 
ENDBRANCH   9  13
ENDBRANCH   4   6
BRANCH   1  19
ATOM     19  S   UNL     1       4.078   3.259  17.444  0.00  0.00    +0.000 S 
BRANCH  19  20
ATOM     20  C   UNL     1       2.325   2.802  17.549  0.00  0.00    +0.000 C 
BRANCH  20  21
ATOM     21  C   UNL     1       2.103   1.965  18.811  0.00  0.00    +0.000 C 
BRANCH  21  22
ATOM     22  C   UNL     1       2.752   2.582  20.051  0.00  0.00    +0.000 C 
BRANCH  22  24
ATOM     23  O   UNL     1       2.007   2.978  22.322  0.00  0.00    +0.000 OA
ATOM     24  C   UNL     1       1.750   2.915  21.130  0.00  0.00    +0.000 C 
BRANCH  24  25
ATOM     25  O   UNL     1       0.516   3.170  20.643  0.00  0.00    +0.000 OA
ATOM     26  H   UNL     1       0.507   3.514  19.729  0.00  0.00    +0.000 HD
ENDBRANCH  24  25
ENDBRANCH  22  24
ENDBRANCH  21  22
ENDBRANCH  20  21
ENDBRANCH  19  20
ENDBRANCH   1  19
TORSDOF 8
ENDMDL
MODEL 9
REMARK VINA RESULT:      -7.2      3.968      5.169
REMARK  Name = 
REMARK  8 active torsions:
REMARK  status: ('A' for Active; 'I' for Inactive)
REMARK    1  A    between atoms: C_2  and  O_3
REMARK    2  A    between atoms: C_2  and  C_4
REMARK    3  A    between atoms: C_4  and  C_5
REMARK    4  A    between atoms: C_5  and  C_6
REMARK    5  A    between atoms: C_6  and  S_7
REMARK    6  A    between atoms: S_7  and  C_8
REMARK    7  A    between atoms: C_11  and  C_12
REMARK    8  A    between atoms: C_15  and  C_16
REMARK                            x       y       z     vdW  Elec       q    Type
REMARK                         _______ _______ _______ _____ _____    ______ ____
ROOT
ATOM      1  C   UNL     1       2.976   4.802  18.277  0.00  0.00    +0.000 A 
ATOM      2  N   UNL     1       4.166   5.221  18.661  0.00  0.00    +0.000 NA
ATOM      3  N   UNL     1       3.965   6.407  19.343  0.00  0.00    +0.000 NA
ATOM      4  C   UNL     1       2.662   6.612  19.356  0.00  0.00    +0.000 A 
ATOM      5  O   UNL     1       1.977   5.650  18.667  0.00  0.00    +0.000 OA
ENDROOT
BRANCH   4   6
ATOM      6  C   UNL     1       1.894   7.743  19.854  0.00  0.00    +0.000 A 
ATOM      7  C   UNL     1       1.377   7.671  21.156  0.00  0.00    +0.000 A 
ATOM      8  C   UNL     1       0.682   8.751  21.722  0.00  0.00    +0.000 A 
ATOM      9  C   UNL     1       0.480   9.947  21.015  0.00  0.00    +0.000 A 
ATOM     10  C   UNL     1       0.968   9.996  19.698  0.00  0.00    +0.000 A 
ATOM     11  C   UNL     1       1.653   8.912  19.120  0.00  0.00    +0.000 A 
ATOM     12 CL   UNL     1       2.128   9.098  17.465  0.00  0.00    +0.000 Cl
BRANCH   9  13
ATOM     13  C   UNL     1      -0.205  11.109  21.635  0.00  0.00    +0.000 A 
ATOM     14  C   UNL     1      -0.034  12.411  21.129  0.00  0.00    +0.000 A 
ATOM     15  C   UNL     1      -0.677  13.513  21.705  0.00  0.00    +0.000 A 
ATOM     16  C   UNL     1      -1.521  13.335  22.795  0.00  0.00    +0.000 A 
ATOM     17  C   UNL     1      -1.718  12.058  23.312  0.00  0.00    +0.000 A 
ATOM     18  C   UNL     1      -1.061  10.961  22.741  0.00  0.00    +0.000 A 
ENDBRANCH   9  13
ENDBRANCH   4   6
BRANCH   1  19
ATOM     19  S   UNL     1       2.660   3.386  17.326  0.00  0.00    +0.000 S 
BRANCH  19  20
ATOM     20  C   UNL     1       2.413   2.142  18.624  0.00  0.00    +0.000 C 
BRANCH  20  21
ATOM     21  C   UNL     1       0.945   2.160  19.059  0.00  0.00    +0.000 C 
BRANCH  21  22
ATOM     22  C   UNL     1       0.667   3.189  20.156  0.00  0.00    +0.000 C 
BRANCH  22  24
ATOM     23  O   UNL     1       1.751   2.170  22.067  0.00  0.00    +0.000 OA
ATOM     24  C   UNL     1       1.656   3.110  21.293  0.00  0.00    +0.000 C 
BRANCH  24  25
ATOM     25  O   UNL     1       2.467   4.187  21.363  0.00  0.00    +0.000 OA
ATOM     26  H   UNL     1       3.188   4.193  20.705  0.00  0.00    +0.000 HD
ENDBRANCH  24  25
ENDBRANCH  22  24
ENDBRANCH  21  22
ENDBRANCH  20  21
ENDBRANCH  19  20
ENDBRANCH   1  19
TORSDOF 8
ENDMDL
