MODEL 1
REMARK VINA RESULT:      -7.0      0.000      0.000
REMARK  Name = 
REMARK  10 active torsions:
REMARK  status: ('A' for Active; 'I' for Inactive)
REMARK    1  A    between atoms: C_1  and  O_2
REMARK    2  A    between atoms: O_2  and  C_3
REMARK    3  A    between atoms: C_6  and  C_7
REMARK    4  A    between atoms: N_11  and  C_12
REMARK    5  A    between atoms: C_12  and  C_13
REMARK    6  A    between atoms: C_13  and  N_14
REMARK    7  A    between atoms: N_14  and  C_15
REMARK    8  A    between atoms: N_14  and  C_16
REMARK    9  A    between atoms: C_17  and  C_19
REMARK   10  A    between atoms: C_20  and  C_21
REMARK                            x       y       z     vdW  Elec       q    Type
REMARK                         _______ _______ _______ _____ _____    ______ ____
ROOT
ATOM      1  C   UNL     1       2.730   3.964  20.316  0.00  0.00    +0.000 A 
ATOM      2  C   UNL     1       3.390   2.910  19.662  0.00  0.00    +0.000 A 
ATOM      3  C   UNL     1       4.031   3.102  18.440  0.00  0.00    +0.000 A 
ATOM      4  C   UNL     1       4.050   4.354  17.816  0.00  0.00    +0.000 A 
ATOM      5  C   UNL     1       4.732   4.546  16.493  0.00  0.00    +0.000 C 
ATOM      6  C   UNL     1       3.384   5.406  18.481  0.00  0.00    +0.000 A 
ATOM      7  S   UNL     1       3.274   7.047  17.997  0.00  0.00    +0.000 S 
ATOM      8  C   UNL     1       2.266   7.415  19.328  0.00  0.00    +0.000 A 
ATOM      9  N   UNL     1       1.820   8.738  19.544  0.00  0.00    +0.000 N 
ATOM     10  C   UNL     1       1.616   9.563  18.420  0.00  0.00    +0.000 C 
ATOM     11  O   UNL     1       1.764   9.245  17.241  0.00  0.00    +0.000 OA
ATOM     12  N   UNL     1       2.084   6.409  20.156  0.00  0.00    +0.000 NA
ATOM     13  C   UNL     1       2.709   5.244  19.691  0.00  0.00    +0.000 A 
ENDROOT
BRANCH   1  15
ATOM     14  C   UNL     1       1.563   2.496  21.778  0.00  0.00    +0.000 C 
ATOM     15  O   UNL     1       2.064   3.803  21.510  0.00  0.00    +0.000 OA
ENDBRANCH   1  15
BRANCH  10  16
ATOM     16  C   UNL     1       1.149  10.961  18.662  0.00  0.00    +0.000 C 
ATOM     17  C   UNL     1       1.999  11.965  18.399  0.00  0.00    +0.000 C 
BRANCH  17  18
ATOM     18  C   UNL     1       1.645  13.338  18.555  0.00  0.00    +0.000 A 
ATOM     19  C   UNL     1       2.414  14.491  18.494  0.00  0.00    +0.000 A 
ATOM     20  C   UNL     1       1.659  15.682  18.697  0.00  0.00    +0.000 A 
ATOM     21  C   UNL     1       0.329  15.418  18.914  0.00  0.00    +0.000 A 
ATOM     22  S   UNL     1      -0.004  13.745  18.875  0.00  0.00    +0.000 S 
ENDBRANCH  17  18
ENDBRANCH  10  16
BRANCH   9  23
ATOM     23  C   UNL     1       1.327   9.132  20.885  0.00  0.00    +0.000 C 
BRANCH  23  24
ATOM     24  C   UNL     1      -0.193   9.017  21.147  0.00  0.00    +0.000 C 
BRANCH  24  25
ATOM     25  N   UNL     1      -0.680   9.836  22.286  0.00  0.00    +0.000 NA
ATOM     26  C   UNL     1       0.032   9.510  23.526  0.00  0.00    +0.000 C 
ATOM     27  C   UNL     1      -0.459  11.255  21.969  0.00  0.00    +0.000 C 
ENDBRANCH  24  25
ENDBRANCH  23  24
ENDBRANCH   9  23
TORSDOF 6
ENDMDL
MODEL 2
REMARK VINA RESULT:      -6.8      0.814      1.192
REMARK  Name = 
REMARK  10 active torsions:
REMARK  status: ('A' for Active; 'I' for Inactive)
REMARK    1  A    between atoms: C_1  and  O_2
REMARK    2  A    between atoms: O_2  and  C_3
REMARK    3  A    between atoms: C_6  and  C_7
REMARK    4  A    between atoms: N_11  and  C_12
REMARK    5  A    between atoms: C_12  and  C_13
REMARK    6  A    between atoms: C_13  and  N_14
REMARK    7  A    between atoms: N_14  and  C_15
REMARK    8  A    between atoms: N_14  and  C_16
REMARK    9  A    between atoms: C_17  and  C_19
REMARK   10  A    between atoms: C_20  and  C_21
REMARK                            x       y       z     vdW  Elec       q    Type
REMARK                         _______ _______ _______ _____ _____    ______ ____
ROOT
ATOM      1  C   UNL     1       2.676   4.045  20.439  0.00  0.00    +0.000 A 
ATOM      2  C   UNL     1       3.578   3.070  19.981  0.00  0.00    +0.000 A 
ATOM      3  C   UNL     1       4.489   3.346  18.963  0.00  0.00    +0.000 A 
ATOM      4  C   UNL     1       4.549   4.607  18.360  0.00  0.00    +0.000 A 
ATOM      5  C   UNL     1       5.525   4.888  17.254  0.00  0.00    +0.000 C 
ATOM      6  C   UNL     1       3.639   5.579  18.827  0.00  0.00    +0.000 A 
ATOM      7  S   UNL     1       3.501   7.213  18.325  0.00  0.00    +0.000 S 
ATOM      8  C   UNL     1       2.157   7.458  19.352  0.00  0.00    +0.000 A 
ATOM      9  N   UNL     1       1.547   8.730  19.442  0.00  0.00    +0.000 N 
ATOM     10  C   UNL     1       1.560   9.556  18.300  0.00  0.00    +0.000 C 
ATOM     11  O   UNL     1       2.033   9.277  17.199  0.00  0.00    +0.000 OA
ATOM     12  N   UNL     1       1.865   6.423  20.109  0.00  0.00    +0.000 NA
ATOM     13  C   UNL     1       2.695   5.330  19.825  0.00  0.00    +0.000 A 
ENDROOT
BRANCH   1  15
ATOM     14  C   UNL     1       1.560   2.433  21.784  0.00  0.00    +0.000 C 
ATOM     15  O   UNL     1       1.745   3.800  21.423  0.00  0.00    +0.000 OA
ENDBRANCH   1  15
BRANCH  10  16
ATOM     16  C   UNL     1       0.917  10.899  18.408  0.00  0.00    +0.000 C 
ATOM     17  C   UNL     1       1.700  11.955  18.676  0.00  0.00    +0.000 C 
BRANCH  17  18
ATOM     18  C   UNL     1       1.198  13.288  18.762  0.00  0.00    +0.000 A 
ATOM     19  C   UNL     1      -0.096  13.780  18.697  0.00  0.00    +0.000 A 
ATOM     20  C   UNL     1      -0.168  15.196  18.843  0.00  0.00    +0.000 A 
ATOM     21  C   UNL     1       1.074  15.759  19.012  0.00  0.00    +0.000 A 
ATOM     22  S   UNL     1       2.313  14.587  18.993  0.00  0.00    +0.000 S 
ENDBRANCH  17  18
ENDBRANCH  10  16
BRANCH   9  23
ATOM     23  C   UNL     1       0.692   9.049  20.609  0.00  0.00    +0.000 C 
BRANCH  23  24
ATOM     24  C   UNL     1       1.367   9.731  21.821  0.00  0.00    +0.000 C 
BRANCH  24  25
ATOM     25  N   UNL     1       0.451  10.560  22.645  0.00  0.00    +0.000 NA
ATOM     26  C   UNL     1      -0.280  11.531  21.825  0.00  0.00    +0.000 C 
ATOM     27  C   UNL     1      -0.516   9.670  23.305  0.00  0.00    +0.000 C 
ENDBRANCH  24  25
ENDBRANCH  23  24
ENDBRANCH   9  23
TORSDOF 6
ENDMDL
MODEL 3
REMARK VINA RESULT:      -6.8      2.561      4.424
REMARK  Name = 
REMARK  10 active torsions:
REMARK  status: ('A' for Active; 'I' for Inactive)
REMARK    1  A    between atoms: C_1  and  O_2
REMARK    2  A    between atoms: O_2  and  C_3
REMARK    3  A    between atoms: C_6  and  C_7
REMARK    4  A    between atoms: N_11  and  C_12
REMARK    5  A    between atoms: C_12  and  C_13
REMARK    6  A    between atoms: C_13  and  N_14
REMARK    7  A    between atoms: N_14  and  C_15
REMARK    8  A    between atoms: N_14  and  C_16
REMARK    9  A    between atoms: C_17  and  C_19
REMARK   10  A    between atoms: C_20  and  C_21
REMARK                            x       y       z     vdW  Elec       q    Type
REMARK                         _______ _______ _______ _____ _____    ______ ____
ROOT
ATOM      1  C   UNL     1       3.962   5.742  17.989  0.00  0.00    +0.000 A 
ATOM      2  C   UNL     1       4.362   4.417  18.228  0.00  0.00    +0.000 A 
ATOM      3  C   UNL     1       3.869   3.694  19.312  0.00  0.00    +0.000 A 
ATOM      4  C   UNL     1       2.949   4.255  20.204  0.00  0.00    +0.000 A 
ATOM      5  C   UNL     1       2.435   3.470  21.377  0.00  0.00    +0.000 C 
ATOM      6  C   UNL     1       2.553   5.586  19.956  0.00  0.00    +0.000 A 
ATOM      7  S   UNL     1       1.416   6.522  20.835  0.00  0.00    +0.000 S 
ATOM      8  C   UNL     1       1.721   7.888  19.854  0.00  0.00    +0.000 A 
ATOM      9  N   UNL     1       1.004   9.089  20.054  0.00  0.00    +0.000 N 
ATOM     10  C   UNL     1       0.581   9.400  21.363  0.00  0.00    +0.000 C 
ATOM     11  O   UNL     1       0.793   8.739  22.378  0.00  0.00    +0.000 OA
ATOM     12  N   UNL     1       2.550   7.659  18.858  0.00  0.00    +0.000 NA
ATOM     13  C   UNL     1       3.047   6.349  18.897  0.00  0.00    +0.000 A 
ENDROOT
BRANCH   1  15
ATOM     14  C   UNL     1       5.809   6.910  17.051  0.00  0.00    +0.000 C 
ATOM     15  O   UNL     1       4.449   6.495  16.944  0.00  0.00    +0.000 OA
ENDBRANCH   1  15
BRANCH  10  16
ATOM     16  C   UNL     1      -0.181  10.669  21.562  0.00  0.00    +0.000 C 
ATOM     17  C   UNL     1      -0.895  10.806  22.690  0.00  0.00    +0.000 C 
BRANCH  17  18
ATOM     18  C   UNL     1      -1.628  11.990  23.001  0.00  0.00    +0.000 A 
ATOM     19  C   UNL     1      -2.923  12.165  23.465  0.00  0.00    +0.000 A 
ATOM     20  C   UNL     1      -3.270  13.533  23.663  0.00  0.00    +0.000 A 
ATOM     21  C   UNL     1      -2.235  14.378  23.343  0.00  0.00    +0.000 A 
ATOM     22  S   UNL     1      -0.859  13.525  22.805  0.00  0.00    +0.000 S 
ENDBRANCH  17  18
ENDBRANCH  10  16
BRANCH   9  23
ATOM     23  C   UNL     1       0.951  10.099  18.971  0.00  0.00    +0.000 C 
BRANCH  23  24
ATOM     24  C   UNL     1      -0.165   9.951  17.912  0.00  0.00    +0.000 C 
BRANCH  24  25
ATOM     25  N   UNL     1      -1.484  10.487  18.335  0.00  0.00    +0.000 NA
ATOM     26  C   UNL     1      -1.526  11.950  18.238  0.00  0.00    +0.000 C 
ATOM     27  C   UNL     1      -2.521   9.921  17.459  0.00  0.00    +0.000 C 
ENDBRANCH  24  25
ENDBRANCH  23  24
ENDBRANCH   9  23
TORSDOF 6
ENDMDL
MODEL 4
REMARK VINA RESULT:      -6.6      2.667      7.698
REMARK  Name = 
REMARK  10 active torsions:
REMARK  status: ('A' for Active; 'I' for Inactive)
REMARK    1  A    between atoms: C_1  and  O_2
REMARK    2  A    between atoms: O_2  and  C_3
REMARK    3  A    between atoms: C_6  and  C_7
REMARK    4  A    between atoms: N_11  and  C_12
REMARK    5  A    between atoms: C_12  and  C_13
REMARK    6  A    between atoms: C_13  and  N_14
REMARK    7  A    between atoms: N_14  and  C_15
REMARK    8  A    between atoms: N_14  and  C_16
REMARK    9  A    between atoms: C_17  and  C_19
REMARK   10  A    between atoms: C_20  and  C_21
REMARK                            x       y       z     vdW  Elec       q    Type
REMARK                         _______ _______ _______ _____ _____    ______ ____
ROOT
ATOM      1  C   UNL     1      -0.561  11.151  22.024  0.00  0.00    +0.000 A 
ATOM      2  C   UNL     1      -1.434  12.231  21.815  0.00  0.00    +0.000 A 
ATOM      3  C   UNL     1      -1.789  12.638  20.530  0.00  0.00    +0.000 A 
ATOM      4  C   UNL     1      -1.296  11.984  19.396  0.00  0.00    +0.000 A 
ATOM      5  C   UNL     1      -1.675  12.441  18.017  0.00  0.00    +0.000 C 
ATOM      6  C   UNL     1      -0.421  10.900  19.617  0.00  0.00    +0.000 A 
ATOM      7  S   UNL     1       0.302   9.881  18.443  0.00  0.00    +0.000 S 
ATOM      8  C   UNL     1       1.171   9.038  19.650  0.00  0.00    +0.000 A 
ATOM      9  N   UNL     1       1.998   7.945  19.306  0.00  0.00    +0.000 N 
ATOM     10  C   UNL     1       2.628   7.959  18.045  0.00  0.00    +0.000 C 
ATOM     11  O   UNL     1       2.555   8.850  17.199  0.00  0.00    +0.000 OA
ATOM     12  N   UNL     1       0.883   9.412  20.878  0.00  0.00    +0.000 NA
ATOM     13  C   UNL     1      -0.022  10.482  20.888  0.00  0.00    +0.000 A 
ENDROOT
BRANCH   1  15
ATOM     14  C   UNL     1      -0.250   9.338  23.532  0.00  0.00    +0.000 C 
ATOM     15  O   UNL     1      -0.167  10.738  23.278  0.00  0.00    +0.000 OA
ENDBRANCH   1  15
BRANCH  10  16
ATOM     16  C   UNL     1       3.496   6.798  17.690  0.00  0.00    +0.000 C 
ATOM     17  C   UNL     1       4.525   7.010  16.855  0.00  0.00    +0.000 C 
BRANCH  17  18
ATOM     18  C   UNL     1       5.441   5.983  16.479  0.00  0.00    +0.000 A 
ATOM     19  C   UNL     1       5.430   5.096  15.413  0.00  0.00    +0.000 A 
ATOM     20  C   UNL     1       6.557   4.224  15.394  0.00  0.00    +0.000 A 
ATOM     21  C   UNL     1       7.405   4.457  16.449  0.00  0.00    +0.000 A 
ATOM     22  S   UNL     1       6.843   5.716  17.453  0.00  0.00    +0.000 S 
ENDBRANCH  17  18
ENDBRANCH  10  16
BRANCH   9  23
ATOM     23  C   UNL     1       2.396   6.972  20.350  0.00  0.00    +0.000 C 
BRANCH  23  24
ATOM     24  C   UNL     1       1.429   5.800  20.636  0.00  0.00    +0.000 C 
BRANCH  24  25
ATOM     25  N   UNL     1       1.783   4.533  19.946  0.00  0.00    +0.000 NA
ATOM     26  C   UNL     1       3.209   4.220  20.094  0.00  0.00    +0.000 C 
ATOM     27  C   UNL     1       0.992   3.443  20.536  0.00  0.00    +0.000 C 
ENDBRANCH  24  25
ENDBRANCH  23  24
ENDBRANCH   9  23
TORSDOF 6
ENDMDL
MODEL 5
REMARK VINA RESULT:      -6.3      0.837      1.102
REMARK  Name = 
REMARK  10 active torsions:
REMARK  status: ('A' for Active; 'I' for Inactive)
REMARK    1  A    between atoms: C_1  and  O_2
REMARK    2  A    between atoms: O_2  and  C_3
REMARK    3  A    between atoms: C_6  and  C_7
REMARK    4  A    between atoms: N_11  and  C_12
REMARK    5  A    between atoms: C_12  and  C_13
REMARK    6  A    between atoms: C_13  and  N_14
REMARK    7  A    between atoms: N_14  and  C_15
REMARK    8  A    between atoms: N_14  and  C_16
REMARK    9  A    between atoms: C_17  and  C_19
REMARK   10  A    between atoms: C_20  and  C_21
REMARK                            x       y       z     vdW  Elec       q    Type
REMARK                         _______ _______ _______ _____ _____    ______ ____
ROOT
ATOM      1  C   UNL     1       2.848   4.011  19.606  0.00  0.00    +0.000 A 
ATOM      2  C   UNL     1       3.735   3.128  18.969  0.00  0.00    +0.000 A 
ATOM      3  C   UNL     1       4.591   3.563  17.959  0.00  0.00    +0.000 A 
ATOM      4  C   UNL     1       4.608   4.899  17.542  0.00  0.00    +0.000 A 
ATOM      5  C   UNL     1       5.525   5.352  16.443  0.00  0.00    +0.000 C 
ATOM      6  C   UNL     1       3.714   5.777  18.188  0.00  0.00    +0.000 A 
ATOM      7  S   UNL     1       3.535   7.464  17.935  0.00  0.00    +0.000 S 
ATOM      8  C   UNL     1       2.241   7.536  19.050  0.00  0.00    +0.000 A 
ATOM      9  N   UNL     1       1.625   8.771  19.352  0.00  0.00    +0.000 N 
ATOM     10  C   UNL     1       1.572   9.753  18.342  0.00  0.00    +0.000 C 
ATOM     11  O   UNL     1       1.992   9.643  17.191  0.00  0.00    +0.000 OA
ATOM     12  N   UNL     1       1.998   6.398  19.663  0.00  0.00    +0.000 NA
ATOM     13  C   UNL     1       2.824   5.372  19.184  0.00  0.00    +0.000 A 
ENDROOT
BRANCH   1  15
ATOM     14  C   UNL     1       1.086   2.548  20.243  0.00  0.00    +0.000 C 
ATOM     15  O   UNL     1       1.970   3.611  20.589  0.00  0.00    +0.000 OA
ENDBRANCH   1  15
BRANCH  10  16
ATOM     16  C   UNL     1       0.922  11.055  18.674  0.00  0.00    +0.000 C 
ATOM     17  C   UNL     1       1.712  12.105  18.947  0.00  0.00    +0.000 C 
BRANCH  17  18
ATOM     18  C   UNL     1       1.200  13.404  19.238  0.00  0.00    +0.000 A 
ATOM     19  C   UNL     1       1.764  14.477  19.911  0.00  0.00    +0.000 A 
ATOM     20  C   UNL     1       0.909  15.615  19.973  0.00  0.00    +0.000 A 
ATOM     21  C   UNL     1      -0.294  15.389  19.350  0.00  0.00    +0.000 A 
ATOM     22  S   UNL     1      -0.390  13.815  18.700  0.00  0.00    +0.000 S 
ENDBRANCH  17  18
ENDBRANCH  10  16
BRANCH   9  23
ATOM     23  C   UNL     1       0.827   8.905  20.593  0.00  0.00    +0.000 C 
BRANCH  23  24
ATOM     24  C   UNL     1       1.508   9.571  21.811  0.00  0.00    +0.000 C 
BRANCH  24  25
ATOM     25  N   UNL     1       0.585  10.339  22.684  0.00  0.00    +0.000 NA
ATOM     26  C   UNL     1      -0.280  11.229  21.902  0.00  0.00    +0.000 C 
ATOM     27  C   UNL     1      -0.256   9.387  23.425  0.00  0.00    +0.000 C 
ENDBRANCH  24  25
ENDBRANCH  23  24
ENDBRANCH   9  23
TORSDOF 6
ENDMDL
MODEL 6
REMARK VINA RESULT:      -6.3      2.522      4.637
REMARK  Name = 
REMARK  10 active torsions:
REMARK  status: ('A' for Active; 'I' for Inactive)
REMARK    1  A    between atoms: C_1  and  O_2
REMARK    2  A    between atoms: O_2  and  C_3
REMARK    3  A    between atoms: C_6  and  C_7
REMARK    4  A    between atoms: N_11  and  C_12
REMARK    5  A    between atoms: C_12  and  C_13
REMARK    6  A    between atoms: C_13  and  N_14
REMARK    7  A    between atoms: N_14  and  C_15
REMARK    8  A    between atoms: N_14  and  C_16
REMARK    9  A    between atoms: C_17  and  C_19
REMARK   10  A    between atoms: C_20  and  C_21
REMARK                            x       y       z     vdW  Elec       q    Type
REMARK                         _______ _______ _______ _____ _____    ______ ____
ROOT
ATOM      1  C   UNL     1       3.545   6.245  17.942  0.00  0.00    +0.000 A 
ATOM      2  C   UNL     1       3.953   4.914  18.123  0.00  0.00    +0.000 A 
ATOM      3  C   UNL     1       3.537   4.171  19.226  0.00  0.00    +0.000 A 
ATOM      4  C   UNL     1       2.690   4.718  20.196  0.00  0.00    +0.000 A 
ATOM      5  C   UNL     1       2.261   3.912  21.388  0.00  0.00    +0.000 C 
ATOM      6  C   UNL     1       2.286   6.056  20.005  0.00  0.00    +0.000 A 
ATOM      7  S   UNL     1       1.224   6.980  20.984  0.00  0.00    +0.000 S 
ATOM      8  C   UNL     1       1.464   8.364  20.011  0.00  0.00    +0.000 A 
ATOM      9  N   UNL     1       0.771   9.563  20.289  0.00  0.00    +0.000 N 
ATOM     10  C   UNL     1       0.449   9.850  21.631  0.00  0.00    +0.000 C 
ATOM     11  O   UNL     1       0.732   9.167  22.615  0.00  0.00    +0.000 OA
ATOM     12  N   UNL     1       2.215   8.151  18.952  0.00  0.00    +0.000 NA
ATOM     13  C   UNL     1       2.704   6.838  18.927  0.00  0.00    +0.000 A 
ENDROOT
BRANCH   1  15
ATOM     14  C   UNL     1       5.144   6.588  16.215  0.00  0.00    +0.000 C 
ATOM     15  O   UNL     1       3.957   7.017  16.878  0.00  0.00    +0.000 OA
ENDBRANCH   1  15
BRANCH  10  16
ATOM     16  C   UNL     1      -0.287  11.118  21.912  0.00  0.00    +0.000 C 
ATOM     17  C   UNL     1      -1.269  11.089  22.827  0.00  0.00    +0.000 C 
BRANCH  17  18
ATOM     18  C   UNL     1      -2.011  12.249  23.202  0.00  0.00    +0.000 A 
ATOM     19  C   UNL     1      -3.319  12.393  23.638  0.00  0.00    +0.000 A 
ATOM     20  C   UNL     1      -3.671  13.744  23.925  0.00  0.00    +0.000 A 
ATOM     21  C   UNL     1      -2.627  14.606  23.699  0.00  0.00    +0.000 A 
ATOM     22  S   UNL     1      -1.236  13.792  23.142  0.00  0.00    +0.000 S 
ENDBRANCH  17  18
ENDBRANCH  10  16
BRANCH   9  23
ATOM     23  C   UNL     1       0.644  10.596  19.234  0.00  0.00    +0.000 C 
BRANCH  23  24
ATOM     24  C   UNL     1       1.870  11.501  18.971  0.00  0.00    +0.000 C 
BRANCH  24  25
ATOM     25  N   UNL     1       1.652  12.934  19.295  0.00  0.00    +0.000 NA
ATOM     26  C   UNL     1       2.302  13.305  20.556  0.00  0.00    +0.000 C 
ATOM     27  C   UNL     1       2.217  13.749  18.209  0.00  0.00    +0.000 C 
ENDBRANCH  24  25
ENDBRANCH  23  24
ENDBRANCH   9  23
TORSDOF 6
ENDMDL
MODEL 7
REMARK VINA RESULT:      -6.2      2.576      4.582
REMARK  Name = 
REMARK  10 active torsions:
REMARK  status: ('A' for Active; 'I' for Inactive)
REMARK    1  A    between atoms: C_1  and  O_2
REMARK    2  A    between atoms: O_2  and  C_3
REMARK    3  A    between atoms: C_6  and  C_7
REMARK    4  A    between atoms: N_11  and  C_12
REMARK    5  A    between atoms: C_12  and  C_13
REMARK    6  A    between atoms: C_13  and  N_14
REMARK    7  A    between atoms: N_14  and  C_15
REMARK    8  A    between atoms: N_14  and  C_16
REMARK    9  A    between atoms: C_17  and  C_19
REMARK   10  A    between atoms: C_20  and  C_21
REMARK                            x       y       z     vdW  Elec       q    Type
REMARK                         _______ _______ _______ _____ _____    ______ ____
ROOT
ATOM      1  C   UNL     1       3.565   6.264  17.858  0.00  0.00    +0.000 A 
ATOM      2  C   UNL     1       3.951   4.931  18.073  0.00  0.00    +0.000 A 
ATOM      3  C   UNL     1       3.532   4.227  19.200  0.00  0.00    +0.000 A 
ATOM      4  C   UNL     1       2.704   4.816  20.162  0.00  0.00    +0.000 A 
ATOM      5  C   UNL     1       2.271   4.053  21.380  0.00  0.00    +0.000 C 
ATOM      6  C   UNL     1       2.322   6.156  19.936  0.00  0.00    +0.000 A 
ATOM      7  S   UNL     1       1.285   7.126  20.898  0.00  0.00    +0.000 S 
ATOM      8  C   UNL     1       1.541   8.477  19.884  0.00  0.00    +0.000 A 
ATOM      9  N   UNL     1       0.872   9.696  20.133  0.00  0.00    +0.000 N 
ATOM     10  C   UNL     1       0.567  10.026  21.470  0.00  0.00    +0.000 C 
ATOM     11  O   UNL     1       0.847   9.367  22.470  0.00  0.00    +0.000 OA
ATOM     12  N   UNL     1       2.278   8.221  18.825  0.00  0.00    +0.000 NA
ATOM     13  C   UNL     1       2.744   6.899  18.833  0.00  0.00    +0.000 A 
ENDROOT
BRANCH   1  15
ATOM     14  C   UNL     1       5.118   6.494  16.072  0.00  0.00    +0.000 C 
ATOM     15  O   UNL     1       3.981   6.997  16.769  0.00  0.00    +0.000 OA
ENDBRANCH   1  15
BRANCH  10  16
ATOM     16  C   UNL     1      -0.144  11.315  21.721  0.00  0.00    +0.000 C 
ATOM     17  C   UNL     1      -0.998  11.374  22.755  0.00  0.00    +0.000 C 
BRANCH  17  18
ATOM     18  C   UNL     1      -1.700  12.564  23.110  0.00  0.00    +0.000 A 
ATOM     19  C   UNL     1      -1.274  13.880  23.207  0.00  0.00    +0.000 A 
ATOM     20  C   UNL     1      -2.311  14.781  23.586  0.00  0.00    +0.000 A 
ATOM     21  C   UNL     1      -3.509  14.136  23.776  0.00  0.00    +0.000 A 
ATOM     22  S   UNL     1      -3.380  12.458  23.501  0.00  0.00    +0.000 S 
ENDBRANCH  17  18
ENDBRANCH  10  16
BRANCH   9  23
ATOM     23  C   UNL     1       0.754  10.700  19.050  0.00  0.00    +0.000 C 
BRANCH  23  24
ATOM     24  C   UNL     1       1.940  11.670  18.844  0.00  0.00    +0.000 C 
BRANCH  24  25
ATOM     25  N   UNL     1       1.597  13.104  19.026  0.00  0.00    +0.000 NA
ATOM     26  C   UNL     1       2.510  13.974  18.279  0.00  0.00    +0.000 C 
ATOM     27  C   UNL     1       0.226  13.320  18.540  0.00  0.00    +0.000 C 
ENDBRANCH  24  25
ENDBRANCH  23  24
ENDBRANCH   9  23
TORSDOF 6
ENDMDL
MODEL 8
REMARK VINA RESULT:      -6.1      2.673      4.379
REMARK  Name = 
REMARK  10 active torsions:
REMARK  status: ('A' for Active; 'I' for Inactive)
REMARK    1  A    between atoms: C_1  and  O_2
REMARK    2  A    between atoms: O_2  and  C_3
REMARK    3  A    between atoms: C_6  and  C_7
REMARK    4  A    between atoms: N_11  and  C_12
REMARK    5  A    between atoms: C_12  and  C_13
REMARK    6  A    between atoms: C_13  and  N_14
REMARK    7  A    between atoms: N_14  and  C_15
REMARK    8  A    between atoms: N_14  and  C_16
REMARK    9  A    between atoms: C_17  and  C_19
REMARK   10  A    between atoms: C_20  and  C_21
REMARK                            x       y       z     vdW  Elec       q    Type
REMARK                         _______ _______ _______ _____ _____    ______ ____
ROOT
ATOM      1  C   UNL     1       3.590   5.976  17.924  0.00  0.00    +0.000 A 
ATOM      2  C   UNL     1       3.878   4.614  18.112  0.00  0.00    +0.000 A 
ATOM      3  C   UNL     1       3.367   3.908  19.199  0.00  0.00    +0.000 A 
ATOM      4  C   UNL     1       2.541   4.524  20.146  0.00  0.00    +0.000 A 
ATOM      5  C   UNL     1       2.009   3.756  21.321  0.00  0.00    +0.000 C 
ATOM      6  C   UNL     1       2.259   5.892  19.948  0.00  0.00    +0.000 A 
ATOM      7  S   UNL     1       1.251   6.902  20.899  0.00  0.00    +0.000 S 
ATOM      8  C   UNL     1       1.637   8.262  19.939  0.00  0.00    +0.000 A 
ATOM      9  N   UNL     1       1.041   9.516  20.201  0.00  0.00    +0.000 N 
ATOM     10  C   UNL     1       0.704   9.826  21.534  0.00  0.00    +0.000 C 
ATOM     11  O   UNL     1       0.898   9.121  22.523  0.00  0.00    +0.000 OA
ATOM     12  N   UNL     1       2.398   7.987  18.902  0.00  0.00    +0.000 NA
ATOM     13  C   UNL     1       2.774   6.637  18.886  0.00  0.00    +0.000 A 
ENDROOT
BRANCH   1  15
ATOM     14  C   UNL     1       5.512   6.653  16.697  0.00  0.00    +0.000 C 
ATOM     15  O   UNL     1       4.099   6.711  16.876  0.00  0.00    +0.000 OA
ENDBRANCH   1  15
BRANCH  10  16
ATOM     16  C   UNL     1       0.071  11.153  21.798  0.00  0.00    +0.000 C 
ATOM     17  C   UNL     1      -0.930  11.208  22.690  0.00  0.00    +0.000 C 
BRANCH  17  18
ATOM     18  C   UNL     1      -1.580  12.427  23.048  0.00  0.00    +0.000 A 
ATOM     19  C   UNL     1      -1.107  13.729  23.106  0.00  0.00    +0.000 A 
ATOM     20  C   UNL     1      -2.100  14.671  23.505  0.00  0.00    +0.000 A 
ATOM     21  C   UNL     1      -3.310  14.070  23.749  0.00  0.00    +0.000 A 
ATOM     22  S   UNL     1      -3.247  12.384  23.501  0.00  0.00    +0.000 S 
ENDBRANCH  17  18
ENDBRANCH  10  16
BRANCH   9  23
ATOM     23  C   UNL     1       1.034  10.556  19.146  0.00  0.00    +0.000 C 
BRANCH  23  24
ATOM     24  C   UNL     1      -0.277  11.348  18.934  0.00  0.00    +0.000 C 
BRANCH  24  25
ATOM     25  N   UNL     1      -1.466  10.500  18.661  0.00  0.00    +0.000 NA
ATOM     26  C   UNL     1      -2.698  11.294  18.636  0.00  0.00    +0.000 C 
ATOM     27  C   UNL     1      -1.287   9.854  17.352  0.00  0.00    +0.000 C 
ENDBRANCH  24  25
ENDBRANCH  23  24
ENDBRANCH   9  23
TORSDOF 6
ENDMDL
MODEL 9
REMARK VINA RESULT:      -6.1      0.995      1.341
REMARK  Name = 
REMARK  10 active torsions:
REMARK  status: ('A' for Active; 'I' for Inactive)
REMARK    1  A    between atoms: C_1  and  O_2
REMARK    2  A    between atoms: O_2  and  C_3
REMARK    3  A    between atoms: C_6  and  C_7
REMARK    4  A    between atoms: N_11  and  C_12
REMARK    5  A    between atoms: C_12  and  C_13
REMARK    6  A    between atoms: C_13  and  N_14
REMARK    7  A    between atoms: N_14  and  C_15
REMARK    8  A    between atoms: N_14  and  C_16
REMARK    9  A    between atoms: C_17  and  C_19
REMARK   10  A    between atoms: C_20  and  C_21
REMARK                            x       y       z     vdW  Elec       q    Type
REMARK                         _______ _______ _______ _____ _____    ______ ____
ROOT
ATOM      1  C   UNL     1       2.122   3.211  19.497  0.00  0.00    +0.000 A 
ATOM      2  C   UNL     1       2.706   2.196  18.720  0.00  0.00    +0.000 A 
ATOM      3  C   UNL     1       3.522   2.495  17.631  0.00  0.00    +0.000 A 
ATOM      4  C   UNL     1       3.799   3.818  17.269  0.00  0.00    +0.000 A 
ATOM      5  C   UNL     1       4.668   4.128  16.084  0.00  0.00    +0.000 C 
ATOM      6  C   UNL     1       3.208   4.829  18.055  0.00  0.00    +0.000 A 
ATOM      7  S   UNL     1       3.395   6.526  17.894  0.00  0.00    +0.000 S 
ATOM      8  C   UNL     1       2.285   6.811  19.161  0.00  0.00    +0.000 A 
ATOM      9  N   UNL     1       2.006   8.129  19.587  0.00  0.00    +0.000 N 
ATOM     10  C   UNL     1       2.069   9.163  18.631  0.00  0.00    +0.000 C 
ATOM     11  O   UNL     1       2.322   9.041  17.433  0.00  0.00    +0.000 OA
ATOM     12  N   UNL     1       1.856   5.717  19.754  0.00  0.00    +0.000 NA
ATOM     13  C   UNL     1       2.364   4.567  19.136  0.00  0.00    +0.000 A 
ENDROOT
BRANCH   1  15
ATOM     14  C   UNL     1       1.921   2.835  21.836  0.00  0.00    +0.000 C 
ATOM     15  O   UNL     1       1.290   2.952  20.563  0.00  0.00    +0.000 OA
ENDBRANCH   1  15
BRANCH  10  16
ATOM     16  C   UNL     1       1.777  10.553  19.093  0.00  0.00    +0.000 C 
ATOM     17  C   UNL     1       1.118  11.371  18.257  0.00  0.00    +0.000 C 
BRANCH  17  18
ATOM     18  C   UNL     1       0.753  12.704  18.608  0.00  0.00    +0.000 A 
ATOM     19  C   UNL     1      -0.489  13.315  18.702  0.00  0.00    +0.000 A 
ATOM     20  C   UNL     1      -0.416  14.680  19.104  0.00  0.00    +0.000 A 
ATOM     21  C   UNL     1       0.879  15.088  19.305  0.00  0.00    +0.000 A 
ATOM     22  S   UNL     1       1.997  13.835  19.009  0.00  0.00    +0.000 S 
ENDBRANCH  17  18
ENDBRANCH  10  16
BRANCH   9  23
ATOM     23  C   UNL     1       1.403   8.355  20.921  0.00  0.00    +0.000 C 
BRANCH  23  24
ATOM     24  C   UNL     1       0.143   9.248  20.992  0.00  0.00    +0.000 C 
BRANCH  24  25
ATOM     25  N   UNL     1       0.148  10.224  22.111  0.00  0.00    +0.000 NA
ATOM     26  C   UNL     1      -0.820  11.303  21.888  0.00  0.00    +0.000 C 
ATOM     27  C   UNL     1      -0.205   9.515  23.350  0.00  0.00    +0.000 C 
ENDBRANCH  24  25
ENDBRANCH  23  24
ENDBRANCH   9  23
TORSDOF 6
ENDMDL
