MODEL 1
REMARK VINA RESULT:      -8.6      0.000      0.000
REMARK  Name = 
REMARK  10 active torsions:
REMARK  status: ('A' for Active; 'I' for Inactive)
REMARK    1  A    between atoms: C_1  and  O_2
REMARK    2  A    between atoms: O_2  and  C_3
REMARK    3  A    between atoms: C_3  and  C_5
REMARK    4  A    between atoms: C_8  and  O_9
REMARK    5  A    between atoms: O_9  and  C_10
REMARK    6  A    between atoms: C_11  and  C_12
REMARK    7  A    between atoms: C_12  and  N_13
REMARK    8  A    between atoms: N_16  and  C_17
REMARK    9  A    between atoms: C_20  and  C_21
REMARK   10  A    between atoms: C_21  and  C_22
REMARK                            x       y       z     vdW  Elec       q    Type
REMARK                         _______ _______ _______ _____ _____    ______ ____
ROOT
ATOM      1  N   UNL     1       1.445   9.848  19.536  0.00  0.00    +0.000 N 
ATOM      2  C   UNL     1       0.696   9.386  20.564  0.00  0.00    +0.000 C 
ATOM      3  O   UNL     1       1.224   8.807  21.504  0.00  0.00    +0.000 OA
ATOM      4  N   UNL     1      -0.644   9.844  20.505  0.00  0.00    +0.000 N 
ATOM      5  S   UNL     1      -0.509  11.130  21.645  0.00  0.00    +0.000 S 
ATOM      6  O   UNL     1      -1.819  11.726  21.801  0.00  0.00    +0.000 OA
ATOM      7  O   UNL     1       0.332  10.855  22.794  0.00  0.00    +0.000 OA
ATOM      8  C   UNL     1       0.489  12.142  20.567  0.00  0.00    +0.000 A 
ATOM      9  C   UNL     1       0.009  13.476  20.566  0.00  0.00    +0.000 A 
ATOM     10  C   UNL     1       0.286  14.292  19.502  0.00  0.00    +0.000 A 
ATOM     11  C   UNL     1       1.152  13.795  18.523  0.00  0.00    +0.000 A 
ATOM     12  C   UNL     1       1.717  12.446  18.553  0.00  0.00    +0.000 A 
ATOM     13  C   UNL     1       1.339  11.501  19.546  0.00  0.00    +0.000 A 
ENDROOT
BRANCH   4  14
ATOM     14  C   UNL     1      -1.290  10.250  19.116  0.00  0.00    +0.000 A 
ATOM     15  C   UNL     1      -2.223  11.296  18.831  0.00  0.00    +0.000 A 
ATOM     16  C   UNL     1      -2.978  11.478  17.665  0.00  0.00    +0.000 A 
ATOM     17  C   UNL     1      -2.722  10.676  16.590  0.00  0.00    +0.000 A 
ATOM     18  C   UNL     1      -1.716   9.706  16.742  0.00  0.00    +0.000 A 
ATOM     19  C   UNL     1      -1.053   9.469  17.999  0.00  0.00    +0.000 A 
BRANCH  17  20
ATOM     20  C   UNL     1      -3.529  10.977  15.377  0.00  0.00    +0.000 C 
ATOM     21  C   UNL     1      -3.368  10.139  14.147  0.00  0.00    +0.000 C 
ATOM     22  O   UNL     1      -4.265  11.979  15.375  0.00  0.00    +0.000 OA
ENDBRANCH  17  20
ENDBRANCH   4  14
BRANCH   1  23
ATOM     23  C   UNL     1       1.402   8.631  18.530  0.00  0.00    +0.000 C 
BRANCH  23  28
ATOM     24  C   UNL     1       4.804   6.529  17.525  0.00  0.00    +0.000 A 
ATOM     25  C   UNL     1       4.884   5.474  18.413  0.00  0.00    +0.000 A 
ATOM     26  C   UNL     1       3.885   5.380  19.361  0.00  0.00    +0.000 A 
ATOM     27  C   UNL     1       2.786   6.311  19.483  0.00  0.00    +0.000 A 
ATOM     28  C   UNL     1       2.643   7.426  18.598  0.00  0.00    +0.000 A 
ATOM     29  C   UNL     1       3.700   7.453  17.597  0.00  0.00    +0.000 A 
BRANCH  24  30
ATOM     30  C   UNL     1       5.900   6.560  16.513  0.00  0.00    +0.000 C 
ATOM     31  O   UNL     1       7.021   6.976  16.769  0.00  0.00    +0.000 OA
BRANCH  30  33
ATOM     32  C   UNL     1       5.995   4.935  14.839  0.00  0.00    +0.000 C 
ATOM     33  O   UNL     1       5.460   6.187  15.290  0.00  0.00    +0.000 OA
ENDBRANCH  30  33
ENDBRANCH  24  30
BRANCH  27  34
ATOM     34  O   UNL     1       2.087   5.805  20.530  0.00  0.00    +0.000 OA
ATOM     35  C   UNL     1       2.095   4.479  20.946  0.00  0.00    +0.000 C 
ENDBRANCH  27  34
ENDBRANCH  23  28
ENDBRANCH   1  23
TORSDOF 7
ENDMDL
MODEL 2
REMARK VINA RESULT:      -8.2      0.998      1.333
REMARK  Name = 
REMARK  10 active torsions:
REMARK  status: ('A' for Active; 'I' for Inactive)
REMARK    1  A    between atoms: C_1  and  O_2
REMARK    2  A    between atoms: O_2  and  C_3
REMARK    3  A    between atoms: C_3  and  C_5
REMARK    4  A    between atoms: C_8  and  O_9
REMARK    5  A    between atoms: O_9  and  C_10
REMARK    6  A    between atoms: C_11  and  C_12
REMARK    7  A    between atoms: C_12  and  N_13
REMARK    8  A    between atoms: N_16  and  C_17
REMARK    9  A    between atoms: C_20  and  C_21
REMARK   10  A    between atoms: C_21  and  C_22
REMARK                            x       y       z     vdW  Elec       q    Type
REMARK                         _______ _______ _______ _____ _____    ______ ____
ROOT
ATOM      1  N   UNL     1       1.708   9.594  19.203  0.00  0.00    +0.000 N 
ATOM      2  C   UNL     1       1.103   8.988  20.250  0.00  0.00    +0.000 C 
ATOM      3  O   UNL     1       1.745   8.274  21.009  0.00  0.00    +0.000 OA
ATOM      4  N   UNL     1      -0.219   9.455  20.454  0.00  0.00    +0.000 N 
ATOM      5  S   UNL     1       0.110  10.558  21.737  0.00  0.00    +0.000 S 
ATOM      6  O   UNL     1      -1.149  11.129  22.168  0.00  0.00    +0.000 OA
ATOM      7  O   UNL     1       1.100  10.113  22.700  0.00  0.00    +0.000 OA
ATOM      8  C   UNL     1       0.969  11.714  20.685  0.00  0.00    +0.000 A 
ATOM      9  C   UNL     1       0.527  13.035  20.949  0.00  0.00    +0.000 A 
ATOM     10  C   UNL     1       0.670  13.998  19.985  0.00  0.00    +0.000 A 
ATOM     11  C   UNL     1       1.375  13.648  18.829  0.00  0.00    +0.000 A 
ATOM     12  C   UNL     1       1.903  12.308  18.579  0.00  0.00    +0.000 A 
ATOM     13  C   UNL     1       1.648  11.227  19.468  0.00  0.00    +0.000 A 
ENDROOT
BRANCH   4  14
ATOM     14  C   UNL     1      -1.047  10.065  19.248  0.00  0.00    +0.000 A 
ATOM     15  C   UNL     1      -1.884  11.224  19.228  0.00  0.00    +0.000 A 
ATOM     16  C   UNL     1      -2.805  11.601  18.242  0.00  0.00    +0.000 A 
ATOM     17  C   UNL     1      -2.841  10.890  17.077  0.00  0.00    +0.000 A 
ATOM     18  C   UNL     1      -1.948   9.811  16.960  0.00  0.00    +0.000 A 
ATOM     19  C   UNL     1      -1.107   9.381  18.047  0.00  0.00    +0.000 A 
BRANCH  17  20
ATOM     20  C   UNL     1      -3.808  11.395  16.065  0.00  0.00    +0.000 C 
ATOM     21  C   UNL     1      -5.106  11.994  16.508  0.00  0.00    +0.000 C 
ATOM     22  O   UNL     1      -3.560  11.230  14.859  0.00  0.00    +0.000 OA
ENDBRANCH  17  20
ENDBRANCH   4  14
BRANCH   1  23
ATOM     23  C   UNL     1       1.491   8.539  18.047  0.00  0.00    +0.000 C 
BRANCH  23  28
ATOM     24  C   UNL     1       4.860   6.367  17.078  0.00  0.00    +0.000 A 
ATOM     25  C   UNL     1       4.612   5.069  17.479  0.00  0.00    +0.000 A 
ATOM     26  C   UNL     1       3.390   4.822  18.071  0.00  0.00    +0.000 A 
ATOM     27  C   UNL     1       2.376   5.826  18.300  0.00  0.00    +0.000 A 
ATOM     28  C   UNL     1       2.568   7.190  17.912  0.00  0.00    +0.000 A 
ATOM     29  C   UNL     1       3.855   7.385  17.260  0.00  0.00    +0.000 A 
BRANCH  24  30
ATOM     30  C   UNL     1       6.188   6.563  16.426  0.00  0.00    +0.000 C 
ATOM     31  O   UNL     1       6.599   5.829  15.537  0.00  0.00    +0.000 OA
BRANCH  30  33
ATOM     32  C   UNL     1       7.753   7.106  18.071  0.00  0.00    +0.000 C 
ATOM     33  O   UNL     1       6.892   7.555  17.015  0.00  0.00    +0.000 OA
ENDBRANCH  30  33
ENDBRANCH  24  30
BRANCH  27  34
ATOM     34  O   UNL     1       1.382   5.112  18.886  0.00  0.00    +0.000 OA
ATOM     35  C   UNL     1       1.551   3.976  19.668  0.00  0.00    +0.000 C 
ENDBRANCH  27  34
ENDBRANCH  23  28
ENDBRANCH   1  23
TORSDOF 7
ENDMDL
MODEL 3
REMARK VINA RESULT:      -8.0      1.414      2.990
REMARK  Name = 
REMARK  10 active torsions:
REMARK  status: ('A' for Active; 'I' for Inactive)
REMARK    1  A    between atoms: C_1  and  O_2
REMARK    2  A    between atoms: O_2  and  C_3
REMARK    3  A    between atoms: C_3  and  C_5
REMARK    4  A    between atoms: C_8  and  O_9
REMARK    5  A    between atoms: O_9  and  C_10
REMARK    6  A    between atoms: C_11  and  C_12
REMARK    7  A    between atoms: C_12  and  N_13
REMARK    8  A    between atoms: N_16  and  C_17
REMARK    9  A    between atoms: C_20  and  C_21
REMARK   10  A    between atoms: C_21  and  C_22
REMARK                            x       y       z     vdW  Elec       q    Type
REMARK                         _______ _______ _______ _____ _____    ______ ____
ROOT
ATOM      1  N   UNL     1       1.801   9.528  19.086  0.00  0.00    +0.000 N 
ATOM      2  C   UNL     1       1.209   8.933  20.147  0.00  0.00    +0.000 C 
ATOM      3  O   UNL     1       1.857   8.215  20.896  0.00  0.00    +0.000 OA
ATOM      4  N   UNL     1      -0.104   9.416  20.374  0.00  0.00    +0.000 N 
ATOM      5  S   UNL     1       0.261  10.520  21.646  0.00  0.00    +0.000 S 
ATOM      6  O   UNL     1      -0.983  11.107  22.098  0.00  0.00    +0.000 OA
ATOM      7  O   UNL     1       1.264  10.067  22.592  0.00  0.00    +0.000 OA
ATOM      8  C   UNL     1       1.113  11.662  20.573  0.00  0.00    +0.000 A 
ATOM      9  C   UNL     1       0.691  12.989  20.839  0.00  0.00    +0.000 A 
ATOM     10  C   UNL     1       0.826  13.947  19.870  0.00  0.00    +0.000 A 
ATOM     11  C   UNL     1       1.505  13.584  18.702  0.00  0.00    +0.000 A 
ATOM     12  C   UNL     1       2.014  12.237  18.448  0.00  0.00    +0.000 A 
ATOM     13  C   UNL     1       1.763  11.163  19.346  0.00  0.00    +0.000 A 
ENDROOT
BRANCH   4  14
ATOM     14  C   UNL     1      -0.948  10.030  19.181  0.00  0.00    +0.000 A 
ATOM     15  C   UNL     1      -1.791  11.185  19.178  0.00  0.00    +0.000 A 
ATOM     16  C   UNL     1      -2.725  11.565  18.206  0.00  0.00    +0.000 A 
ATOM     17  C   UNL     1      -2.769  10.862  17.036  0.00  0.00    +0.000 A 
ATOM     18  C   UNL     1      -1.872   9.789  16.901  0.00  0.00    +0.000 A 
ATOM     19  C   UNL     1      -1.017   9.354  17.976  0.00  0.00    +0.000 A 
BRANCH  17  20
ATOM     20  C   UNL     1      -3.750  11.369  16.037  0.00  0.00    +0.000 C 
ATOM     21  C   UNL     1      -5.051  11.946  16.498  0.00  0.00    +0.000 C 
ATOM     22  O   UNL     1      -3.508  11.224  14.827  0.00  0.00    +0.000 OA
ENDBRANCH  17  20
ENDBRANCH   4  14
BRANCH   1  23
ATOM     23  C   UNL     1       1.550   8.471  17.939  0.00  0.00    +0.000 C 
BRANCH  23  28
ATOM     24  C   UNL     1       2.384   4.458  18.390  0.00  0.00    +0.000 A 
ATOM     25  C   UNL     1       3.722   4.304  18.085  0.00  0.00    +0.000 A 
ATOM     26  C   UNL     1       4.413   5.442  17.722  0.00  0.00    +0.000 A 
ATOM     27  C   UNL     1       3.827   6.760  17.635  0.00  0.00    +0.000 A 
ATOM     28  C   UNL     1       2.447   6.990  17.935  0.00  0.00    +0.000 A 
ATOM     29  C   UNL     1       1.778   5.766  18.347  0.00  0.00    +0.000 A 
BRANCH  24  30
ATOM     30  C   UNL     1       1.700   3.195  18.796  0.00  0.00    +0.000 C 
ATOM     31  O   UNL     1       0.689   2.786  18.241  0.00  0.00    +0.000 OA
BRANCH  30  33
ATOM     32  C   UNL     1       1.607   3.003  21.121  0.00  0.00    +0.000 C 
ATOM     33  O   UNL     1       2.268   2.652  19.897  0.00  0.00    +0.000 OA
ENDBRANCH  30  33
ENDBRANCH  24  30
BRANCH  27  34
ATOM     34  O   UNL     1       4.880   7.526  17.255  0.00  0.00    +0.000 OA
ATOM     35  C   UNL     1       6.209   7.119  17.221  0.00  0.00    +0.000 C 
ENDBRANCH  27  34
ENDBRANCH  23  28
ENDBRANCH   1  23
TORSDOF 7
ENDMDL
MODEL 4
REMARK VINA RESULT:      -8.0      2.268      4.713
REMARK  Name = 
REMARK  10 active torsions:
REMARK  status: ('A' for Active; 'I' for Inactive)
REMARK    1  A    between atoms: C_1  and  O_2
REMARK    2  A    between atoms: O_2  and  C_3
REMARK    3  A    between atoms: C_3  and  C_5
REMARK    4  A    between atoms: C_8  and  O_9
REMARK    5  A    between atoms: O_9  and  C_10
REMARK    6  A    between atoms: C_11  and  C_12
REMARK    7  A    between atoms: C_12  and  N_13
REMARK    8  A    between atoms: N_16  and  C_17
REMARK    9  A    between atoms: C_20  and  C_21
REMARK   10  A    between atoms: C_21  and  C_22
REMARK                            x       y       z     vdW  Elec       q    Type
REMARK                         _______ _______ _______ _____ _____    ______ ____
ROOT
ATOM      1  N   UNL     1       0.255   9.722  18.943  0.00  0.00    +0.000 N 
ATOM      2  C   UNL     1      -0.477  10.490  18.104  0.00  0.00    +0.000 C 
ATOM      3  O   UNL     1      -1.191   9.974  17.255  0.00  0.00    +0.000 OA
ATOM      4  N   UNL     1      -0.473  11.856  18.481  0.00  0.00    +0.000 N 
ATOM      5  S   UNL     1      -2.001  11.891  19.277  0.00  0.00    +0.000 S 
ATOM      6  O   UNL     1      -2.249  13.251  19.707  0.00  0.00    +0.000 OA
ATOM      7  O   UNL     1      -3.044  11.100  18.653  0.00  0.00    +0.000 OA
ATOM      8  C   UNL     1      -1.439  10.915  20.660  0.00  0.00    +0.000 A 
ATOM      9  C   UNL     1      -1.871  11.498  21.877  0.00  0.00    +0.000 A 
ATOM     10  C   UNL     1      -1.191  11.225  23.035  0.00  0.00    +0.000 A 
ATOM     11  C   UNL     1      -0.175  10.266  22.969  0.00  0.00    +0.000 A 
ATOM     12  C   UNL     1       0.228   9.598  21.732  0.00  0.00    +0.000 A 
ATOM     13  C   UNL     1      -0.331   9.958  20.474  0.00  0.00    +0.000 A 
ENDROOT
BRANCH   4  14
ATOM     14  C   UNL     1       0.730  12.450  19.324  0.00  0.00    +0.000 A 
ATOM     15  C   UNL     1       0.731  12.939  20.668  0.00  0.00    +0.000 A 
ATOM     16  C   UNL     1       1.724  13.693  21.307  0.00  0.00    +0.000 A 
ATOM     17  C   UNL     1       2.912  13.886  20.663  0.00  0.00    +0.000 A 
ATOM     18  C   UNL     1       3.045  13.317  19.385  0.00  0.00    +0.000 A 
ATOM     19  C   UNL     1       1.955  12.657  18.713  0.00  0.00    +0.000 A 
BRANCH  17  20
ATOM     20  C   UNL     1       3.929  14.648  21.438  0.00  0.00    +0.000 C 
ATOM     21  C   UNL     1       5.033  15.358  20.720  0.00  0.00    +0.000 C 
ATOM     22  O   UNL     1       3.894  14.610  22.679  0.00  0.00    +0.000 OA
ENDBRANCH  17  20
ENDBRANCH   4  14
BRANCH   1  23
ATOM     23  C   UNL     1       1.627   9.609  18.168  0.00  0.00    +0.000 C 
BRANCH  23  28
ATOM     24  C   UNL     1       4.497   6.769  17.330  0.00  0.00    +0.000 A 
ATOM     25  C   UNL     1       4.327   5.761  18.259  0.00  0.00    +0.000 A 
ATOM     26  C   UNL     1       3.316   5.930  19.184  0.00  0.00    +0.000 A 
ATOM     27  C   UNL     1       2.447   7.084  19.242  0.00  0.00    +0.000 A 
ATOM     28  C   UNL     1       2.570   8.165  18.313  0.00  0.00    +0.000 A 
ATOM     29  C   UNL     1       3.623   7.916  17.340  0.00  0.00    +0.000 A 
BRANCH  24  30
ATOM     30  C   UNL     1       5.589   6.515  16.346  0.00  0.00    +0.000 C 
ATOM     31  O   UNL     1       5.388   6.454  15.141  0.00  0.00    +0.000 OA
BRANCH  30  33
ATOM     32  C   UNL     1       7.437   7.429  17.441  0.00  0.00    +0.000 C 
ATOM     33  O   UNL     1       6.765   6.256  16.961  0.00  0.00    +0.000 OA
ENDBRANCH  30  33
ENDBRANCH  24  30
BRANCH  27  34
ATOM     34  O   UNL     1       1.637   6.789  20.289  0.00  0.00    +0.000 OA
ATOM     35  C   UNL     1       1.494   5.538  20.878  0.00  0.00    +0.000 C 
ENDBRANCH  27  34
ENDBRANCH  23  28
ENDBRANCH   1  23
TORSDOF 7
ENDMDL
MODEL 5
REMARK VINA RESULT:      -7.9      4.686      8.159
REMARK  Name = 
REMARK  10 active torsions:
REMARK  status: ('A' for Active; 'I' for Inactive)
REMARK    1  A    between atoms: C_1  and  O_2
REMARK    2  A    between atoms: O_2  and  C_3
REMARK    3  A    between atoms: C_3  and  C_5
REMARK    4  A    between atoms: C_8  and  O_9
REMARK    5  A    between atoms: O_9  and  C_10
REMARK    6  A    between atoms: C_11  and  C_12
REMARK    7  A    between atoms: C_12  and  N_13
REMARK    8  A    between atoms: N_16  and  C_17
REMARK    9  A    between atoms: C_20  and  C_21
REMARK   10  A    between atoms: C_21  and  C_22
REMARK                            x       y       z     vdW  Elec       q    Type
REMARK                         _______ _______ _______ _____ _____    ______ ____
ROOT
ATOM      1  N   UNL     1       0.207  12.774  18.890  0.00  0.00    +0.000 N 
ATOM      2  C   UNL     1       1.321  12.292  19.488  0.00  0.00    +0.000 C 
ATOM      3  O   UNL     1       2.228  11.818  18.817  0.00  0.00    +0.000 OA
ATOM      4  N   UNL     1       1.374  12.610  20.868  0.00  0.00    +0.000 N 
ATOM      5  S   UNL     1       2.441  13.960  20.763  0.00  0.00    +0.000 S 
ATOM      6  O   UNL     1       2.700  14.429  22.108  0.00  0.00    +0.000 OA
ATOM      7  O   UNL     1       3.513  13.830  19.795  0.00  0.00    +0.000 OA
ATOM      8  C   UNL     1       1.230  15.010  19.981  0.00  0.00    +0.000 A 
ATOM      9  C   UNL     1       1.221  16.288  20.596  0.00  0.00    +0.000 A 
ATOM     10  C   UNL     1       0.102  17.072  20.506  0.00  0.00    +0.000 A 
ATOM     11  C   UNL     1      -0.935  16.614  19.686  0.00  0.00    +0.000 A 
ATOM     12  C   UNL     1      -0.905  15.333  18.983  0.00  0.00    +0.000 A 
ATOM     13  C   UNL     1       0.158  14.406  19.166  0.00  0.00    +0.000 A 
ENDROOT
BRANCH   4  14
ATOM     14  C   UNL     1       0.039  12.878  21.679  0.00  0.00    +0.000 A 
ATOM     15  C   UNL     1      -0.377  14.066  22.359  0.00  0.00    +0.000 A 
ATOM     16  C   UNL     1      -1.422  14.207  23.280  0.00  0.00    +0.000 A 
ATOM     17  C   UNL     1      -2.265  13.151  23.475  0.00  0.00    +0.000 A 
ATOM     18  C   UNL     1      -2.008  11.983  22.738  0.00  0.00    +0.000 A 
ATOM     19  C   UNL     1      -0.847  11.838  21.897  0.00  0.00    +0.000 A 
BRANCH  17  20
ATOM     20  C   UNL     1      -3.381  13.408  24.427  0.00  0.00    +0.000 C 
ATOM     21  C   UNL     1      -4.438  12.369  24.633  0.00  0.00    +0.000 C 
ATOM     22  O   UNL     1      -3.465  14.521  24.972  0.00  0.00    +0.000 OA
ENDBRANCH  17  20
ENDBRANCH   4  14
BRANCH   1  23
ATOM     23  C   UNL     1      -0.739  11.508  18.899  0.00  0.00    +0.000 C 
BRANCH  23  28
ATOM     24  C   UNL     1      -4.796  12.240  19.014  0.00  0.00    +0.000 A 
ATOM     25  C   UNL     1      -5.274  11.972  17.747  0.00  0.00    +0.000 A 
ATOM     26  C   UNL     1      -4.351  11.558  16.807  0.00  0.00    +0.000 A 
ATOM     27  C   UNL     1      -2.937  11.402  17.065  0.00  0.00    +0.000 A 
ATOM     28  C   UNL     1      -2.375  11.665  18.354  0.00  0.00    +0.000 A 
ATOM     29  C   UNL     1      -3.397  12.059  19.313  0.00  0.00    +0.000 A 
BRANCH  24  30
ATOM     30  C   UNL     1      -5.846  12.659  19.988  0.00  0.00    +0.000 C 
ATOM     31  O   UNL     1      -6.970  12.175  19.993  0.00  0.00    +0.000 OA
BRANCH  30  33
ATOM     32  C   UNL     1      -5.877  14.974  20.290  0.00  0.00    +0.000 C 
ATOM     33  O   UNL     1      -5.431  13.692  20.755  0.00  0.00    +0.000 OA
ENDBRANCH  30  33
ENDBRANCH  24  30
BRANCH  27  34
ATOM     34  O   UNL     1      -2.464  10.983  15.865  0.00  0.00    +0.000 OA
ATOM     35  C   UNL     1      -3.126  10.137  14.982  0.00  0.00    +0.000 C 
ENDBRANCH  27  34
ENDBRANCH  23  28
ENDBRANCH   1  23
TORSDOF 7
ENDMDL
MODEL 6
REMARK VINA RESULT:      -7.6      4.864      8.447
REMARK  Name = 
REMARK  10 active torsions:
REMARK  status: ('A' for Active; 'I' for Inactive)
REMARK    1  A    between atoms: C_1  and  O_2
REMARK    2  A    between atoms: O_2  and  C_3
REMARK    3  A    between atoms: C_3  and  C_5
REMARK    4  A    between atoms: C_8  and  O_9
REMARK    5  A    between atoms: O_9  and  C_10
REMARK    6  A    between atoms: C_11  and  C_12
REMARK    7  A    between atoms: C_12  and  N_13
REMARK    8  A    between atoms: N_16  and  C_17
REMARK    9  A    between atoms: C_20  and  C_21
REMARK   10  A    between atoms: C_21  and  C_22
REMARK                            x       y       z     vdW  Elec       q    Type
REMARK                         _______ _______ _______ _____ _____    ______ ____
ROOT
ATOM      1  N   UNL     1       0.348  13.099  18.819  0.00  0.00    +0.000 N 
ATOM      2  C   UNL     1       1.555  12.681  19.266  0.00  0.00    +0.000 C 
ATOM      3  O   UNL     1       2.297  12.036  18.537  0.00  0.00    +0.000 OA
ATOM      4  N   UNL     1       1.897  13.258  20.514  0.00  0.00    +0.000 N 
ATOM      5  S   UNL     1       2.939  14.500  19.928  0.00  0.00    +0.000 S 
ATOM      6  O   UNL     1       3.478  15.207  21.071  0.00  0.00    +0.000 OA
ATOM      7  O   UNL     1       3.786  14.125  18.811  0.00  0.00    +0.000 OA
ATOM      8  C   UNL     1       1.608  15.444  19.208  0.00  0.00    +0.000 A 
ATOM      9  C   UNL     1       1.745  16.815  19.541  0.00  0.00    +0.000 A 
ATOM     10  C   UNL     1       0.643  17.628  19.520  0.00  0.00    +0.000 A 
ATOM     11  C   UNL     1      -0.549  17.078  19.035  0.00  0.00    +0.000 A 
ATOM     12  C   UNL     1      -0.683  15.685  18.613  0.00  0.00    +0.000 A 
ATOM     13  C   UNL     1       0.382  14.753  18.763  0.00  0.00    +0.000 A 
ENDROOT
BRANCH   4  14
ATOM     14  C   UNL     1       0.764  13.753  21.504  0.00  0.00    +0.000 A 
ATOM     15  C   UNL     1       0.615  15.028  22.135  0.00  0.00    +0.000 A 
ATOM     16  C   UNL     1      -0.233  15.367  23.198  0.00  0.00    +0.000 A 
ATOM     17  C   UNL     1      -1.148  14.446  23.621  0.00  0.00    +0.000 A 
ATOM     18  C   UNL     1      -1.161  13.207  22.957  0.00  0.00    +0.000 A 
ATOM     19  C   UNL     1      -0.188  12.856  21.955  0.00  0.00    +0.000 A 
BRANCH  17  20
ATOM     20  C   UNL     1      -2.045  14.910  24.714  0.00  0.00    +0.000 C 
ATOM     21  C   UNL     1      -1.470  15.631  25.893  0.00  0.00    +0.000 C 
ATOM     22  O   UNL     1      -3.250  14.614  24.673  0.00  0.00    +0.000 OA
ENDBRANCH  17  20
ENDBRANCH   4  14
BRANCH   1  23
ATOM     23  C   UNL     1      -0.594  11.914  19.272  0.00  0.00    +0.000 C 
BRANCH  23  28
ATOM     24  C   UNL     1      -4.692  12.349  19.381  0.00  0.00    +0.000 A 
ATOM     25  C   UNL     1      -5.161  11.909  18.159  0.00  0.00    +0.000 A 
ATOM     26  C   UNL     1      -4.219  11.464  17.253  0.00  0.00    +0.000 A 
ATOM     27  C   UNL     1      -2.795  11.443  17.501  0.00  0.00    +0.000 A 
ATOM     28  C   UNL     1      -2.242  11.887  18.743  0.00  0.00    +0.000 A 
ATOM     29  C   UNL     1      -3.281  12.307  19.672  0.00  0.00    +0.000 A 
BRANCH  24  30
ATOM     30  C   UNL     1      -5.762  12.794  20.321  0.00  0.00    +0.000 C 
ATOM     31  O   UNL     1      -6.506  13.733  20.075  0.00  0.00    +0.000 OA
BRANCH  30  33
ATOM     32  C   UNL     1      -5.565  12.951  22.642  0.00  0.00    +0.000 C 
ATOM     33  O   UNL     1      -5.715  12.112  21.488  0.00  0.00    +0.000 OA
ENDBRANCH  30  33
ENDBRANCH  24  30
BRANCH  27  34
ATOM     34  O   UNL     1      -2.303  10.930  16.345  0.00  0.00    +0.000 OA
ATOM     35  C   UNL     1      -3.043  10.647  15.203  0.00  0.00    +0.000 C 
ENDBRANCH  27  34
ENDBRANCH  23  28
ENDBRANCH   1  23
TORSDOF 7
ENDMDL
MODEL 7
REMARK VINA RESULT:      -7.6      1.107      2.835
REMARK  Name = 
REMARK  10 active torsions:
REMARK  status: ('A' for Active; 'I' for Inactive)
REMARK    1  A    between atoms: C_1  and  O_2
REMARK    2  A    between atoms: O_2  and  C_3
REMARK    3  A    between atoms: C_3  and  C_5
REMARK    4  A    between atoms: C_8  and  O_9
REMARK    5  A    between atoms: O_9  and  C_10
REMARK    6  A    between atoms: C_11  and  C_12
REMARK    7  A    between atoms: C_12  and  N_13
REMARK    8  A    between atoms: N_16  and  C_17
REMARK    9  A    between atoms: C_20  and  C_21
REMARK   10  A    between atoms: C_21  and  C_22
REMARK                            x       y       z     vdW  Elec       q    Type
REMARK                         _______ _______ _______ _____ _____    ______ ____
ROOT
ATOM      1  N   UNL     1       1.654   9.610  19.382  0.00  0.00    +0.000 N 
ATOM      2  C   UNL     1       0.957   9.143  20.444  0.00  0.00    +0.000 C 
ATOM      3  O   UNL     1       1.526   8.527  21.335  0.00  0.00    +0.000 OA
ATOM      4  N   UNL     1      -0.370   9.637  20.478  0.00  0.00    +0.000 N 
ATOM      5  S   UNL     1      -0.131  10.890  21.637  0.00  0.00    +0.000 S 
ATOM      6  O   UNL     1      -1.412  11.516  21.888  0.00  0.00    +0.000 OA
ATOM      7  O   UNL     1       0.771  10.565  22.726  0.00  0.00    +0.000 OA
ATOM      8  C   UNL     1       0.827  11.902  20.524  0.00  0.00    +0.000 A 
ATOM      9  C   UNL     1       0.384  13.248  20.584  0.00  0.00    +0.000 A 
ATOM     10  C   UNL     1       0.618  14.082  19.524  0.00  0.00    +0.000 A 
ATOM     11  C   UNL     1       1.409  13.587  18.481  0.00  0.00    +0.000 A 
ATOM     12  C   UNL     1       1.937  12.225  18.445  0.00  0.00    +0.000 A 
ATOM     13  C   UNL     1       1.595  11.264  19.437  0.00  0.00    +0.000 A 
ENDROOT
BRANCH   4  14
ATOM     14  C   UNL     1      -1.089  10.094  19.142  0.00  0.00    +0.000 A 
ATOM     15  C   UNL     1      -2.003  11.175  18.938  0.00  0.00    +0.000 A 
ATOM     16  C   UNL     1      -2.824  11.407  17.826  0.00  0.00    +0.000 A 
ATOM     17  C   UNL     1      -2.662  10.621  16.722  0.00  0.00    +0.000 A 
ATOM     18  C   UNL     1      -1.682   9.617  16.790  0.00  0.00    +0.000 A 
ATOM     19  C   UNL     1      -0.949   9.331  17.996  0.00  0.00    +0.000 A 
BRANCH  17  20
ATOM     20  C   UNL     1      -3.534  10.975  15.568  0.00  0.00    +0.000 C 
ATOM     21  C   UNL     1      -3.331  10.303  14.247  0.00  0.00    +0.000 C 
ATOM     22  O   UNL     1      -4.364  11.891  15.698  0.00  0.00    +0.000 OA
ENDBRANCH  17  20
ENDBRANCH   4  14
BRANCH   1  23
ATOM     23  C   UNL     1       1.516   8.420  18.353  0.00  0.00    +0.000 C 
BRANCH  23  28
ATOM     24  C   UNL     1       2.674   4.670  19.618  0.00  0.00    +0.000 A 
ATOM     25  C   UNL     1       3.948   4.471  19.124  0.00  0.00    +0.000 A 
ATOM     26  C   UNL     1       4.493   5.495  18.376  0.00  0.00    +0.000 A 
ATOM     27  C   UNL     1       3.816   6.735  18.074  0.00  0.00    +0.000 A 
ATOM     28  C   UNL     1       2.494   7.006  18.551  0.00  0.00    +0.000 A 
ATOM     29  C   UNL     1       1.985   5.912  19.365  0.00  0.00    +0.000 A 
BRANCH  24  30
ATOM     30  C   UNL     1       2.152   3.537  20.437  0.00  0.00    +0.000 C 
ATOM     31  O   UNL     1       2.837   2.954  21.266  0.00  0.00    +0.000 OA
BRANCH  30  33
ATOM     32  C   UNL     1       0.855   2.394  18.869  0.00  0.00    +0.000 C 
ATOM     33  O   UNL     1       0.901   3.186  20.064  0.00  0.00    +0.000 OA
ENDBRANCH  30  33
ENDBRANCH  24  30
BRANCH  27  34
ATOM     34  O   UNL     1       4.738   7.402  17.336  0.00  0.00    +0.000 OA
ATOM     35  C   UNL     1       6.039   6.980  17.088  0.00  0.00    +0.000 C 
ENDBRANCH  27  34
ENDBRANCH  23  28
ENDBRANCH   1  23
TORSDOF 7
ENDMDL
MODEL 8
REMARK VINA RESULT:      -7.5      4.609      9.246
REMARK  Name = 
REMARK  10 active torsions:
REMARK  status: ('A' for Active; 'I' for Inactive)
REMARK    1  A    between atoms: C_1  and  O_2
REMARK    2  A    between atoms: O_2  and  C_3
REMARK    3  A    between atoms: C_3  and  C_5
REMARK    4  A    between atoms: C_8  and  O_9
REMARK    5  A    between atoms: O_9  and  C_10
REMARK    6  A    between atoms: C_11  and  C_12
REMARK    7  A    between atoms: C_12  and  N_13
REMARK    8  A    between atoms: N_16  and  C_17
REMARK    9  A    between atoms: C_20  and  C_21
REMARK   10  A    between atoms: C_21  and  C_22
REMARK                            x       y       z     vdW  Elec       q    Type
REMARK                         _______ _______ _______ _____ _____    ______ ____
ROOT
ATOM      1  N   UNL     1      -1.581  11.934  21.916  0.00  0.00    +0.000 N 
ATOM      2  C   UNL     1      -0.275  11.608  22.056  0.00  0.00    +0.000 C 
ATOM      3  O   UNL     1       0.066  10.741  22.849  0.00  0.00    +0.000 OA
ATOM      4  N   UNL     1       0.540  12.204  21.061  0.00  0.00    +0.000 N 
ATOM      5  S   UNL     1       0.677  10.842  20.014  0.00  0.00    +0.000 S 
ATOM      6  O   UNL     1       1.549  11.208  18.918  0.00  0.00    +0.000 OA
ATOM      7  O   UNL     1       0.806   9.559  20.678  0.00  0.00    +0.000 OA
ATOM      8  C   UNL     1      -1.024  10.925  19.484  0.00  0.00    +0.000 A 
ATOM      9  C   UNL     1      -1.104  10.788  18.076  0.00  0.00    +0.000 A 
ATOM     10  C   UNL     1      -2.196  11.282  17.412  0.00  0.00    +0.000 A 
ATOM     11  C   UNL     1      -3.246  11.781  18.189  0.00  0.00    +0.000 A 
ATOM     12  C   UNL     1      -3.207  11.855  19.648  0.00  0.00    +0.000 A 
ATOM     13  C   UNL     1      -2.040  11.508  20.383  0.00  0.00    +0.000 A 
ENDROOT
BRANCH   4  14
ATOM     14  C   UNL     1       0.084  13.545  20.351  0.00  0.00    +0.000 A 
ATOM     15  C   UNL     1      -0.004  13.839  18.954  0.00  0.00    +0.000 A 
ATOM     16  C   UNL     1      -0.155  15.092  18.347  0.00  0.00    +0.000 A 
ATOM     17  C   UNL     1      -0.397  16.176  19.142  0.00  0.00    +0.000 A 
ATOM     18  C   UNL     1      -0.464  15.950  20.527  0.00  0.00    +0.000 A 
ATOM     19  C   UNL     1      -0.177  14.668  21.117  0.00  0.00    +0.000 A 
BRANCH  17  20
ATOM     20  C   UNL     1      -0.601  17.456  18.410  0.00  0.00    +0.000 C 
ATOM     21  C   UNL     1       0.485  17.993  17.532  0.00  0.00    +0.000 C 
ATOM     22  O   UNL     1      -1.641  18.105  18.608  0.00  0.00    +0.000 OA
ENDBRANCH  17  20
ENDBRANCH   4  14
BRANCH   1  23
ATOM     23  C   UNL     1      -1.732  13.121  22.947  0.00  0.00    +0.000 C 
BRANCH  23  28
ATOM     24  C   UNL     1      -5.817  13.507  23.351  0.00  0.00    +0.000 A 
ATOM     25  C   UNL     1      -6.070  14.860  23.454  0.00  0.00    +0.000 A 
ATOM     26  C   UNL     1      -4.978  15.704  23.407  0.00  0.00    +0.000 A 
ATOM     27  C   UNL     1      -3.609  15.260  23.269  0.00  0.00    +0.000 A 
ATOM     28  C   UNL     1      -3.277  13.873  23.159  0.00  0.00    +0.000 A 
ATOM     29  C   UNL     1      -4.466  13.034  23.176  0.00  0.00    +0.000 A 
BRANCH  24  30
ATOM     30  C   UNL     1      -7.040  12.652  23.386  0.00  0.00    +0.000 C 
ATOM     31  O   UNL     1      -7.916  12.791  24.228  0.00  0.00    +0.000 OA
BRANCH  30  33
ATOM     32  C   UNL     1      -7.537  12.035  21.189  0.00  0.00    +0.000 C 
ATOM     33  O   UNL     1      -6.986  11.666  22.462  0.00  0.00    +0.000 OA
ENDBRANCH  30  33
ENDBRANCH  24  30
BRANCH  27  34
ATOM     34  O   UNL     1      -2.921  16.428  23.267  0.00  0.00    +0.000 OA
ATOM     35  C   UNL     1      -1.772  16.695  24.003  0.00  0.00    +0.000 C 
ENDBRANCH  27  34
ENDBRANCH  23  28
ENDBRANCH   1  23
TORSDOF 7
ENDMDL
MODEL 9
REMARK VINA RESULT:      -7.4      4.286      9.206
REMARK  Name = 
REMARK  10 active torsions:
REMARK  status: ('A' for Active; 'I' for Inactive)
REMARK    1  A    between atoms: C_1  and  O_2
REMARK    2  A    between atoms: O_2  and  C_3
REMARK    3  A    between atoms: C_3  and  C_5
REMARK    4  A    between atoms: C_8  and  O_9
REMARK    5  A    between atoms: O_9  and  C_10
REMARK    6  A    between atoms: C_11  and  C_12
REMARK    7  A    between atoms: C_12  and  N_13
REMARK    8  A    between atoms: N_16  and  C_17
REMARK    9  A    between atoms: C_20  and  C_21
REMARK   10  A    between atoms: C_21  and  C_22
REMARK                            x       y       z     vdW  Elec       q    Type
REMARK                         _______ _______ _______ _____ _____    ______ ____
ROOT
ATOM      1  N   UNL     1      -0.985  12.014  21.854  0.00  0.00    +0.000 N 
ATOM      2  C   UNL     1      -0.058  11.106  22.237  0.00  0.00    +0.000 C 
ATOM      3  O   UNL     1      -0.273  10.363  23.185  0.00  0.00    +0.000 OA
ATOM      4  N   UNL     1       1.006  10.996  21.307  0.00  0.00    +0.000 N 
ATOM      5  S   UNL     1       0.466   9.577  20.491  0.00  0.00    +0.000 S 
ATOM      6  O   UNL     1       1.464   9.224  19.502  0.00  0.00    +0.000 OA
ATOM      7  O   UNL     1      -0.140   8.567  21.338  0.00  0.00    +0.000 OA
ATOM      8  C   UNL     1      -0.901  10.405  19.700  0.00  0.00    +0.000 A 
ATOM      9  C   UNL     1      -0.958  10.052  18.328  0.00  0.00    +0.000 A 
ATOM     10  C   UNL     1      -1.584  10.888  17.442  0.00  0.00    +0.000 A 
ATOM     11  C   UNL     1      -2.257  11.994  17.972  0.00  0.00    +0.000 A 
ATOM     12  C   UNL     1      -2.272  12.325  19.396  0.00  0.00    +0.000 A 
ATOM     13  C   UNL     1      -1.508  11.587  20.342  0.00  0.00    +0.000 A 
ENDROOT
BRANCH   4  14
ATOM     14  C   UNL     1       1.368  12.212  20.358  0.00  0.00    +0.000 A 
ATOM     15  C   UNL     1       1.648  12.205  18.955  0.00  0.00    +0.000 A 
ATOM     16  C   UNL     1       2.216  13.230  18.188  0.00  0.00    +0.000 A 
ATOM     17  C   UNL     1       2.406  14.451  18.770  0.00  0.00    +0.000 A 
ATOM     18  C   UNL     1       2.027  14.583  20.116  0.00  0.00    +0.000 A 
ATOM     19  C   UNL     1       1.565  13.468  20.903  0.00  0.00    +0.000 A 
BRANCH  17  20
ATOM     20  C   UNL     1       2.960  15.496  17.866  0.00  0.00    +0.000 C 
ATOM     21  C   UNL     1       2.305  16.840  17.792  0.00  0.00    +0.000 C 
ATOM     22  O   UNL     1       3.909  15.207  17.119  0.00  0.00    +0.000 OA
ENDBRANCH  17  20
ENDBRANCH   4  14
BRANCH   1  23
ATOM     23  C   UNL     1      -0.548  13.291  22.676  0.00  0.00    +0.000 C 
BRANCH  23  28
ATOM     24  C   UNL     1      -4.232  14.689  23.894  0.00  0.00    +0.000 A 
ATOM     25  C   UNL     1      -3.991  15.548  24.948  0.00  0.00    +0.000 A 
ATOM     26  C   UNL     1      -2.673  15.720  25.323  0.00  0.00    +0.000 A 
ATOM     27  C   UNL     1      -1.553  15.058  24.695  0.00  0.00    +0.000 A 
ATOM     28  C   UNL     1      -1.731  14.154  23.599  0.00  0.00    +0.000 A 
ATOM     29  C   UNL     1      -3.132  14.041  23.222  0.00  0.00    +0.000 A 
BRANCH  24  30
ATOM     30  C   UNL     1      -5.672  14.565  23.523  0.00  0.00    +0.000 C 
ATOM     31  O   UNL     1      -6.432  15.523  23.506  0.00  0.00    +0.000 OA
BRANCH  30  33
ATOM     32  C   UNL     1      -7.246  12.907  23.996  0.00  0.00    +0.000 C 
ATOM     33  O   UNL     1      -6.029  13.275  23.332  0.00  0.00    +0.000 OA
ENDBRANCH  30  33
ENDBRANCH  24  30
BRANCH  27  34
ATOM     34  O   UNL     1      -0.496  15.542  25.393  0.00  0.00    +0.000 OA
ATOM     35  C   UNL     1      -0.554  16.125  26.654  0.00  0.00    +0.000 C 
ENDBRANCH  27  34
ENDBRANCH  23  28
ENDBRANCH   1  23
TORSDOF 7
ENDMDL
