MODEL 1
REMARK VINA RESULT:      -8.1      0.000      0.000
REMARK  Name = 
REMARK  8 active torsions:
REMARK  status: ('A' for Active; 'I' for Inactive)
REMARK    1  A    between atoms: C_1  and  N_2
REMARK    2  A    between atoms: N_2  and  C_3
REMARK    3  A    between atoms: N_2  and  C_4
REMARK    4  A    between atoms: C_7  and  C_8
REMARK    5  A    between atoms: C_14  and  C_15
REMARK    6  A    between atoms: N_19  and  C_20
REMARK    7  A    between atoms: C_20  and  C_21
REMARK    8  A    between atoms: C_21  and  N_22
REMARK                            x       y       z     vdW  Elec       q    Type
REMARK                         _______ _______ _______ _____ _____    ______ ____
ROOT
ATOM      1  C   UNL     1      -0.157  12.799  21.600  0.00  0.00    +0.000 A 
ATOM      2  C   UNL     1      -0.911  12.966  22.758  0.00  0.00    +0.000 A 
ATOM      3  N   UNL     1      -1.197  11.775  23.376  0.00  0.00    +0.000 NA
ATOM      4  C   UNL     1      -0.619  10.880  22.613  0.00  0.00    +0.000 A 
ATOM      5  C   UNL     1      -0.605   9.453  22.776  0.00  0.00    +0.000 A 
ATOM      6  N   UNL     1       0.029   8.670  21.943  0.00  0.00    +0.000 NA
ATOM      7  C   UNL     1       0.714   9.268  20.898  0.00  0.00    +0.000 A 
ATOM      8  C   UNL     1       0.755  10.599  20.690  0.00  0.00    +0.000 A 
ATOM      9  N   UNL     1       0.050  11.427  21.548  0.00  0.00    +0.000 N 
ENDROOT
BRANCH   7  10
ATOM     10  C   UNL     1       1.454   8.411  19.970  0.00  0.00    +0.000 A 
ATOM     11  C   UNL     1       1.773   8.826  18.681  0.00  0.00    +0.000 A 
ATOM     12  C   UNL     1       2.554   8.002  17.870  0.00  0.00    +0.000 A 
ATOM     13  C   UNL     1       2.969   6.762  18.349  0.00  0.00    +0.000 A 
ATOM     14  N   UNL     1       3.785   5.972  17.524  0.00  0.00    +0.000 N 
ATOM     15  N   UNL     1       2.659   6.347  19.593  0.00  0.00    +0.000 NA
ATOM     16  C   UNL     1       1.923   7.170  20.374  0.00  0.00    +0.000 A 
ATOM     17  H   UNL     1       4.704   6.408  17.498  0.00  0.00    +0.000 HD
BRANCH  14  18
ATOM     18  C   UNL     1       3.869   4.555  17.899  0.00  0.00    +0.000 C 
BRANCH  18  19
ATOM     19  C   UNL     1       2.591   3.815  17.434  0.00  0.00    +0.000 C 
BRANCH  19  20
ATOM     20  N   UNL     1       2.398   2.471  18.016  0.00  0.00    +0.000 NA
ATOM     21  C   UNL     1       1.062   2.349  18.649  0.00  0.00    +0.000 C 
ATOM     22  C   UNL     1       0.932   3.064  20.008  0.00  0.00    +0.000 C 
ATOM     23  O   UNL     1       1.945   2.641  20.927  0.00  0.00    +0.000 OA
ATOM     24  C   UNL     1       3.252   2.845  20.376  0.00  0.00    +0.000 C 
ATOM     25  C   UNL     1       3.410   2.114  19.034  0.00  0.00    +0.000 C 
ENDBRANCH  19  20
ENDBRANCH  18  19
ENDBRANCH  14  18
ENDBRANCH   7  10
BRANCH   1  29
ATOM     26  C   UNL     1       1.265  15.848  18.861  0.00  0.00    +0.000 A 
ATOM     27  C   UNL     1       2.074  15.306  19.872  0.00  0.00    +0.000 A 
ATOM     28  C   UNL     1       1.615  14.307  20.746  0.00  0.00    +0.000 A 
ATOM     29  C   UNL     1       0.318  13.801  20.644  0.00  0.00    +0.000 A 
ATOM     30  C   UNL     1      -0.500  14.325  19.644  0.00  0.00    +0.000 A 
ATOM     31  C   UNL     1      -0.027  15.309  18.763  0.00  0.00    +0.000 A 
BRANCH  26  33
ATOM     32  C   UNL     1       3.042  16.775  17.409  0.00  0.00    +0.000 C 
ATOM     33  N   UNL     1       1.712  16.850  18.003  0.00  0.00    +0.000 N 
ATOM     34  C   UNL     1       1.045  18.147  17.986  0.00  0.00    +0.000 C 
ENDBRANCH  26  33
ENDBRANCH   1  29
TORSDOF 6
ENDMDL
MODEL 2
REMARK VINA RESULT:      -8.1      3.399      9.985
REMARK  Name = 
REMARK  8 active torsions:
REMARK  status: ('A' for Active; 'I' for Inactive)
REMARK    1  A    between atoms: C_1  and  N_2
REMARK    2  A    between atoms: N_2  and  C_3
REMARK    3  A    between atoms: N_2  and  C_4
REMARK    4  A    between atoms: C_7  and  C_8
REMARK    5  A    between atoms: C_14  and  C_15
REMARK    6  A    between atoms: N_19  and  C_20
REMARK    7  A    between atoms: C_20  and  C_21
REMARK    8  A    between atoms: C_21  and  N_22
REMARK                            x       y       z     vdW  Elec       q    Type
REMARK                         _______ _______ _______ _____ _____    ______ ____
ROOT
ATOM      1  C   UNL     1       4.414   3.797  18.234  0.00  0.00    +0.000 A 
ATOM      2  C   UNL     1       4.357   2.642  19.010  0.00  0.00    +0.000 A 
ATOM      3  N   UNL     1       3.578   2.799  20.129  0.00  0.00    +0.000 NA
ATOM      4  C   UNL     1       3.150   4.035  20.042  0.00  0.00    +0.000 A 
ATOM      5  C   UNL     1       2.302   4.745  20.957  0.00  0.00    +0.000 A 
ATOM      6  N   UNL     1       1.936   5.981  20.741  0.00  0.00    +0.000 NA
ATOM      7  C   UNL     1       2.378   6.585  19.575  0.00  0.00    +0.000 A 
ATOM      8  C   UNL     1       3.165   5.977  18.666  0.00  0.00    +0.000 A 
ATOM      9  N   UNL     1       3.588   4.681  18.913  0.00  0.00    +0.000 N 
ENDROOT
BRANCH   7  10
ATOM     10  C   UNL     1       1.956   7.959  19.299  0.00  0.00    +0.000 A 
ATOM     11  C   UNL     1       2.096   8.532  18.039  0.00  0.00    +0.000 A 
ATOM     12  C   UNL     1       1.598   9.815  17.812  0.00  0.00    +0.000 A 
ATOM     13  C   UNL     1       1.004  10.516  18.859  0.00  0.00    +0.000 A 
ATOM     14  N   UNL     1       0.478  11.790  18.590  0.00  0.00    +0.000 N 
ATOM     15  N   UNL     1       0.870   9.973  20.085  0.00  0.00    +0.000 NA
ATOM     16  C   UNL     1       1.335   8.719  20.280  0.00  0.00    +0.000 A 
ATOM     17  H   UNL     1      -0.364  11.660  18.034  0.00  0.00    +0.000 HD
BRANCH  14  18
ATOM     18  C   UNL     1       0.224  12.625  19.770  0.00  0.00    +0.000 C 
BRANCH  18  19
ATOM     19  C   UNL     1      -1.301  12.733  20.015  0.00  0.00    +0.000 C 
BRANCH  19  20
ATOM     20  N   UNL     1      -1.695  13.603  21.142  0.00  0.00    +0.000 NA
ATOM     21  C   UNL     1      -1.227  13.049  22.435  0.00  0.00    +0.000 C 
ATOM     22  C   UNL     1      -2.045  11.847  22.948  0.00  0.00    +0.000 C 
ATOM     23  O   UNL     1      -3.441  12.155  23.029  0.00  0.00    +0.000 OA
ATOM     24  C   UNL     1      -3.941  12.598  21.761  0.00  0.00    +0.000 C 
ATOM     25  C   UNL     1      -3.155  13.815  21.247  0.00  0.00    +0.000 C 
ENDBRANCH  19  20
ENDBRANCH  18  19
ENDBRANCH  14  18
ENDBRANCH   7  10
BRANCH   1  29
ATOM     26  C   UNL     1       6.587   4.442  14.535  0.00  0.00    +0.000 A 
ATOM     27  C   UNL     1       5.202   4.213  14.566  0.00  0.00    +0.000 A 
ATOM     28  C   UNL     1       4.500   4.020  15.767  0.00  0.00    +0.000 A 
ATOM     29  C   UNL     1       5.157   4.053  16.998  0.00  0.00    +0.000 A 
ATOM     30  C   UNL     1       6.532   4.283  16.988  0.00  0.00    +0.000 A 
ATOM     31  C   UNL     1       7.222   4.493  15.785  0.00  0.00    +0.000 A 
BRANCH  26  33
ATOM     32  C   UNL     1       8.168   5.766  13.167  0.00  0.00    +0.000 C 
ATOM     33  N   UNL     1       7.288   4.617  13.345  0.00  0.00    +0.000 N 
ATOM     34  C   UNL     1       6.876   3.899  12.144  0.00  0.00    +0.000 C 
ENDBRANCH  26  33
ENDBRANCH   1  29
TORSDOF 6
ENDMDL
MODEL 3
REMARK VINA RESULT:      -8.0      3.485      9.947
REMARK  Name = 
REMARK  8 active torsions:
REMARK  status: ('A' for Active; 'I' for Inactive)
REMARK    1  A    between atoms: C_1  and  N_2
REMARK    2  A    between atoms: N_2  and  C_3
REMARK    3  A    between atoms: N_2  and  C_4
REMARK    4  A    between atoms: C_7  and  C_8
REMARK    5  A    between atoms: C_14  and  C_15
REMARK    6  A    between atoms: N_19  and  C_20
REMARK    7  A    between atoms: C_20  and  C_21
REMARK    8  A    between atoms: C_21  and  N_22
REMARK                            x       y       z     vdW  Elec       q    Type
REMARK                         _______ _______ _______ _____ _____    ______ ____
ROOT
ATOM      1  C   UNL     1       4.426   3.845  18.239  0.00  0.00    +0.000 A 
ATOM      2  C   UNL     1       4.361   2.689  19.011  0.00  0.00    +0.000 A 
ATOM      3  N   UNL     1       3.570   2.843  20.122  0.00  0.00    +0.000 NA
ATOM      4  C   UNL     1       3.144   4.079  20.034  0.00  0.00    +0.000 A 
ATOM      5  C   UNL     1       2.286   4.787  20.941  0.00  0.00    +0.000 A 
ATOM      6  N   UNL     1       1.922   6.024  20.724  0.00  0.00    +0.000 NA
ATOM      7  C   UNL     1       2.377   6.630  19.565  0.00  0.00    +0.000 A 
ATOM      8  C   UNL     1       3.173   6.024  18.663  0.00  0.00    +0.000 A 
ATOM      9  N   UNL     1       3.593   4.728  18.911  0.00  0.00    +0.000 N 
ENDROOT
BRANCH   7  10
ATOM     10  C   UNL     1       1.958   8.005  19.288  0.00  0.00    +0.000 A 
ATOM     11  C   UNL     1       2.098   8.576  18.027  0.00  0.00    +0.000 A 
ATOM     12  C   UNL     1       1.602   9.860  17.799  0.00  0.00    +0.000 A 
ATOM     13  C   UNL     1       1.012  10.564  18.845  0.00  0.00    +0.000 A 
ATOM     14  N   UNL     1       0.489  11.839  18.575  0.00  0.00    +0.000 N 
ATOM     15  N   UNL     1       0.878  10.024  20.072  0.00  0.00    +0.000 NA
ATOM     16  C   UNL     1       1.341   8.768  20.268  0.00  0.00    +0.000 A 
ATOM     17  H   UNL     1      -0.354  11.711  18.021  0.00  0.00    +0.000 HD
BRANCH  14  18
ATOM     18  C   UNL     1       0.239  12.677  19.755  0.00  0.00    +0.000 C 
BRANCH  18  19
ATOM     19  C   UNL     1      -1.283  12.912  19.915  0.00  0.00    +0.000 C 
BRANCH  19  20
ATOM     20  N   UNL     1      -1.918  12.172  21.024  0.00  0.00    +0.000 NA
ATOM     21  C   UNL     1      -3.237  12.754  21.371  0.00  0.00    +0.000 C 
ATOM     22  C   UNL     1      -3.165  14.074  22.163  0.00  0.00    +0.000 C 
ATOM     23  O   UNL     1      -2.369  13.937  23.345  0.00  0.00    +0.000 OA
ATOM     24  C   UNL     1      -1.052  13.472  23.024  0.00  0.00    +0.000 C 
ATOM     25  C   UNL     1      -1.104  12.140  22.260  0.00  0.00    +0.000 C 
ENDBRANCH  19  20
ENDBRANCH  18  19
ENDBRANCH  14  18
ENDBRANCH   7  10
BRANCH   1  29
ATOM     26  C   UNL     1       6.658   4.493  14.576  0.00  0.00    +0.000 A 
ATOM     27  C   UNL     1       5.322   4.062  14.578  0.00  0.00    +0.000 A 
ATOM     28  C   UNL     1       4.598   3.869  15.766  0.00  0.00    +0.000 A 
ATOM     29  C   UNL     1       5.183   4.104  17.012  0.00  0.00    +0.000 A 
ATOM     30  C   UNL     1       6.509   4.536  17.029  0.00  0.00    +0.000 A 
ATOM     31  C   UNL     1       7.218   4.744  15.837  0.00  0.00    +0.000 A 
BRANCH  26  33
ATOM     32  C   UNL     1       8.358   5.748  13.286  0.00  0.00    +0.000 C 
ATOM     33  N   UNL     1       7.383   4.670  13.399  0.00  0.00    +0.000 N 
ATOM     34  C   UNL     1       6.923   4.053  12.160  0.00  0.00    +0.000 C 
ENDBRANCH  26  33
ENDBRANCH   1  29
TORSDOF 6
ENDMDL
MODEL 4
REMARK VINA RESULT:      -7.9      3.733     10.401
REMARK  Name = 
REMARK  8 active torsions:
REMARK  status: ('A' for Active; 'I' for Inactive)
REMARK    1  A    between atoms: C_1  and  N_2
REMARK    2  A    between atoms: N_2  and  C_3
REMARK    3  A    between atoms: N_2  and  C_4
REMARK    4  A    between atoms: C_7  and  C_8
REMARK    5  A    between atoms: C_14  and  C_15
REMARK    6  A    between atoms: N_19  and  C_20
REMARK    7  A    between atoms: C_20  and  C_21
REMARK    8  A    between atoms: C_21  and  N_22
REMARK                            x       y       z     vdW  Elec       q    Type
REMARK                         _______ _______ _______ _____ _____    ______ ____
ROOT
ATOM      1  C   UNL     1       4.324   3.901  18.179  0.00  0.00    +0.000 A 
ATOM      2  C   UNL     1       4.211   2.744  18.946  0.00  0.00    +0.000 A 
ATOM      3  N   UNL     1       3.422   2.924  20.054  0.00  0.00    +0.000 NA
ATOM      4  C   UNL     1       3.044   4.176  19.970  0.00  0.00    +0.000 A 
ATOM      5  C   UNL     1       2.210   4.912  20.878  0.00  0.00    +0.000 A 
ATOM      6  N   UNL     1       1.894   6.162  20.664  0.00  0.00    +0.000 NA
ATOM      7  C   UNL     1       2.377   6.756  19.510  0.00  0.00    +0.000 A 
ATOM      8  C   UNL     1       3.153   6.124  18.608  0.00  0.00    +0.000 A 
ATOM      9  N   UNL     1       3.522   4.812  18.852  0.00  0.00    +0.000 N 
ENDROOT
BRANCH   7  10
ATOM     10  C   UNL     1       2.011   8.147  19.237  0.00  0.00    +0.000 A 
ATOM     11  C   UNL     1       2.295   8.757  18.019  0.00  0.00    +0.000 A 
ATOM     12  C   UNL     1       1.847  10.057  17.784  0.00  0.00    +0.000 A 
ATOM     13  C   UNL     1       1.158  10.737  18.785  0.00  0.00    +0.000 A 
ATOM     14  N   UNL     1       0.688  12.031  18.505  0.00  0.00    +0.000 N 
ATOM     15  N   UNL     1       0.886  10.160  19.971  0.00  0.00    +0.000 NA
ATOM     16  C   UNL     1       1.305   8.890  20.172  0.00  0.00    +0.000 A 
ATOM     17  H   UNL     1      -0.093  11.937  17.860  0.00  0.00    +0.000 HD
BRANCH  14  18
ATOM     18  C   UNL     1       0.326  12.833  19.680  0.00  0.00    +0.000 C 
BRANCH  18  19
ATOM     19  C   UNL     1       1.289  14.040  19.804  0.00  0.00    +0.000 C 
BRANCH  19  20
ATOM     20  N   UNL     1       1.439  14.851  18.579  0.00  0.00    +0.000 NA
ATOM     21  C   UNL     1       2.865  14.979  18.193  0.00  0.00    +0.000 C 
ATOM     22  C   UNL     1       3.676  15.962  19.061  0.00  0.00    +0.000 C 
ATOM     23  O   UNL     1       3.065  17.257  19.101  0.00  0.00    +0.000 OA
ATOM     24  C   UNL     1       1.714  17.170  19.570  0.00  0.00    +0.000 C 
ATOM     25  C   UNL     1       0.883  16.216  18.698  0.00  0.00    +0.000 C 
ENDBRANCH  19  20
ENDBRANCH  18  19
ENDBRANCH  14  18
ENDBRANCH   7  10
BRANCH   1  29
ATOM     26  C   UNL     1       6.590   4.481  14.525  0.00  0.00    +0.000 A 
ATOM     27  C   UNL     1       5.226   4.149  14.522  0.00  0.00    +0.000 A 
ATOM     28  C   UNL     1       4.492   3.978  15.707  0.00  0.00    +0.000 A 
ATOM     29  C   UNL     1       5.095   4.137  16.957  0.00  0.00    +0.000 A 
ATOM     30  C   UNL     1       6.449   4.470  16.980  0.00  0.00    +0.000 A 
ATOM     31  C   UNL     1       7.169   4.657  15.791  0.00  0.00    +0.000 A 
BRANCH  26  33
ATOM     32  C   UNL     1       8.240   5.758  13.194  0.00  0.00    +0.000 C 
ATOM     33  N   UNL     1       7.323   4.636  13.351  0.00  0.00    +0.000 N 
ATOM     34  C   UNL     1       6.918   3.930  12.141  0.00  0.00    +0.000 C 
ENDBRANCH  26  33
ENDBRANCH   1  29
TORSDOF 6
ENDMDL
MODEL 5
REMARK VINA RESULT:      -7.9      0.373      1.074
REMARK  Name = 
REMARK  8 active torsions:
REMARK  status: ('A' for Active; 'I' for Inactive)
REMARK    1  A    between atoms: C_1  and  N_2
REMARK    2  A    between atoms: N_2  and  C_3
REMARK    3  A    between atoms: N_2  and  C_4
REMARK    4  A    between atoms: C_7  and  C_8
REMARK    5  A    between atoms: C_14  and  C_15
REMARK    6  A    between atoms: N_19  and  C_20
REMARK    7  A    between atoms: C_20  and  C_21
REMARK    8  A    between atoms: C_21  and  N_22
REMARK                            x       y       z     vdW  Elec       q    Type
REMARK                         _______ _______ _______ _____ _____    ______ ____
ROOT
ATOM      1  C   UNL     1      -0.212  13.038  21.769  0.00  0.00    +0.000 A 
ATOM      2  C   UNL     1      -0.986  13.154  22.920  0.00  0.00    +0.000 A 
ATOM      3  N   UNL     1      -1.298  11.935  23.468  0.00  0.00    +0.000 NA
ATOM      4  C   UNL     1      -0.716  11.074  22.669  0.00  0.00    +0.000 A 
ATOM      5  C   UNL     1      -0.721   9.641  22.756  0.00  0.00    +0.000 A 
ATOM      6  N   UNL     1      -0.080   8.895  21.895  0.00  0.00    +0.000 NA
ATOM      7  C   UNL     1       0.631   9.539  20.896  0.00  0.00    +0.000 A 
ATOM      8  C   UNL     1       0.691  10.878  20.760  0.00  0.00    +0.000 A 
ATOM      9  N   UNL     1      -0.020  11.669  21.647  0.00  0.00    +0.000 N 
ENDROOT
BRANCH   7  10
ATOM     10  C   UNL     1       1.379   8.723  19.938  0.00  0.00    +0.000 A 
ATOM     11  C   UNL     1       1.619   9.153  18.636  0.00  0.00    +0.000 A 
ATOM     12  C   UNL     1       2.411   8.372  17.793  0.00  0.00    +0.000 A 
ATOM     13  C   UNL     1       2.915   7.159  18.254  0.00  0.00    +0.000 A 
ATOM     14  N   UNL     1       3.739   6.414  17.395  0.00  0.00    +0.000 N 
ATOM     15  N   UNL     1       2.682   6.730  19.510  0.00  0.00    +0.000 NA
ATOM     16  C   UNL     1       1.934   7.511  20.321  0.00  0.00    +0.000 A 
ATOM     17  H   UNL     1       4.630   6.901  17.331  0.00  0.00    +0.000 HD
BRANCH  14  18
ATOM     18  C   UNL     1       3.919   5.004  17.766  0.00  0.00    +0.000 C 
BRANCH  18  19
ATOM     19  C   UNL     1       2.554   4.273  17.716  0.00  0.00    +0.000 C 
BRANCH  19  20
ATOM     20  N   UNL     1       2.588   2.855  18.127  0.00  0.00    +0.000 NA
ATOM     21  C   UNL     1       1.239   2.377  18.514  0.00  0.00    +0.000 C 
ATOM     22  C   UNL     1       0.758   2.869  19.894  0.00  0.00    +0.000 C 
ATOM     23  O   UNL     1       1.700   2.550  20.925  0.00  0.00    +0.000 OA
ATOM     24  C   UNL     1       2.992   3.090  20.621  0.00  0.00    +0.000 C 
ATOM     25  C   UNL     1       3.500   2.587  19.261  0.00  0.00    +0.000 C 
ENDBRANCH  19  20
ENDBRANCH  18  19
ENDBRANCH  14  18
ENDBRANCH   7  10
BRANCH   1  29
ATOM     26  C   UNL     1       1.311  16.048  19.040  0.00  0.00    +0.000 A 
ATOM     27  C   UNL     1       0.198  15.247  18.735  0.00  0.00    +0.000 A 
ATOM     28  C   UNL     1      -0.301  14.285  19.628  0.00  0.00    +0.000 A 
ATOM     29  C   UNL     1       0.292  14.083  20.876  0.00  0.00    +0.000 A 
ATOM     30  C   UNL     1       1.397  14.871  21.197  0.00  0.00    +0.000 A 
ATOM     31  C   UNL     1       1.878  15.843  20.307  0.00  0.00    +0.000 A 
BRANCH  26  33
ATOM     32  C   UNL     1       0.986  18.097  17.690  0.00  0.00    +0.000 C 
ATOM     33  N   UNL     1       1.818  16.991  18.150  0.00  0.00    +0.000 N 
ATOM     34  C   UNL     1       3.018  16.692  17.376  0.00  0.00    +0.000 C 
ENDBRANCH  26  33
ENDBRANCH   1  29
TORSDOF 6
ENDMDL
MODEL 6
REMARK VINA RESULT:      -7.9      3.557     10.237
REMARK  Name = 
REMARK  8 active torsions:
REMARK  status: ('A' for Active; 'I' for Inactive)
REMARK    1  A    between atoms: C_1  and  N_2
REMARK    2  A    between atoms: N_2  and  C_3
REMARK    3  A    between atoms: N_2  and  C_4
REMARK    4  A    between atoms: C_7  and  C_8
REMARK    5  A    between atoms: C_14  and  C_15
REMARK    6  A    between atoms: N_19  and  C_20
REMARK    7  A    between atoms: C_20  and  C_21
REMARK    8  A    between atoms: C_21  and  N_22
REMARK                            x       y       z     vdW  Elec       q    Type
REMARK                         _______ _______ _______ _____ _____    ______ ____
ROOT
ATOM      1  C   UNL     1       4.430   3.860  18.196  0.00  0.00    +0.000 A 
ATOM      2  C   UNL     1       4.367   2.711  18.980  0.00  0.00    +0.000 A 
ATOM      3  N   UNL     1       3.584   2.879  20.095  0.00  0.00    +0.000 NA
ATOM      4  C   UNL     1       3.161   4.115  19.997  0.00  0.00    +0.000 A 
ATOM      5  C   UNL     1       2.311   4.835  20.904  0.00  0.00    +0.000 A 
ATOM      6  N   UNL     1       1.949   6.070  20.677  0.00  0.00    +0.000 NA
ATOM      7  C   UNL     1       2.398   6.663  19.508  0.00  0.00    +0.000 A 
ATOM      8  C   UNL     1       3.186   6.047  18.607  0.00  0.00    +0.000 A 
ATOM      9  N   UNL     1       3.604   4.752  18.865  0.00  0.00    +0.000 N 
ENDROOT
BRANCH   7  10
ATOM     10  C   UNL     1       1.980   8.037  19.220  0.00  0.00    +0.000 A 
ATOM     11  C   UNL     1       2.242   8.644  17.996  0.00  0.00    +0.000 A 
ATOM     12  C   UNL     1       1.745   9.923  17.746  0.00  0.00    +0.000 A 
ATOM     13  C   UNL     1       1.030  10.588  18.740  0.00  0.00    +0.000 A 
ATOM     14  N   UNL     1       0.511  11.859  18.445  0.00  0.00    +0.000 N 
ATOM     15  N   UNL     1       0.778  10.013  19.932  0.00  0.00    +0.000 NA
ATOM     16  C   UNL     1       1.244   8.762  20.147  0.00  0.00    +0.000 A 
ATOM     17  H   UNL     1      -0.265  11.729  17.801  0.00  0.00    +0.000 HD
BRANCH  14  18
ATOM     18  C   UNL     1       0.118  12.660  19.611  0.00  0.00    +0.000 C 
BRANCH  18  19
ATOM     19  C   UNL     1       0.128  14.164  19.239  0.00  0.00    +0.000 C 
BRANCH  19  20
ATOM     20  N   UNL     1       0.977  15.015  20.096  0.00  0.00    +0.000 NA
ATOM     21  C   UNL     1       1.324  16.285  19.415  0.00  0.00    +0.000 C 
ATOM     22  C   UNL     1       2.398  16.148  18.317  0.00  0.00    +0.000 C 
ATOM     23  O   UNL     1       3.587  15.526  18.817  0.00  0.00    +0.000 OA
ATOM     24  C   UNL     1       3.291  14.247  19.392  0.00  0.00    +0.000 C 
ATOM     25  C   UNL     1       2.242  14.368  20.509  0.00  0.00    +0.000 C 
ENDBRANCH  19  20
ENDBRANCH  18  19
ENDBRANCH  14  18
ENDBRANCH   7  10
BRANCH   1  29
ATOM     26  C   UNL     1       6.627   4.469  14.505  0.00  0.00    +0.000 A 
ATOM     27  C   UNL     1       5.258   4.157  14.525  0.00  0.00    +0.000 A 
ATOM     28  C   UNL     1       4.547   3.977  15.722  0.00  0.00    +0.000 A 
ATOM     29  C   UNL     1       5.178   4.105  16.961  0.00  0.00    +0.000 A 
ATOM     30  C   UNL     1       6.538   4.417  16.961  0.00  0.00    +0.000 A 
ATOM     31  C   UNL     1       7.235   4.614  15.760  0.00  0.00    +0.000 A 
BRANCH  26  33
ATOM     32  C   UNL     1       8.236   5.767  13.144  0.00  0.00    +0.000 C 
ATOM     33  N   UNL     1       7.337   4.632  13.318  0.00  0.00    +0.000 N 
ATOM     34  C   UNL     1       6.921   3.920  12.115  0.00  0.00    +0.000 C 
ENDBRANCH  26  33
ENDBRANCH   1  29
TORSDOF 6
ENDMDL
MODEL 7
REMARK VINA RESULT:      -7.8      3.740     10.467
REMARK  Name = 
REMARK  8 active torsions:
REMARK  status: ('A' for Active; 'I' for Inactive)
REMARK    1  A    between atoms: C_1  and  N_2
REMARK    2  A    between atoms: N_2  and  C_3
REMARK    3  A    between atoms: N_2  and  C_4
REMARK    4  A    between atoms: C_7  and  C_8
REMARK    5  A    between atoms: C_14  and  C_15
REMARK    6  A    between atoms: N_19  and  C_20
REMARK    7  A    between atoms: C_20  and  C_21
REMARK    8  A    between atoms: C_21  and  N_22
REMARK                            x       y       z     vdW  Elec       q    Type
REMARK                         _______ _______ _______ _____ _____    ______ ____
ROOT
ATOM      1  C   UNL     1       4.401   3.879  18.202  0.00  0.00    +0.000 A 
ATOM      2  C   UNL     1       4.323   2.726  18.979  0.00  0.00    +0.000 A 
ATOM      3  N   UNL     1       3.538   2.895  20.092  0.00  0.00    +0.000 NA
ATOM      4  C   UNL     1       3.128   4.136  20.001  0.00  0.00    +0.000 A 
ATOM      5  C   UNL     1       2.282   4.858  20.910  0.00  0.00    +0.000 A 
ATOM      6  N   UNL     1       1.934   6.099  20.689  0.00  0.00    +0.000 NA
ATOM      7  C   UNL     1       2.393   6.695  19.527  0.00  0.00    +0.000 A 
ATOM      8  C   UNL     1       3.177   6.076  18.624  0.00  0.00    +0.000 A 
ATOM      9  N   UNL     1       3.581   4.775  18.875  0.00  0.00    +0.000 N 
ENDROOT
BRANCH   7  10
ATOM     10  C   UNL     1       1.990   8.075  19.247  0.00  0.00    +0.000 A 
ATOM     11  C   UNL     1       2.273   8.691  18.031  0.00  0.00    +0.000 A 
ATOM     12  C   UNL     1       1.791   9.977  17.788  0.00  0.00    +0.000 A 
ATOM     13  C   UNL     1       1.068  10.638  18.778  0.00  0.00    +0.000 A 
ATOM     14  N   UNL     1       0.564  11.917  18.489  0.00  0.00    +0.000 N 
ATOM     15  N   UNL     1       0.796  10.054  19.961  0.00  0.00    +0.000 NA
ATOM     16  C   UNL     1       1.249   8.797  20.170  0.00  0.00    +0.000 A 
ATOM     17  H   UNL     1      -0.204  11.799  17.833  0.00  0.00    +0.000 HD
BRANCH  14  18
ATOM     18  C   UNL     1       0.162  12.710  19.657  0.00  0.00    +0.000 C 
BRANCH  18  19
ATOM     19  C   UNL     1      -0.536  14.011  19.190  0.00  0.00    +0.000 C 
BRANCH  19  20
ATOM     20  N   UNL     1       0.375  15.086  18.746  0.00  0.00    +0.000 NA
ATOM     21  C   UNL     1       1.454  15.316  19.737  0.00  0.00    +0.000 C 
ATOM     22  C   UNL     1       1.009  16.080  21.000  0.00  0.00    +0.000 C 
ATOM     23  O   UNL     1       0.379  17.323  20.670  0.00  0.00    +0.000 OA
ATOM     24  C   UNL     1      -0.733  17.115  19.792  0.00  0.00    +0.000 C 
ATOM     25  C   UNL     1      -0.302  16.380  18.512  0.00  0.00    +0.000 C 
ENDBRANCH  19  20
ENDBRANCH  18  19
ENDBRANCH  14  18
ENDBRANCH   7  10
BRANCH   1  29
ATOM     26  C   UNL     1       6.621   4.489  14.525  0.00  0.00    +0.000 A 
ATOM     27  C   UNL     1       5.260   4.142  14.536  0.00  0.00    +0.000 A 
ATOM     28  C   UNL     1       4.541   3.962  15.729  0.00  0.00    +0.000 A 
ATOM     29  C   UNL     1       5.156   4.125  16.972  0.00  0.00    +0.000 A 
ATOM     30  C   UNL     1       6.506   4.472  16.981  0.00  0.00    +0.000 A 
ATOM     31  C   UNL     1       7.212   4.668  15.785  0.00  0.00    +0.000 A 
BRANCH  26  33
ATOM     32  C   UNL     1       8.255   5.776  13.184  0.00  0.00    +0.000 C 
ATOM     33  N   UNL     1       7.340   4.652  13.344  0.00  0.00    +0.000 N 
ATOM     34  C   UNL     1       6.919   3.956  12.132  0.00  0.00    +0.000 C 
ENDBRANCH  26  33
ENDBRANCH   1  29
TORSDOF 6
ENDMDL
MODEL 8
REMARK VINA RESULT:      -7.7      4.909      9.094
REMARK  Name = 
REMARK  8 active torsions:
REMARK  status: ('A' for Active; 'I' for Inactive)
REMARK    1  A    between atoms: C_1  and  N_2
REMARK    2  A    between atoms: N_2  and  C_3
REMARK    3  A    between atoms: N_2  and  C_4
REMARK    4  A    between atoms: C_7  and  C_8
REMARK    5  A    between atoms: C_14  and  C_15
REMARK    6  A    between atoms: N_19  and  C_20
REMARK    7  A    between atoms: C_20  and  C_21
REMARK    8  A    between atoms: C_21  and  N_22
REMARK                            x       y       z     vdW  Elec       q    Type
REMARK                         _______ _______ _______ _____ _____    ______ ____
ROOT
ATOM      1  C   UNL     1       0.264  11.062  18.784  0.00  0.00    +0.000 A 
ATOM      2  C   UNL     1      -1.091  11.341  18.636  0.00  0.00    +0.000 A 
ATOM      3  N   UNL     1      -1.351  12.688  18.613  0.00  0.00    +0.000 NA
ATOM      4  C   UNL     1      -0.168  13.237  18.738  0.00  0.00    +0.000 A 
ATOM      5  C   UNL     1       0.159  14.635  18.791  0.00  0.00    +0.000 A 
ATOM      6  N   UNL     1       1.393  15.050  18.902  0.00  0.00    +0.000 NA
ATOM      7  C   UNL     1       2.390  14.090  18.947  0.00  0.00    +0.000 A 
ATOM      8  C   UNL     1       2.159  12.764  18.891  0.00  0.00    +0.000 A 
ATOM      9  N   UNL     1       0.850  12.320  18.813  0.00  0.00    +0.000 N 
ENDROOT
BRANCH   7  10
ATOM     10  C   UNL     1       3.782  14.535  19.043  0.00  0.00    +0.000 A 
ATOM     11  C   UNL     1       4.264  15.203  20.165  0.00  0.00    +0.000 A 
ATOM     12  C   UNL     1       5.619  15.527  20.237  0.00  0.00    +0.000 A 
ATOM     13  C   UNL     1       6.458  15.213  19.171  0.00  0.00    +0.000 A 
ATOM     14  N   UNL     1       7.824  15.519  19.290  0.00  0.00    +0.000 N 
ATOM     15  N   UNL     1       6.000  14.574  18.078  0.00  0.00    +0.000 NA
ATOM     16  C   UNL     1       4.689  14.244  18.035  0.00  0.00    +0.000 A 
ATOM     17  H   UNL     1       8.224  14.866  19.959  0.00  0.00    +0.000 HD
BRANCH  14  18
ATOM     18  C   UNL     1       8.575  15.530  18.029  0.00  0.00    +0.000 C 
BRANCH  18  19
ATOM     19  C   UNL     1       9.888  14.724  18.196  0.00  0.00    +0.000 C 
BRANCH  19  20
ATOM     20  N   UNL     1       9.969  13.487  17.394  0.00  0.00    +0.000 NA
ATOM     21  C   UNL     1       9.039  12.453  17.908  0.00  0.00    +0.000 C 
ATOM     22  C   UNL     1       9.505  11.761  19.204  0.00  0.00    +0.000 C 
ATOM     23  O   UNL     1      10.818  11.206  19.063  0.00  0.00    +0.000 OA
ATOM     24  C   UNL     1      11.758  12.211  18.664  0.00  0.00    +0.000 C 
ATOM     25  C   UNL     1      11.323  12.891  17.356  0.00  0.00    +0.000 C 
ENDBRANCH  19  20
ENDBRANCH  18  19
ENDBRANCH  14  18
ENDBRANCH   7  10
BRANCH   1  29
ATOM     26  C   UNL     1       2.357   7.282  19.180  0.00  0.00    +0.000 A 
ATOM     27  C   UNL     1       1.696   7.894  20.256  0.00  0.00    +0.000 A 
ATOM     28  C   UNL     1       1.005   9.110  20.120  0.00  0.00    +0.000 A 
ATOM     29  C   UNL     1       0.944   9.769  18.891  0.00  0.00    +0.000 A 
ATOM     30  C   UNL     1       1.593   9.175  17.809  0.00  0.00    +0.000 A 
ATOM     31  C   UNL     1       2.264   7.951  17.950  0.00  0.00    +0.000 A 
BRANCH  26  33
ATOM     32  C   UNL     1       2.696   5.134  20.361  0.00  0.00    +0.000 C 
ATOM     33  N   UNL     1       3.056   6.085  19.316  0.00  0.00    +0.000 N 
ATOM     34  C   UNL     1       4.367   5.932  18.696  0.00  0.00    +0.000 C 
ENDBRANCH  26  33
ENDBRANCH   1  29
TORSDOF 6
ENDMDL
MODEL 9
REMARK VINA RESULT:      -7.7      3.769     10.432
REMARK  Name = 
REMARK  8 active torsions:
REMARK  status: ('A' for Active; 'I' for Inactive)
REMARK    1  A    between atoms: C_1  and  N_2
REMARK    2  A    between atoms: N_2  and  C_3
REMARK    3  A    between atoms: N_2  and  C_4
REMARK    4  A    between atoms: C_7  and  C_8
REMARK    5  A    between atoms: C_14  and  C_15
REMARK    6  A    between atoms: N_19  and  C_20
REMARK    7  A    between atoms: C_20  and  C_21
REMARK    8  A    between atoms: C_21  and  N_22
REMARK                            x       y       z     vdW  Elec       q    Type
REMARK                         _______ _______ _______ _____ _____    ______ ____
ROOT
ATOM      1  C   UNL     1       4.435   3.747  18.083  0.00  0.00    +0.000 A 
ATOM      2  C   UNL     1       4.359   2.587  18.850  0.00  0.00    +0.000 A 
ATOM      3  N   UNL     1       3.590   2.750  19.974  0.00  0.00    +0.000 NA
ATOM      4  C   UNL     1       3.187   3.995  19.900  0.00  0.00    +0.000 A 
ATOM      5  C   UNL     1       2.358   4.714  20.826  0.00  0.00    +0.000 A 
ATOM      6  N   UNL     1       2.015   5.959  20.621  0.00  0.00    +0.000 NA
ATOM      7  C   UNL     1       2.463   6.563  19.458  0.00  0.00    +0.000 A 
ATOM      8  C   UNL     1       3.232   5.947  18.540  0.00  0.00    +0.000 A 
ATOM      9  N   UNL     1       3.630   4.642  18.774  0.00  0.00    +0.000 N 
ENDROOT
BRANCH   7  10
ATOM     10  C   UNL     1       2.066   7.948  19.196  0.00  0.00    +0.000 A 
ATOM     11  C   UNL     1       2.340   8.574  17.983  0.00  0.00    +0.000 A 
ATOM     12  C   UNL     1       1.862   9.865  17.757  0.00  0.00    +0.000 A 
ATOM     13  C   UNL     1       1.154  10.521  18.762  0.00  0.00    +0.000 A 
ATOM     14  N   UNL     1       0.655  11.805  18.490  0.00  0.00    +0.000 N 
ATOM     15  N   UNL     1       0.891   9.927  19.942  0.00  0.00    +0.000 NA
ATOM     16  C   UNL     1       1.339   8.666  20.134  0.00  0.00    +0.000 A 
ATOM     17  H   UNL     1      -0.121  11.698  17.842  0.00  0.00    +0.000 HD
BRANCH  14  18
ATOM     18  C   UNL     1       0.270  12.590  19.670  0.00  0.00    +0.000 C 
BRANCH  18  19
ATOM     19  C   UNL     1      -0.471  13.874  19.225  0.00  0.00    +0.000 C 
BRANCH  19  20
ATOM     20  N   UNL     1      -0.178  15.078  20.029  0.00  0.00    +0.000 NA
ATOM     21  C   UNL     1      -0.911  16.259  19.512  0.00  0.00    +0.000 C 
ATOM     22  C   UNL     1      -0.323  16.859  18.219  0.00  0.00    +0.000 C 
ATOM     23  O   UNL     1       1.066  17.176  18.368  0.00  0.00    +0.000 OA
ATOM     24  C   UNL     1       1.813  16.021  18.770  0.00  0.00    +0.000 C 
ATOM     25  C   UNL     1       1.259  15.426  20.074  0.00  0.00    +0.000 C 
ENDBRANCH  19  20
ENDBRANCH  18  19
ENDBRANCH  14  18
ENDBRANCH   7  10
BRANCH   1  29
ATOM     26  C   UNL     1       6.631   4.614  14.443  0.00  0.00    +0.000 A 
ATOM     27  C   UNL     1       7.169   4.839  15.720  0.00  0.00    +0.000 A 
ATOM     28  C   UNL     1       6.461   4.541  16.896  0.00  0.00    +0.000 A 
ATOM     29  C   UNL     1       5.176   3.999  16.845  0.00  0.00    +0.000 A 
ATOM     30  C   UNL     1       4.625   3.766  15.585  0.00  0.00    +0.000 A 
ATOM     31  C   UNL     1       5.348   4.049  14.416  0.00  0.00    +0.000 A 
BRANCH  26  33
ATOM     32  C   UNL     1       7.090   4.165  12.053  0.00  0.00    +0.000 C 
ATOM     33  N   UNL     1       7.325   4.923  13.276  0.00  0.00    +0.000 N 
ATOM     34  C   UNL     1       8.543   5.723  13.343  0.00  0.00    +0.000 C 
ENDBRANCH  26  33
ENDBRANCH   1  29
TORSDOF 6
ENDMDL
