MODEL 1
REMARK VINA RESULT:      -6.9      0.000      0.000
REMARK  Name = 
REMARK  1 active torsions:
REMARK  status: ('A' for Active; 'I' for Inactive)
REMARK    1  A    between atoms: C_2  and  C_9
REMARK                            x       y       z     vdW  Elec       q    Type
REMARK                         _______ _______ _______ _____ _____    ______ ____
ROOT
ATOM      1  O   UNL     1       6.105   5.777  16.661  0.00  0.00    +0.000 OA
ATOM      2  C   UNL     1       5.525   4.726  16.408  0.00  0.00    +0.000 C 
ATOM      3  N   UNL     1       5.623   3.977  15.259  0.00  0.00    +0.000 N 
ATOM      4  C   UNL     1       6.469   4.358  14.250  0.00  0.00    +0.000 A 
ATOM      5  N   UNL     1       7.441   5.231  14.277  0.00  0.00    +0.000 NA
ATOM      6  C   UNL     1       7.985   5.356  13.017  0.00  0.00    +0.000 A 
ATOM      7  C   UNL     1       7.408   4.568  12.045  0.00  0.00    +0.000 A 
ATOM      8  S   UNL     1       6.188   3.585  12.753  0.00  0.00    +0.000 S 
ATOM      9  H   UNL     1       4.972   3.235  15.056  0.00  0.00    +0.000 HD
ENDROOT
BRANCH   2  10
ATOM     10  C   UNL     1       4.555   4.233  17.418  0.00  0.00    +0.000 A 
ATOM     11  C   UNL     1       5.063   3.847  18.681  0.00  0.00    +0.000 A 
ATOM     12  C   UNL     1       4.227   3.283  19.646  0.00  0.00    +0.000 A 
ATOM     13  C   UNL     1       2.904   3.104  19.311  0.00  0.00    +0.000 A 
ATOM     14  C   UNL     1       2.405   3.484  18.084  0.00  0.00    +0.000 A 
ATOM     15  C   UNL     1       3.198   4.062  17.113  0.00  0.00    +0.000 A 
ATOM     16  O   UNL     1       1.083   3.191  17.954  0.00  0.00    +0.000 OA
ATOM     17  C   UNL     1       0.829   2.516  19.205  0.00  0.00    +0.000 C 
ATOM     18  O   UNL     1       1.960   2.526  20.099  0.00  0.00    +0.000 OA
ENDBRANCH   2  10
TORSDOF 1
ENDMDL
MODEL 2
REMARK VINA RESULT:      -6.8      1.818      2.165
REMARK  Name = 
REMARK  1 active torsions:
REMARK  status: ('A' for Active; 'I' for Inactive)
REMARK    1  A    between atoms: C_2  and  C_9
REMARK                            x       y       z     vdW  Elec       q    Type
REMARK                         _______ _______ _______ _____ _____    ______ ____
ROOT
ATOM      1  O   UNL     1       6.205   6.805  16.341  0.00  0.00    +0.000 OA
ATOM      2  C   UNL     1       5.461   5.830  16.340  0.00  0.00    +0.000 C 
ATOM      3  N   UNL     1       5.430   4.807  15.422  0.00  0.00    +0.000 N 
ATOM      4  C   UNL     1       6.321   4.778  14.382  0.00  0.00    +0.000 A 
ATOM      5  N   UNL     1       7.423   5.464  14.222  0.00  0.00    +0.000 NA
ATOM      6  C   UNL     1       7.973   5.176  12.993  0.00  0.00    +0.000 A 
ATOM      7  C   UNL     1       7.271   4.267  12.231  0.00  0.00    +0.000 A 
ATOM      8  S   UNL     1       5.911   3.703  13.119  0.00  0.00    +0.000 S 
ATOM      9  H   UNL     1       4.667   4.150  15.389  0.00  0.00    +0.000 HD
ENDROOT
BRANCH   2  10
ATOM     10  C   UNL     1       4.428   5.771  17.405  0.00  0.00    +0.000 A 
ATOM     11  C   UNL     1       3.650   6.932  17.628  0.00  0.00    +0.000 A 
ATOM     12  C   UNL     1       2.728   6.985  18.675  0.00  0.00    +0.000 A 
ATOM     13  C   UNL     1       2.624   5.875  19.483  0.00  0.00    +0.000 A 
ATOM     14  C   UNL     1       3.376   4.742  19.266  0.00  0.00    +0.000 A 
ATOM     15  C   UNL     1       4.283   4.648  18.229  0.00  0.00    +0.000 A 
ATOM     16  O   UNL     1       3.136   3.779  20.196  0.00  0.00    +0.000 OA
ATOM     17  C   UNL     1       2.208   4.465  21.064  0.00  0.00    +0.000 C 
ATOM     18  O   UNL     1       1.822   5.764  20.575  0.00  0.00    +0.000 OA
ENDBRANCH   2  10
TORSDOF 1
ENDMDL
MODEL 3
REMARK VINA RESULT:      -6.7      3.225      6.603
REMARK  Name = 
REMARK  1 active torsions:
REMARK  status: ('A' for Active; 'I' for Inactive)
REMARK    1  A    between atoms: C_2  and  C_9
REMARK                            x       y       z     vdW  Elec       q    Type
REMARK                         _______ _______ _______ _____ _____    ______ ____
ROOT
ATOM      1  O   UNL     1       5.516   3.816  19.586  0.00  0.00    +0.000 OA
ATOM      2  C   UNL     1       4.897   4.038  18.551  0.00  0.00    +0.000 C 
ATOM      3  N   UNL     1       3.536   3.971  18.365  0.00  0.00    +0.000 N 
ATOM      4  C   UNL     1       2.705   3.666  19.410  0.00  0.00    +0.000 A 
ATOM      5  N   UNL     1       2.963   3.657  20.691  0.00  0.00    +0.000 NA
ATOM      6  C   UNL     1       1.856   3.217  21.383  0.00  0.00    +0.000 A 
ATOM      7  C   UNL     1       0.765   2.894  20.605  0.00  0.00    +0.000 A 
ATOM      8  S   UNL     1       1.119   3.221  18.956  0.00  0.00    +0.000 S 
ATOM      9  H   UNL     1       3.129   3.981  17.443  0.00  0.00    +0.000 HD
ENDROOT
BRANCH   2  10
ATOM     10  C   UNL     1       5.699   4.347  17.340  0.00  0.00    +0.000 A 
ATOM     11  C   UNL     1       6.606   5.431  17.414  0.00  0.00    +0.000 A 
ATOM     12  C   UNL     1       7.322   5.842  16.289  0.00  0.00    +0.000 A 
ATOM     13  C   UNL     1       7.095   5.165  15.112  0.00  0.00    +0.000 A 
ATOM     14  C   UNL     1       6.217   4.106  15.038  0.00  0.00    +0.000 A 
ATOM     15  C   UNL     1       5.506   3.661  16.134  0.00  0.00    +0.000 A 
ATOM     16  O   UNL     1       6.124   3.603  13.777  0.00  0.00    +0.000 OA
ATOM     17  C   UNL     1       6.982   4.513  13.056  0.00  0.00    +0.000 C 
ATOM     18  O   UNL     1       7.659   5.457  13.910  0.00  0.00    +0.000 OA
ENDBRANCH   2  10
TORSDOF 1
ENDMDL
MODEL 4
REMARK VINA RESULT:      -6.7      4.747      6.956
REMARK  Name = 
REMARK  1 active torsions:
REMARK  status: ('A' for Active; 'I' for Inactive)
REMARK    1  A    between atoms: C_2  and  C_9
REMARK                            x       y       z     vdW  Elec       q    Type
REMARK                         _______ _______ _______ _____ _____    ______ ____
ROOT
ATOM      1  O   UNL     1       2.347   6.036  19.831  0.00  0.00    +0.000 OA
ATOM      2  C   UNL     1       2.726   6.643  18.835  0.00  0.00    +0.000 C 
ATOM      3  N   UNL     1       2.418   7.936  18.481  0.00  0.00    +0.000 N 
ATOM      4  C   UNL     1       1.637   8.713  19.295  0.00  0.00    +0.000 A 
ATOM      5  N   UNL     1       1.302   8.519  20.544  0.00  0.00    +0.000 NA
ATOM      6  C   UNL     1       0.440   9.514  20.951  0.00  0.00    +0.000 A 
ATOM      7  C   UNL     1       0.131  10.456  19.992  0.00  0.00    +0.000 A 
ATOM      8  S   UNL     1       1.008  10.118  18.554  0.00  0.00    +0.000 S 
ATOM      9  H   UNL     1       2.613   8.291  17.558  0.00  0.00    +0.000 HD
ENDROOT
BRANCH   2  10
ATOM     10  C   UNL     1       3.553   5.889  17.860  0.00  0.00    +0.000 A 
ATOM     11  C   UNL     1       3.337   4.493  17.760  0.00  0.00    +0.000 A 
ATOM     12  C   UNL     1       4.142   3.702  16.938  0.00  0.00    +0.000 A 
ATOM     13  C   UNL     1       5.156   4.331  16.252  0.00  0.00    +0.000 A 
ATOM     14  C   UNL     1       5.366   5.689  16.343  0.00  0.00    +0.000 A 
ATOM     15  C   UNL     1       4.578   6.505  17.131  0.00  0.00    +0.000 A 
ATOM     16  O   UNL     1       6.435   6.095  15.607  0.00  0.00    +0.000 OA
ATOM     17  C   UNL     1       6.917   4.830  15.106  0.00  0.00    +0.000 C 
ATOM     18  O   UNL     1       6.066   3.718  15.449  0.00  0.00    +0.000 OA
ENDBRANCH   2  10
TORSDOF 1
ENDMDL
MODEL 5
REMARK VINA RESULT:      -6.6      1.234      1.702
REMARK  Name = 
REMARK  1 active torsions:
REMARK  status: ('A' for Active; 'I' for Inactive)
REMARK    1  A    between atoms: C_2  and  C_9
REMARK                            x       y       z     vdW  Elec       q    Type
REMARK                         _______ _______ _______ _____ _____    ______ ____
ROOT
ATOM      1  O   UNL     1       6.096   6.088  16.781  0.00  0.00    +0.000 OA
ATOM      2  C   UNL     1       5.430   5.076  16.594  0.00  0.00    +0.000 C 
ATOM      3  N   UNL     1       5.467   4.245  15.498  0.00  0.00    +0.000 N 
ATOM      4  C   UNL     1       6.345   4.484  14.474  0.00  0.00    +0.000 A 
ATOM      5  N   UNL     1       7.388   5.272  14.450  0.00  0.00    +0.000 NA
ATOM      6  C   UNL     1       7.944   5.266  13.190  0.00  0.00    +0.000 A 
ATOM      7  C   UNL     1       7.305   4.465  12.267  0.00  0.00    +0.000 A 
ATOM      8  S   UNL     1       6.005   3.639  13.029  0.00  0.00    +0.000 S 
ATOM      9  H   UNL     1       4.757   3.548  15.339  0.00  0.00    +0.000 HD
ENDROOT
BRANCH   2  10
ATOM     10  C   UNL     1       4.418   4.735  17.625  0.00  0.00    +0.000 A 
ATOM     11  C   UNL     1       3.316   5.611  17.776  0.00  0.00    +0.000 A 
ATOM     12  C   UNL     1       2.377   5.410  18.789  0.00  0.00    +0.000 A 
ATOM     13  C   UNL     1       2.578   4.344  19.636  0.00  0.00    +0.000 A 
ATOM     14  C   UNL     1       3.645   3.487  19.489  0.00  0.00    +0.000 A 
ATOM     15  C   UNL     1       4.583   3.644  18.488  0.00  0.00    +0.000 A 
ATOM     16  O   UNL     1       3.667   2.523  20.448  0.00  0.00    +0.000 OA
ATOM     17  C   UNL     1       2.539   2.918  21.257  0.00  0.00    +0.000 C 
ATOM     18  O   UNL     1       1.800   4.025  20.704  0.00  0.00    +0.000 OA
ENDBRANCH   2  10
TORSDOF 1
ENDMDL
MODEL 6
REMARK VINA RESULT:      -6.6      1.740      1.846
REMARK  Name = 
REMARK  1 active torsions:
REMARK  status: ('A' for Active; 'I' for Inactive)
REMARK    1  A    between atoms: C_2  and  C_9
REMARK                            x       y       z     vdW  Elec       q    Type
REMARK                         _______ _______ _______ _____ _____    ______ ____
ROOT
ATOM      1  O   UNL     1       6.651   6.555  16.450  0.00  0.00    +0.000 OA
ATOM      2  C   UNL     1       5.978   5.530  16.478  0.00  0.00    +0.000 C 
ATOM      3  N   UNL     1       5.880   4.572  15.496  0.00  0.00    +0.000 N 
ATOM      4  C   UNL     1       6.612   4.680  14.343  0.00  0.00    +0.000 A 
ATOM      5  N   UNL     1       7.633   5.455  14.086  0.00  0.00    +0.000 NA
ATOM      6  C   UNL     1       8.018   5.292  12.773  0.00  0.00    +0.000 A 
ATOM      7  C   UNL     1       7.272   4.387  12.048  0.00  0.00    +0.000 A 
ATOM      8  S   UNL     1       6.094   3.666  13.070  0.00  0.00    +0.000 S 
ATOM      9  H   UNL     1       5.163   3.864  15.519  0.00  0.00    +0.000 HD
ENDROOT
BRANCH   2  10
ATOM     10  C   UNL     1       5.115   5.322  17.668  0.00  0.00    +0.000 A 
ATOM     11  C   UNL     1       5.205   4.075  18.332  0.00  0.00    +0.000 A 
ATOM     12  C   UNL     1       4.357   3.770  19.398  0.00  0.00    +0.000 A 
ATOM     13  C   UNL     1       3.428   4.719  19.759  0.00  0.00    +0.000 A 
ATOM     14  C   UNL     1       3.342   5.936  19.119  0.00  0.00    +0.000 A 
ATOM     15  C   UNL     1       4.176   6.279  18.074  0.00  0.00    +0.000 A 
ATOM     16  O   UNL     1       2.339   6.709  19.616  0.00  0.00    +0.000 OA
ATOM     17  C   UNL     1       1.757   5.811  20.585  0.00  0.00    +0.000 C 
ATOM     18  O   UNL     1       2.491   4.579  20.734  0.00  0.00    +0.000 OA
ENDBRANCH   2  10
TORSDOF 1
ENDMDL
MODEL 7
REMARK VINA RESULT:      -6.6      3.268      6.722
REMARK  Name = 
REMARK  1 active torsions:
REMARK  status: ('A' for Active; 'I' for Inactive)
REMARK    1  A    between atoms: C_2  and  C_9
REMARK                            x       y       z     vdW  Elec       q    Type
REMARK                         _______ _______ _______ _____ _____    ______ ____
ROOT
ATOM      1  O   UNL     1       2.860   5.556  17.755  0.00  0.00    +0.000 OA
ATOM      2  C   UNL     1       3.732   4.698  17.841  0.00  0.00    +0.000 C 
ATOM      3  N   UNL     1       3.785   3.652  18.733  0.00  0.00    +0.000 N 
ATOM      4  C   UNL     1       2.773   3.454  19.634  0.00  0.00    +0.000 A 
ATOM      5  N   UNL     1       1.572   3.969  19.649  0.00  0.00    +0.000 NA
ATOM      6  C   UNL     1       0.905   3.555  20.781  0.00  0.00    +0.000 A 
ATOM      7  C   UNL     1       1.621   2.724  21.617  0.00  0.00    +0.000 A 
ATOM      8  S   UNL     1       3.158   2.397  20.920  0.00  0.00    +0.000 S 
ATOM      9  H   UNL     1       4.625   3.110  18.860  0.00  0.00    +0.000 HD
ENDROOT
BRANCH   2  10
ATOM     10  C   UNL     1       4.899   4.831  16.933  0.00  0.00    +0.000 A 
ATOM     11  C   UNL     1       5.946   5.695  17.335  0.00  0.00    +0.000 A 
ATOM     12  C   UNL     1       7.030   5.945  16.491  0.00  0.00    +0.000 A 
ATOM     13  C   UNL     1       7.025   5.336  15.257  0.00  0.00    +0.000 A 
ATOM     14  C   UNL     1       6.011   4.490  14.866  0.00  0.00    +0.000 A 
ATOM     15  C   UNL     1       4.934   4.205  15.681  0.00  0.00    +0.000 A 
ATOM     16  O   UNL     1       6.191   4.021  13.602  0.00  0.00    +0.000 OA
ATOM     17  C   UNL     1       7.391   4.727  13.218  0.00  0.00    +0.000 C 
ATOM     18  O   UNL     1       7.965   5.502  14.289  0.00  0.00    +0.000 OA
ENDBRANCH   2  10
TORSDOF 1
ENDMDL
MODEL 8
REMARK VINA RESULT:      -6.5      1.046      1.465
REMARK  Name = 
REMARK  1 active torsions:
REMARK  status: ('A' for Active; 'I' for Inactive)
REMARK    1  A    between atoms: C_2  and  C_9
REMARK                            x       y       z     vdW  Elec       q    Type
REMARK                         _______ _______ _______ _____ _____    ______ ____
ROOT
ATOM      1  O   UNL     1       6.116   5.621  16.902  0.00  0.00    +0.000 OA
ATOM      2  C   UNL     1       5.529   4.585  16.610  0.00  0.00    +0.000 C 
ATOM      3  N   UNL     1       5.610   3.887  15.427  0.00  0.00    +0.000 N 
ATOM      4  C   UNL     1       6.445   4.308  14.426  0.00  0.00    +0.000 A 
ATOM      5  N   UNL     1       7.421   5.176  14.480  0.00  0.00    +0.000 NA
ATOM      6  C   UNL     1       7.950   5.355  13.220  0.00  0.00    +0.000 A 
ATOM      7  C   UNL     1       7.358   4.612  12.221  0.00  0.00    +0.000 A 
ATOM      8  S   UNL     1       6.143   3.604  12.900  0.00  0.00    +0.000 S 
ATOM      9  H   UNL     1       4.954   3.157  15.200  0.00  0.00    +0.000 HD
ENDROOT
BRANCH   2  10
ATOM     10  C   UNL     1       4.568   4.051  17.608  0.00  0.00    +0.000 A 
ATOM     11  C   UNL     1       3.917   2.832  17.303  0.00  0.00    +0.000 A 
ATOM     12  C   UNL     1       2.930   2.318  18.147  0.00  0.00    +0.000 A 
ATOM     13  C   UNL     1       2.610   3.052  19.267  0.00  0.00    +0.000 A 
ATOM     14  C   UNL     1       3.247   4.235  19.569  0.00  0.00    +0.000 A 
ATOM     15  C   UNL     1       4.240   4.763  18.768  0.00  0.00    +0.000 A 
ATOM     16  O   UNL     1       2.758   4.807  20.703  0.00  0.00    +0.000 OA
ATOM     17  C   UNL     1       1.693   3.889  21.033  0.00  0.00    +0.000 C 
ATOM     18  O   UNL     1       1.645   2.736  20.170  0.00  0.00    +0.000 OA
ENDBRANCH   2  10
TORSDOF 1
ENDMDL
MODEL 9
REMARK VINA RESULT:      -6.4      5.449      7.400
REMARK  Name = 
REMARK  1 active torsions:
REMARK  status: ('A' for Active; 'I' for Inactive)
REMARK    1  A    between atoms: C_2  and  C_9
REMARK                            x       y       z     vdW  Elec       q    Type
REMARK                         _______ _______ _______ _____ _____    ______ ____
ROOT
ATOM      1  O   UNL     1       2.124   9.029  17.455  0.00  0.00    +0.000 OA
ATOM      2  C   UNL     1       2.349   8.099  18.221  0.00  0.00    +0.000 C 
ATOM      3  N   UNL     1       1.953   7.987  19.533  0.00  0.00    +0.000 N 
ATOM      4  C   UNL     1       1.189   8.964  20.115  0.00  0.00    +0.000 A 
ATOM      5  N   UNL     1       0.523   9.935  19.548  0.00  0.00    +0.000 NA
ATOM      6  C   UNL     1      -0.047  10.732  20.516  0.00  0.00    +0.000 A 
ATOM      7  C   UNL     1       0.202  10.349  21.817  0.00  0.00    +0.000 A 
ATOM      8  S   UNL     1       1.123   8.898  21.821  0.00  0.00    +0.000 S 
ATOM      9  H   UNL     1       2.340   7.283  20.143  0.00  0.00    +0.000 HD
ENDROOT
BRANCH   2  10
ATOM     10  C   UNL     1       3.199   6.995  17.708  0.00  0.00    +0.000 A 
ATOM     11  C   UNL     1       2.782   5.669  17.977  0.00  0.00    +0.000 A 
ATOM     12  C   UNL     1       3.578   4.581  17.612  0.00  0.00    +0.000 A 
ATOM     13  C   UNL     1       4.782   4.854  17.003  0.00  0.00    +0.000 A 
ATOM     14  C   UNL     1       5.187   6.143  16.735  0.00  0.00    +0.000 A 
ATOM     15  C   UNL     1       4.418   7.241  17.064  0.00  0.00    +0.000 A 
ATOM     16  O   UNL     1       6.417   6.185  16.156  0.00  0.00    +0.000 OA
ATOM     17  C   UNL     1       6.769   4.785  16.162  0.00  0.00    +0.000 C 
ATOM     18  O   UNL     1       5.705   3.931  16.626  0.00  0.00    +0.000 OA
ENDBRANCH   2  10
TORSDOF 1
ENDMDL
