MODEL 1
REMARK VINA RESULT:      -6.5      0.000      0.000
REMARK  Name = 
REMARK  4 active torsions:
REMARK  status: ('A' for Active; 'I' for Inactive)
REMARK    1  A    between atoms: C_1  and  C_2
REMARK    2  A    between atoms: C_2  and  C_3
REMARK    3  A    between atoms: C_3  and  C_4
REMARK    4  A    between atoms: C_4  and  N_5
REMARK                            x       y       z     vdW  Elec       q    Type
REMARK                         _______ _______ _______ _____ _____    ______ ____
ROOT
ATOM      1  N   UNL     1       4.503   2.808  18.644  0.00  0.00    +0.000 N 
ATOM      2  C   UNL     1       5.204   3.933  18.287  0.00  0.00    +0.000 A 
ATOM      3  N   UNL     1       6.160   4.410  19.028  0.00  0.00    +0.000 NA
ATOM      4  C   UNL     1       6.778   5.521  18.591  0.00  0.00    +0.000 A 
ATOM      5  N   UNL     1       7.831   6.097  19.244  0.00  0.00    +0.000 N 
ATOM      6  N   UNL     1       8.282   7.222  18.650  0.00  0.00    +0.000 NA
ATOM      7  C   UNL     1       7.490   7.342  17.579  0.00  0.00    +0.000 A 
ATOM      8  C   UNL     1       6.547   6.304  17.494  0.00  0.00    +0.000 A 
ATOM      9  C   UNL     1       5.531   6.031  16.533  0.00  0.00    +0.000 A 
ATOM     10  O   UNL     1       5.305   6.768  15.580  0.00  0.00    +0.000 OA
ATOM     11  S   UNL     1       4.608   4.560  16.756  0.00  0.00    +0.000 S 
ATOM     12  H   UNL     1       3.685   2.636  18.070  0.00  0.00    +0.000 HD
ATOM     13  H   UNL     1       8.281   5.773  20.093  0.00  0.00    +0.000 HD
ENDROOT
BRANCH   1  14
ATOM     14  C   UNL     1       4.404   2.358  20.018  0.00  0.00    +0.000 C 
BRANCH  14  15
ATOM     15  C   UNL     1       3.122   2.882  20.666  0.00  0.00    +0.000 C 
BRANCH  15  17
ATOM     16  C   UNL     1       0.838   3.809  20.134  0.00  0.00    +0.000 C 
ATOM     17  C   UNL     1       1.921   2.825  19.721  0.00  0.00    +0.000 C 
ENDBRANCH  15  17
ENDBRANCH  14  15
ENDBRANCH   1  14
TORSDOF 3
ENDMDL
MODEL 2
REMARK VINA RESULT:      -6.5      3.547      5.537
REMARK  Name = 
REMARK  4 active torsions:
REMARK  status: ('A' for Active; 'I' for Inactive)
REMARK    1  A    between atoms: C_1  and  C_2
REMARK    2  A    between atoms: C_2  and  C_3
REMARK    3  A    between atoms: C_3  and  C_4
REMARK    4  A    between atoms: C_4  and  N_5
REMARK                            x       y       z     vdW  Elec       q    Type
REMARK                         _______ _______ _______ _____ _____    ______ ____
ROOT
ATOM      1  N   UNL     1       6.450   3.984  14.897  0.00  0.00    +0.000 N 
ATOM      2  C   UNL     1       5.901   4.290  16.117  0.00  0.00    +0.000 A 
ATOM      3  N   UNL     1       4.615   4.326  16.303  0.00  0.00    +0.000 NA
ATOM      4  C   UNL     1       4.182   4.645  17.535  0.00  0.00    +0.000 A 
ATOM      5  N   UNL     1       2.860   4.668  17.880  0.00  0.00    +0.000 N 
ATOM      6  N   UNL     1       2.645   5.044  19.159  0.00  0.00    +0.000 NA
ATOM      7  C   UNL     1       3.879   5.248  19.631  0.00  0.00    +0.000 A 
ATOM      8  C   UNL     1       4.868   5.003  18.662  0.00  0.00    +0.000 A 
ATOM      9  C   UNL     1       6.289   5.081  18.727  0.00  0.00    +0.000 A 
ATOM     10  O   UNL     1       6.887   5.450  19.731  0.00  0.00    +0.000 OA
ATOM     11  S   UNL     1       7.172   4.605  17.292  0.00  0.00    +0.000 S 
ATOM     12  H   UNL     1       7.449   4.148  14.844  0.00  0.00    +0.000 HD
ATOM     13  H   UNL     1       2.066   4.442  17.292  0.00  0.00    +0.000 HD
ENDROOT
BRANCH   1  14
ATOM     14  C   UNL     1       5.723   4.156  13.654  0.00  0.00    +0.000 C 
BRANCH  14  15
ATOM     15  C   UNL     1       6.452   3.461  12.504  0.00  0.00    +0.000 C 
BRANCH  15  17
ATOM     16  C   UNL     1       4.205   3.230  11.383  0.00  0.00    +0.000 C 
ATOM     17  C   UNL     1       5.531   2.553  11.688  0.00  0.00    +0.000 C 
ENDBRANCH  15  17
ENDBRANCH  14  15
ENDBRANCH   1  14
TORSDOF 3
ENDMDL
MODEL 3
REMARK VINA RESULT:      -6.4      1.753      2.104
REMARK  Name = 
REMARK  4 active torsions:
REMARK  status: ('A' for Active; 'I' for Inactive)
REMARK    1  A    between atoms: C_1  and  C_2
REMARK    2  A    between atoms: C_2  and  C_3
REMARK    3  A    between atoms: C_3  and  C_4
REMARK    4  A    between atoms: C_4  and  N_5
REMARK                            x       y       z     vdW  Elec       q    Type
REMARK                         _______ _______ _______ _____ _____    ______ ____
ROOT
ATOM      1  N   UNL     1       2.865   3.554  16.992  0.00  0.00    +0.000 N 
ATOM      2  C   UNL     1       4.141   3.970  17.274  0.00  0.00    +0.000 A 
ATOM      3  N   UNL     1       4.497   4.333  18.471  0.00  0.00    +0.000 NA
ATOM      4  C   UNL     1       5.769   4.731  18.639  0.00  0.00    +0.000 A 
ATOM      5  N   UNL     1       6.288   5.088  19.851  0.00  0.00    +0.000 N 
ATOM      6  N   UNL     1       7.577   5.484  19.790  0.00  0.00    +0.000 NA
ATOM      7  C   UNL     1       7.876   5.355  18.493  0.00  0.00    +0.000 A 
ATOM      8  C   UNL     1       6.789   4.880  17.740  0.00  0.00    +0.000 A 
ATOM      9  C   UNL     1       6.661   4.589  16.351  0.00  0.00    +0.000 A 
ATOM     10  O   UNL     1       7.570   4.773  15.549  0.00  0.00    +0.000 OA
ATOM     11  S   UNL     1       5.130   3.925  15.820  0.00  0.00    +0.000 S 
ATOM     12  H   UNL     1       2.676   3.455  16.000  0.00  0.00    +0.000 HD
ATOM     13  H   UNL     1       5.815   5.084  20.748  0.00  0.00    +0.000 HD
ENDROOT
BRANCH   1  14
ATOM     14  C   UNL     1       1.727   3.929  17.808  0.00  0.00    +0.000 C 
BRANCH  14  15
ATOM     15  C   UNL     1       1.154   2.707  18.527  0.00  0.00    +0.000 C 
BRANCH  15  17
ATOM     16  C   UNL     1       1.166   4.162  20.587  0.00  0.00    +0.000 C 
ATOM     17  C   UNL     1       1.373   2.759  20.040  0.00  0.00    +0.000 C 
ENDBRANCH  15  17
ENDBRANCH  14  15
ENDBRANCH   1  14
TORSDOF 3
ENDMDL
MODEL 4
REMARK VINA RESULT:      -6.4      2.860      3.232
REMARK  Name = 
REMARK  4 active torsions:
REMARK  status: ('A' for Active; 'I' for Inactive)
REMARK    1  A    between atoms: C_1  and  C_2
REMARK    2  A    between atoms: C_2  and  C_3
REMARK    3  A    between atoms: C_3  and  C_4
REMARK    4  A    between atoms: C_4  and  N_5
REMARK                            x       y       z     vdW  Elec       q    Type
REMARK                         _______ _______ _______ _____ _____    ______ ____
ROOT
ATOM      1  N   UNL     1       2.843   4.025  18.682  0.00  0.00    +0.000 N 
ATOM      2  C   UNL     1       3.991   4.213  17.954  0.00  0.00    +0.000 A 
ATOM      3  N   UNL     1       4.005   4.121  16.657  0.00  0.00    +0.000 NA
ATOM      4  C   UNL     1       5.183   4.316  16.041  0.00  0.00    +0.000 A 
ATOM      5  N   UNL     1       5.329   4.300  14.683  0.00  0.00    +0.000 N 
ATOM      6  N   UNL     1       6.602   4.487  14.276  0.00  0.00    +0.000 NA
ATOM      7  C   UNL     1       7.272   4.641  15.424  0.00  0.00    +0.000 A 
ATOM      8  C   UNL     1       6.432   4.553  16.547  0.00  0.00    +0.000 A 
ATOM      9  C   UNL     1       6.708   4.664  17.940  0.00  0.00    +0.000 A 
ATOM     10  O   UNL     1       7.840   4.829  18.380  0.00  0.00    +0.000 OA
ATOM     11  S   UNL     1       5.338   4.573  19.026  0.00  0.00    +0.000 S 
ATOM     12  H   UNL     1       2.998   3.964  19.683  0.00  0.00    +0.000 HD
ATOM     13  H   UNL     1       4.604   4.165  13.987  0.00  0.00    +0.000 HD
ENDROOT
BRANCH   1  14
ATOM     14  C   UNL     1       1.721   3.259  18.178  0.00  0.00    +0.000 C 
BRANCH  14  15
ATOM     15  C   UNL     1       0.750   2.917  19.309  0.00  0.00    +0.000 C 
BRANCH  15  17
ATOM     16  C   UNL     1       1.619   2.618  21.658  0.00  0.00    +0.000 C 
ATOM     17  C   UNL     1       1.112   3.610  20.624  0.00  0.00    +0.000 C 
ENDBRANCH  15  17
ENDBRANCH  14  15
ENDBRANCH   1  14
TORSDOF 3
ENDMDL
MODEL 5
REMARK VINA RESULT:      -6.4      0.886      1.044
REMARK  Name = 
REMARK  4 active torsions:
REMARK  status: ('A' for Active; 'I' for Inactive)
REMARK    1  A    between atoms: C_1  and  C_2
REMARK    2  A    between atoms: C_2  and  C_3
REMARK    3  A    between atoms: C_3  and  C_4
REMARK    4  A    between atoms: C_4  and  N_5
REMARK                            x       y       z     vdW  Elec       q    Type
REMARK                         _______ _______ _______ _____ _____    ______ ____
ROOT
ATOM      1  N   UNL     1       3.496   2.855  19.173  0.00  0.00    +0.000 N 
ATOM      2  C   UNL     1       4.413   3.762  18.705  0.00  0.00    +0.000 A 
ATOM      3  N   UNL     1       5.403   4.179  19.438  0.00  0.00    +0.000 NA
ATOM      4  C   UNL     1       6.240   5.075  18.887  0.00  0.00    +0.000 A 
ATOM      5  N   UNL     1       7.348   5.555  19.526  0.00  0.00    +0.000 N 
ATOM      6  N   UNL     1       8.032   6.468  18.804  0.00  0.00    +0.000 NA
ATOM      7  C   UNL     1       7.331   6.548  17.667  0.00  0.00    +0.000 A 
ATOM      8  C   UNL     1       6.215   5.694  17.668  0.00  0.00    +0.000 A 
ATOM      9  C   UNL     1       5.217   5.449  16.681  0.00  0.00    +0.000 A 
ATOM     10  O   UNL     1       5.181   6.047  15.612  0.00  0.00    +0.000 OA
ATOM     11  S   UNL     1       4.024   4.223  17.052  0.00  0.00    +0.000 S 
ATOM     12  H   UNL     1       2.691   2.737  18.568  0.00  0.00    +0.000 HD
ATOM     13  H   UNL     1       7.685   5.302  20.448  0.00  0.00    +0.000 HD
ENDROOT
BRANCH   1  14
ATOM     14  C   UNL     1       3.245   2.663  20.587  0.00  0.00    +0.000 C 
BRANCH  14  15
ATOM     15  C   UNL     1       1.752   2.786  20.891  0.00  0.00    +0.000 C 
BRANCH  15  17
ATOM     16  C   UNL     1       1.571   5.293  20.680  0.00  0.00    +0.000 C 
ATOM     17  C   UNL     1       1.095   3.951  20.148  0.00  0.00    +0.000 C 
ENDBRANCH  15  17
ENDBRANCH  14  15
ENDBRANCH   1  14
TORSDOF 3
ENDMDL
MODEL 6
REMARK VINA RESULT:      -6.3      3.278      6.571
REMARK  Name = 
REMARK  4 active torsions:
REMARK  status: ('A' for Active; 'I' for Inactive)
REMARK    1  A    between atoms: C_1  and  C_2
REMARK    2  A    between atoms: C_2  and  C_3
REMARK    3  A    between atoms: C_3  and  C_4
REMARK    4  A    between atoms: C_4  and  N_5
REMARK                            x       y       z     vdW  Elec       q    Type
REMARK                         _______ _______ _______ _____ _____    ______ ____
ROOT
ATOM      1  N   UNL     1       8.324   7.840  18.689  0.00  0.00    +0.000 N 
ATOM      2  C   UNL     1       7.652   6.813  18.076  0.00  0.00    +0.000 A 
ATOM      3  N   UNL     1       7.498   6.766  16.786  0.00  0.00    +0.000 NA
ATOM      4  C   UNL     1       6.817   5.720  16.287  0.00  0.00    +0.000 A 
ATOM      5  N   UNL     1       6.626   5.521  14.949  0.00  0.00    +0.000 N 
ATOM      6  N   UNL     1       5.888   4.426  14.667  0.00  0.00    +0.000 NA
ATOM      7  C   UNL     1       5.622   3.917  15.875  0.00  0.00    +0.000 A 
ATOM      8  C   UNL     1       6.186   4.680  16.912  0.00  0.00    +0.000 A 
ATOM      9  C   UNL     1       6.166   4.507  18.326  0.00  0.00    +0.000 A 
ATOM     10  O   UNL     1       5.556   3.596  18.873  0.00  0.00    +0.000 OA
ATOM     11  S   UNL     1       7.080   5.659  19.275  0.00  0.00    +0.000 S 
ATOM     12  H   UNL     1       8.235   7.843  19.699  0.00  0.00    +0.000 HD
ATOM     13  H   UNL     1       6.970   6.093  14.186  0.00  0.00    +0.000 HD
ENDROOT
BRANCH   1  14
ATOM     14  C   UNL     1       8.479   9.143  18.074  0.00  0.00    +0.000 C 
BRANCH  14  15
ATOM     15  C   UNL     1       9.182  10.109  19.029  0.00  0.00    +0.000 C 
BRANCH  15  17
ATOM     16  C   UNL     1      11.221  11.590  18.935  0.00  0.00    +0.000 C 
ATOM     17  C   UNL     1       9.884  11.253  18.295  0.00  0.00    +0.000 C 
ENDBRANCH  15  17
ENDBRANCH  14  15
ENDBRANCH   1  14
TORSDOF 3
ENDMDL
MODEL 7
REMARK VINA RESULT:      -6.2      2.784      3.255
REMARK  Name = 
REMARK  4 active torsions:
REMARK  status: ('A' for Active; 'I' for Inactive)
REMARK    1  A    between atoms: C_1  and  C_2
REMARK    2  A    between atoms: C_2  and  C_3
REMARK    3  A    between atoms: C_3  and  C_4
REMARK    4  A    between atoms: C_4  and  N_5
REMARK                            x       y       z     vdW  Elec       q    Type
REMARK                         _______ _______ _______ _____ _____    ______ ____
ROOT
ATOM      1  N   UNL     1       3.907   5.879  19.425  0.00  0.00    +0.000 N 
ATOM      2  C   UNL     1       4.831   5.631  18.441  0.00  0.00    +0.000 A 
ATOM      3  N   UNL     1       4.573   5.847  17.185  0.00  0.00    +0.000 NA
ATOM      4  C   UNL     1       5.545   5.564  16.302  0.00  0.00    +0.000 A 
ATOM      5  N   UNL     1       5.427   5.791  14.960  0.00  0.00    +0.000 N 
ATOM      6  N   UNL     1       6.509   5.406  14.251  0.00  0.00    +0.000 NA
ATOM      7  C   UNL     1       7.338   4.934  15.188  0.00  0.00    +0.000 A 
ATOM      8  C   UNL     1       6.788   5.021  16.479  0.00  0.00    +0.000 A 
ATOM      9  C   UNL     1       7.312   4.653  17.752  0.00  0.00    +0.000 A 
ATOM     10  O   UNL     1       8.409   4.123  17.889  0.00  0.00    +0.000 OA
ATOM     11  S   UNL     1       6.318   5.010  19.148  0.00  0.00    +0.000 S 
ATOM     12  H   UNL     1       4.171   5.519  20.335  0.00  0.00    +0.000 HD
ATOM     13  H   UNL     1       4.638   6.201  14.473  0.00  0.00    +0.000 HD
ENDROOT
BRANCH   1  14
ATOM     14  C   UNL     1       2.482   5.917  19.159  0.00  0.00    +0.000 C 
BRANCH  14  15
ATOM     15  C   UNL     1       1.881   4.514  19.246  0.00  0.00    +0.000 C 
BRANCH  15  17
ATOM     16  C   UNL     1       1.488   2.963  21.197  0.00  0.00    +0.000 C 
ATOM     17  C   UNL     1       1.109   4.285  20.547  0.00  0.00    +0.000 C 
ENDBRANCH  15  17
ENDBRANCH  14  15
ENDBRANCH   1  14
TORSDOF 3
ENDMDL
MODEL 8
REMARK VINA RESULT:      -6.2      3.101      5.888
REMARK  Name = 
REMARK  4 active torsions:
REMARK  status: ('A' for Active; 'I' for Inactive)
REMARK    1  A    between atoms: C_1  and  C_2
REMARK    2  A    between atoms: C_2  and  C_3
REMARK    3  A    between atoms: C_3  and  C_4
REMARK    4  A    between atoms: C_4  and  N_5
REMARK                            x       y       z     vdW  Elec       q    Type
REMARK                         _______ _______ _______ _____ _____    ______ ____
ROOT
ATOM      1  N   UNL     1       5.947   4.537  16.316  0.00  0.00    +0.000 N 
ATOM      2  C   UNL     1       4.797   4.352  17.040  0.00  0.00    +0.000 A 
ATOM      3  N   UNL     1       4.161   3.218  17.045  0.00  0.00    +0.000 NA
ATOM      4  C   UNL     1       3.040   3.145  17.781  0.00  0.00    +0.000 A 
ATOM      5  N   UNL     1       2.305   2.001  17.915  0.00  0.00    +0.000 N 
ATOM      6  N   UNL     1       1.201   2.157  18.676  0.00  0.00    +0.000 NA
ATOM      7  C   UNL     1       1.258   3.442  19.040  0.00  0.00    +0.000 A 
ATOM      8  C   UNL     1       2.388   4.095  18.518  0.00  0.00    +0.000 A 
ATOM      9  C   UNL     1       2.847   5.437  18.655  0.00  0.00    +0.000 A 
ATOM     10  O   UNL     1       2.225   6.289  19.280  0.00  0.00    +0.000 OA
ATOM     11  S   UNL     1       4.375   5.830  17.897  0.00  0.00    +0.000 S 
ATOM     12  H   UNL     1       6.252   5.503  16.269  0.00  0.00    +0.000 HD
ATOM     13  H   UNL     1       2.504   1.091  17.514  0.00  0.00    +0.000 HD
ENDROOT
BRANCH   1  14
ATOM     14  C   UNL     1       6.277   3.723  15.163  0.00  0.00    +0.000 C 
BRANCH  14  15
ATOM     15  C   UNL     1       5.578   4.255  13.911  0.00  0.00    +0.000 C 
BRANCH  15  17
ATOM     16  C   UNL     1       4.755   3.270  11.739  0.00  0.00    +0.000 C 
ATOM     17  C   UNL     1       5.955   3.473  12.651  0.00  0.00    +0.000 C 
ENDBRANCH  15  17
ENDBRANCH  14  15
ENDBRANCH   1  14
TORSDOF 3
ENDMDL
MODEL 9
REMARK VINA RESULT:      -6.2      2.868      5.332
REMARK  Name = 
REMARK  4 active torsions:
REMARK  status: ('A' for Active; 'I' for Inactive)
REMARK    1  A    between atoms: C_1  and  C_2
REMARK    2  A    between atoms: C_2  and  C_3
REMARK    3  A    between atoms: C_3  and  C_4
REMARK    4  A    between atoms: C_4  and  N_5
REMARK                            x       y       z     vdW  Elec       q    Type
REMARK                         _______ _______ _______ _____ _____    ______ ____
ROOT
ATOM      1  N   UNL     1       6.230   5.831  15.812  0.00  0.00    +0.000 N 
ATOM      2  C   UNL     1       5.485   5.425  16.891  0.00  0.00    +0.000 A 
ATOM      3  N   UNL     1       5.630   4.248  17.423  0.00  0.00    +0.000 NA
ATOM      4  C   UNL     1       4.846   3.947  18.471  0.00  0.00    +0.000 A 
ATOM      5  N   UNL     1       4.930   2.767  19.155  0.00  0.00    +0.000 N 
ATOM      6  N   UNL     1       4.029   2.659  20.154  0.00  0.00    +0.000 NA
ATOM      7  C   UNL     1       3.369   3.821  20.100  0.00  0.00    +0.000 A 
ATOM      8  C   UNL     1       3.847   4.658  19.078  0.00  0.00    +0.000 A 
ATOM      9  C   UNL     1       3.455   5.966  18.672  0.00  0.00    +0.000 A 
ATOM     10  O   UNL     1       2.526   6.572  19.195  0.00  0.00    +0.000 OA
ATOM     11  S   UNL     1       4.379   6.703  17.381  0.00  0.00    +0.000 S 
ATOM     12  H   UNL     1       5.911   6.699  15.397  0.00  0.00    +0.000 HD
ATOM     13  H   UNL     1       5.574   2.003  18.987  0.00  0.00    +0.000 HD
ENDROOT
BRANCH   1  14
ATOM     14  C   UNL     1       6.844   4.891  14.896  0.00  0.00    +0.000 C 
BRANCH  14  15
ATOM     15  C   UNL     1       5.783   4.207  14.034  0.00  0.00    +0.000 C 
BRANCH  15  17
ATOM     16  C   UNL     1       5.273   3.011  11.873  0.00  0.00    +0.000 C 
ATOM     17  C   UNL     1       6.353   3.657  12.726  0.00  0.00    +0.000 C 
ENDBRANCH  15  17
ENDBRANCH  14  15
ENDBRANCH   1  14
TORSDOF 3
ENDMDL
