MODEL 1
REMARK VINA RESULT:      -7.7      0.000      0.000
REMARK  Name = 
REMARK  7 active torsions:
REMARK  status: ('A' for Active; 'I' for Inactive)
REMARK    1  A    between atoms: C_1  and  O_2
REMARK    2  A    between atoms: O_2  and  C_3
REMARK    3  A    between atoms: C_3  and  C_5
REMARK    4  A    between atoms: C_8  and  N_9
REMARK    5  A    between atoms: C_10  and  C_12
REMARK    6  A    between atoms: C_14  and  C_15
REMARK    7  A    between atoms: C_15  and  C_16
REMARK                            x       y       z     vdW  Elec       q    Type
REMARK                         _______ _______ _______ _____ _____    ______ ____
ROOT
ATOM      1  N   UNL     1       8.952  10.729  17.700  0.00  0.00    +0.000 N 
ATOM      2  C   UNL     1       8.882   9.755  18.682  0.00  0.00    +0.000 C 
ATOM      3  O   UNL     1       9.271   9.894  19.838  0.00  0.00    +0.000 OA
ATOM      4  H   UNL     1       8.459  10.552  16.836  0.00  0.00    +0.000 HD
ENDROOT
BRANCH   1   8
ATOM      5  C   UNL     1      10.817  14.516  18.055  0.00  0.00    +0.000 A 
ATOM      6  C   UNL     1       9.451  14.388  18.317  0.00  0.00    +0.000 A 
ATOM      7  C   UNL     1       8.826  13.141  18.213  0.00  0.00    +0.000 A 
ATOM      8  C   UNL     1       9.547  12.003  17.846  0.00  0.00    +0.000 A 
ATOM      9  C   UNL     1      10.924  12.124  17.622  0.00  0.00    +0.000 A 
ATOM     10  C   UNL     1      11.554  13.375  17.711  0.00  0.00    +0.000 A 
BRANCH   5  11
ATOM     11  C   UNL     1      11.421  15.872  18.165  0.00  0.00    +0.000 C 
ATOM     12  O   UNL     1      12.106  16.233  19.107  0.00  0.00    +0.000 OA
BRANCH  11  14
ATOM     13  C   UNL     1      10.765  17.977  17.401  0.00  0.00    +0.000 C 
ATOM     14  O   UNL     1      11.096  16.625  17.086  0.00  0.00    +0.000 OA
ENDBRANCH  11  14
ENDBRANCH   5  11
ENDBRANCH   1   8
BRANCH   2  15
ATOM     15  C   UNL     1       8.283   8.505  18.283  0.00  0.00    +0.000 A 
ATOM     16  C   UNL     1       7.526   8.076  17.209  0.00  0.00    +0.000 A 
ATOM     17  C   UNL     1       7.344   6.681  17.411  0.00  0.00    +0.000 A 
ATOM     18  N   UNL     1       7.925   6.272  18.547  0.00  0.00    +0.000 NA
ATOM     19  N   UNL     1       8.454   7.389  19.062  0.00  0.00    +0.000 N 
ATOM     20  H   UNL     1       8.965   7.339  19.939  0.00  0.00    +0.000 HD
BRANCH  17  21
ATOM     21  C   UNL     1       6.718   5.687  16.489  0.00  0.00    +0.000 C 
BRANCH  21  22
ATOM     22  C   UNL     1       5.300   5.455  16.955  0.00  0.00    +0.000 A 
ATOM     23  C   UNL     1       4.736   4.169  16.918  0.00  0.00    +0.000 A 
ATOM     24  C   UNL     1       3.448   3.949  17.409  0.00  0.00    +0.000 A 
ATOM     25  C   UNL     1       2.723   5.009  17.939  0.00  0.00    +0.000 A 
ATOM     26  F   UNL     1       1.494   4.790  18.424  0.00  0.00    +0.000 F 
ATOM     27  C   UNL     1       3.256   6.291  17.976  0.00  0.00    +0.000 A 
ATOM     28  C   UNL     1       4.541   6.515  17.480  0.00  0.00    +0.000 A 
ENDBRANCH  21  22
ENDBRANCH  17  21
ENDBRANCH   2  15
TORSDOF 6
ENDMDL
MODEL 2
REMARK VINA RESULT:      -7.7      0.385      1.020
REMARK  Name = 
REMARK  7 active torsions:
REMARK  status: ('A' for Active; 'I' for Inactive)
REMARK    1  A    between atoms: C_1  and  O_2
REMARK    2  A    between atoms: O_2  and  C_3
REMARK    3  A    between atoms: C_3  and  C_5
REMARK    4  A    between atoms: C_8  and  N_9
REMARK    5  A    between atoms: C_10  and  C_12
REMARK    6  A    between atoms: C_14  and  C_15
REMARK    7  A    between atoms: C_15  and  C_16
REMARK                            x       y       z     vdW  Elec       q    Type
REMARK                         _______ _______ _______ _____ _____    ______ ____
ROOT
ATOM      1  N   UNL     1       8.746  10.954  17.758  0.00  0.00    +0.000 N 
ATOM      2  C   UNL     1       8.906   9.928  18.674  0.00  0.00    +0.000 C 
ATOM      3  O   UNL     1       9.483  10.033  19.752  0.00  0.00    +0.000 OA
ATOM      4  H   UNL     1       8.120  10.789  16.982  0.00  0.00    +0.000 HD
ENDROOT
BRANCH   1   8
ATOM      5  C   UNL     1      10.424  14.835  18.029  0.00  0.00    +0.000 A 
ATOM      6  C   UNL     1       9.116  14.612  18.465  0.00  0.00    +0.000 A 
ATOM      7  C   UNL     1       8.555  13.334  18.391  0.00  0.00    +0.000 A 
ATOM      8  C   UNL     1       9.282  12.257  17.880  0.00  0.00    +0.000 A 
ATOM      9  C   UNL     1      10.606  12.472  17.478  0.00  0.00    +0.000 A 
ATOM     10  C   UNL     1      11.170  13.755  17.538  0.00  0.00    +0.000 A 
BRANCH   5  11
ATOM     11  C   UNL     1      10.959  16.220  18.117  0.00  0.00    +0.000 C 
ATOM     12  O   UNL     1      11.975  16.515  18.724  0.00  0.00    +0.000 OA
BRANCH  11  14
ATOM     13  C   UNL     1      10.641  18.425  17.423  0.00  0.00    +0.000 C 
ATOM     14  O   UNL     1      10.162  17.082  17.439  0.00  0.00    +0.000 OA
ENDBRANCH  11  14
ENDBRANCH   5  11
ENDBRANCH   1   8
BRANCH   2  15
ATOM     15  C   UNL     1       8.320   8.662  18.306  0.00  0.00    +0.000 A 
ATOM     16  C   UNL     1       7.546   8.206  17.255  0.00  0.00    +0.000 A 
ATOM     17  C   UNL     1       7.393   6.811  17.479  0.00  0.00    +0.000 A 
ATOM     18  N   UNL     1       8.007   6.427  18.607  0.00  0.00    +0.000 NA
ATOM     19  N   UNL     1       8.529   7.561  19.094  0.00  0.00    +0.000 N 
ATOM     20  H   UNL     1       9.060   7.532  19.960  0.00  0.00    +0.000 HD
BRANCH  17  21
ATOM     21  C   UNL     1       6.763   5.794  16.586  0.00  0.00    +0.000 C 
BRANCH  21  22
ATOM     22  C   UNL     1       5.373   5.519  17.108  0.00  0.00    +0.000 A 
ATOM     23  C   UNL     1       4.523   6.576  17.472  0.00  0.00    +0.000 A 
ATOM     24  C   UNL     1       3.217   6.319  17.894  0.00  0.00    +0.000 A 
ATOM     25  C   UNL     1       2.758   5.009  17.950  0.00  0.00    +0.000 A 
ATOM     26  F   UNL     1       1.499   4.769  18.338  0.00  0.00    +0.000 F 
ATOM     27  C   UNL     1       3.583   3.947  17.605  0.00  0.00    +0.000 A 
ATOM     28  C   UNL     1       4.892   4.201  17.189  0.00  0.00    +0.000 A 
ENDBRANCH  21  22
ENDBRANCH  17  21
ENDBRANCH   2  15
TORSDOF 6
ENDMDL
MODEL 3
REMARK VINA RESULT:      -7.7      1.067      1.350
REMARK  Name = 
REMARK  7 active torsions:
REMARK  status: ('A' for Active; 'I' for Inactive)
REMARK    1  A    between atoms: C_1  and  O_2
REMARK    2  A    between atoms: O_2  and  C_3
REMARK    3  A    between atoms: C_3  and  C_5
REMARK    4  A    between atoms: C_8  and  N_9
REMARK    5  A    between atoms: C_10  and  C_12
REMARK    6  A    between atoms: C_14  and  C_15
REMARK    7  A    between atoms: C_15  and  C_16
REMARK                            x       y       z     vdW  Elec       q    Type
REMARK                         _______ _______ _______ _____ _____    ______ ____
ROOT
ATOM      1  N   UNL     1       8.689  10.633  17.637  0.00  0.00    +0.000 N 
ATOM      2  C   UNL     1       8.739   9.647  18.607  0.00  0.00    +0.000 C 
ATOM      3  O   UNL     1       9.152   9.808  19.751  0.00  0.00    +0.000 OA
ATOM      4  H   UNL     1       8.186  10.421  16.786  0.00  0.00    +0.000 HD
ENDROOT
BRANCH   1   8
ATOM      5  C   UNL     1      10.222  14.566  17.995  0.00  0.00    +0.000 A 
ATOM      6  C   UNL     1       8.853  14.338  18.149  0.00  0.00    +0.000 A 
ATOM      7  C   UNL     1       8.336  13.043  18.044  0.00  0.00    +0.000 A 
ATOM      8  C   UNL     1       9.170  11.954  17.781  0.00  0.00    +0.000 A 
ATOM      9  C   UNL     1      10.548  12.177  17.666  0.00  0.00    +0.000 A 
ATOM     10  C   UNL     1      11.070  13.476  17.757  0.00  0.00    +0.000 A 
BRANCH   5  11
ATOM     11  C   UNL     1      10.710  15.968  18.101  0.00  0.00    +0.000 C 
ATOM     12  O   UNL     1      11.625  16.312  18.829  0.00  0.00    +0.000 OA
BRANCH  11  14
ATOM     13  C   UNL     1      10.309  18.166  17.430  0.00  0.00    +0.000 C 
ATOM     14  O   UNL     1       9.993  16.782  17.288  0.00  0.00    +0.000 OA
ENDBRANCH  11  14
ENDBRANCH   5  11
ENDBRANCH   1   8
BRANCH   2  15
ATOM     15  C   UNL     1       8.244   8.351  18.210  0.00  0.00    +0.000 A 
ATOM     16  C   UNL     1       8.307   7.073  18.733  0.00  0.00    +0.000 A 
ATOM     17  C   UNL     1       7.519   6.271  17.863  0.00  0.00    +0.000 A 
ATOM     18  N   UNL     1       7.021   6.995  16.851  0.00  0.00    +0.000 NA
ATOM     19  N   UNL     1       7.494   8.229  17.069  0.00  0.00    +0.000 N 
ATOM     20  H   UNL     1       7.246   8.977  16.428  0.00  0.00    +0.000 HD
BRANCH  17  21
ATOM     21  C   UNL     1       7.130   4.839  18.023  0.00  0.00    +0.000 C 
BRANCH  21  22
ATOM     22  C   UNL     1       5.627   4.783  18.163  0.00  0.00    +0.000 A 
ATOM     23  C   UNL     1       4.986   5.392  19.255  0.00  0.00    +0.000 A 
ATOM     24  C   UNL     1       3.593   5.392  19.346  0.00  0.00    +0.000 A 
ATOM     25  C   UNL     1       2.838   4.787  18.348  0.00  0.00    +0.000 A 
ATOM     26  F   UNL     1       1.502   4.805  18.430  0.00  0.00    +0.000 F 
ATOM     27  C   UNL     1       3.450   4.170  17.264  0.00  0.00    +0.000 A 
ATOM     28  C   UNL     1       4.843   4.163  17.175  0.00  0.00    +0.000 A 
ENDBRANCH  21  22
ENDBRANCH  17  21
ENDBRANCH   2  15
TORSDOF 6
ENDMDL
MODEL 4
REMARK VINA RESULT:      -7.6      1.753      2.110
REMARK  Name = 
REMARK  7 active torsions:
REMARK  status: ('A' for Active; 'I' for Inactive)
REMARK    1  A    between atoms: C_1  and  O_2
REMARK    2  A    between atoms: O_2  and  C_3
REMARK    3  A    between atoms: C_3  and  C_5
REMARK    4  A    between atoms: C_8  and  N_9
REMARK    5  A    between atoms: C_10  and  C_12
REMARK    6  A    between atoms: C_14  and  C_15
REMARK    7  A    between atoms: C_15  and  C_16
REMARK                            x       y       z     vdW  Elec       q    Type
REMARK                         _______ _______ _______ _____ _____    ______ ____
ROOT
ATOM      1  N   UNL     1       9.185   9.389  19.377  0.00  0.00    +0.000 N 
ATOM      2  C   UNL     1       8.350   9.062  18.323  0.00  0.00    +0.000 C 
ATOM      3  O   UNL     1       7.977   9.844  17.453  0.00  0.00    +0.000 OA
ATOM      4  H   UNL     1       9.546   8.629  19.936  0.00  0.00    +0.000 HD
ENDROOT
BRANCH   1   8
ATOM      5  C   UNL     1      10.677  13.285  20.118  0.00  0.00    +0.000 A 
ATOM      6  C   UNL     1       9.810  12.688  21.035  0.00  0.00    +0.000 A 
ATOM      7  C   UNL     1       9.318  11.399  20.807  0.00  0.00    +0.000 A 
ATOM      8  C   UNL     1       9.679  10.683  19.664  0.00  0.00    +0.000 A 
ATOM      9  C   UNL     1      10.580  11.265  18.764  0.00  0.00    +0.000 A 
ATOM     10  C   UNL     1      11.065  12.564  18.980  0.00  0.00    +0.000 A 
BRANCH   5  11
ATOM     11  C   UNL     1      11.152  14.665  20.407  0.00  0.00    +0.000 C 
ATOM     12  O   UNL     1      10.792  15.315  21.373  0.00  0.00    +0.000 OA
BRANCH  11  14
ATOM     13  C   UNL     1      12.319  16.472  19.503  0.00  0.00    +0.000 C 
ATOM     14  O   UNL     1      12.021  15.078  19.452  0.00  0.00    +0.000 OA
ENDBRANCH  11  14
ENDBRANCH   5  11
ENDBRANCH   1   8
BRANCH   2  15
ATOM     15  C   UNL     1       7.921   7.685  18.267  0.00  0.00    +0.000 A 
ATOM     16  C   UNL     1       7.085   6.949  17.448  0.00  0.00    +0.000 A 
ATOM     17  C   UNL     1       7.184   5.611  17.916  0.00  0.00    +0.000 A 
ATOM     18  N   UNL     1       8.005   5.522  18.972  0.00  0.00    +0.000 NA
ATOM     19  N   UNL     1       8.408   6.783  19.176  0.00  0.00    +0.000 N 
ATOM     20  H   UNL     1       9.056   6.981  19.934  0.00  0.00    +0.000 HD
BRANCH  17  21
ATOM     21  C   UNL     1       6.599   4.375  17.315  0.00  0.00    +0.000 C 
BRANCH  21  22
ATOM     22  C   UNL     1       5.166   4.271  17.780  0.00  0.00    +0.000 A 
ATOM     23  C   UNL     1       4.822   4.558  19.112  0.00  0.00    +0.000 A 
ATOM     24  C   UNL     1       3.488   4.522  19.520  0.00  0.00    +0.000 A 
ATOM     25  C   UNL     1       2.496   4.201  18.602  0.00  0.00    +0.000 A 
ATOM     26  F   UNL     1       1.215   4.185  18.994  0.00  0.00    +0.000 F 
ATOM     27  C   UNL     1       2.812   3.903  17.282  0.00  0.00    +0.000 A 
ATOM     28  C   UNL     1       4.147   3.932  16.873  0.00  0.00    +0.000 A 
ENDBRANCH  21  22
ENDBRANCH  17  21
ENDBRANCH   2  15
TORSDOF 6
ENDMDL
MODEL 5
REMARK VINA RESULT:      -7.6      1.937      2.321
REMARK  Name = 
REMARK  7 active torsions:
REMARK  status: ('A' for Active; 'I' for Inactive)
REMARK    1  A    between atoms: C_1  and  O_2
REMARK    2  A    between atoms: O_2  and  C_3
REMARK    3  A    between atoms: C_3  and  C_5
REMARK    4  A    between atoms: C_8  and  N_9
REMARK    5  A    between atoms: C_10  and  C_12
REMARK    6  A    between atoms: C_14  and  C_15
REMARK    7  A    between atoms: C_15  and  C_16
REMARK                            x       y       z     vdW  Elec       q    Type
REMARK                         _______ _______ _______ _____ _____    ______ ____
ROOT
ATOM      1  N   UNL     1       9.220   9.544  19.134  0.00  0.00    +0.000 N 
ATOM      2  C   UNL     1       8.311   9.291  18.121  0.00  0.00    +0.000 C 
ATOM      3  O   UNL     1       7.800  10.147  17.406  0.00  0.00    +0.000 OA
ATOM      4  H   UNL     1       9.687   8.749  19.547  0.00  0.00    +0.000 HD
ENDROOT
BRANCH   1   8
ATOM      5  C   UNL     1      10.498  13.342  20.510  0.00  0.00    +0.000 A 
ATOM      6  C   UNL     1      10.846  12.915  19.227  0.00  0.00    +0.000 A 
ATOM      7  C   UNL     1      10.422  11.669  18.757  0.00  0.00    +0.000 A 
ATOM      8  C   UNL     1       9.647  10.824  19.555  0.00  0.00    +0.000 A 
ATOM      9  C   UNL     1       9.265  11.268  20.827  0.00  0.00    +0.000 A 
ATOM     10  C   UNL     1       9.699  12.513  21.309  0.00  0.00    +0.000 A 
BRANCH   5  11
ATOM     11  C   UNL     1      10.994  14.671  20.959  0.00  0.00    +0.000 C 
ATOM     12  O   UNL     1      10.595  15.238  21.961  0.00  0.00    +0.000 OA
BRANCH  11  14
ATOM     13  C   UNL     1      11.751  16.511  19.739  0.00  0.00    +0.000 C 
ATOM     14  O   UNL     1      11.932  15.142  20.100  0.00  0.00    +0.000 OA
ENDBRANCH  11  14
ENDBRANCH   5  11
ENDBRANCH   1   8
BRANCH   2  15
ATOM     15  C   UNL     1       7.978   7.903  17.910  0.00  0.00    +0.000 A 
ATOM     16  C   UNL     1       7.768   6.808  18.727  0.00  0.00    +0.000 A 
ATOM     17  C   UNL     1       7.387   5.754  17.852  0.00  0.00    +0.000 A 
ATOM     18  N   UNL     1       7.386   6.157  16.574  0.00  0.00    +0.000 NA
ATOM     19  N   UNL     1       7.771   7.438  16.637  0.00  0.00    +0.000 N 
ATOM     20  H   UNL     1       7.844   7.978  15.780  0.00  0.00    +0.000 HD
BRANCH  17  21
ATOM     21  C   UNL     1       6.912   4.384  18.206  0.00  0.00    +0.000 C 
BRANCH  21  22
ATOM     22  C   UNL     1       5.402   4.398  18.180  0.00  0.00    +0.000 A 
ATOM     23  C   UNL     1       4.697   3.772  17.137  0.00  0.00    +0.000 A 
ATOM     24  C   UNL     1       3.303   3.734  17.151  0.00  0.00    +0.000 A 
ATOM     25  C   UNL     1       2.608   4.317  18.204  0.00  0.00    +0.000 A 
ATOM     26  F   UNL     1       1.270   4.263  18.221  0.00  0.00    +0.000 F 
ATOM     27  C   UNL     1       3.282   4.951  19.240  0.00  0.00    +0.000 A 
ATOM     28  C   UNL     1       4.677   4.997  19.225  0.00  0.00    +0.000 A 
ENDBRANCH  21  22
ENDBRANCH  17  21
ENDBRANCH   2  15
TORSDOF 6
ENDMDL
MODEL 6
REMARK VINA RESULT:      -7.5      1.956      2.973
REMARK  Name = 
REMARK  7 active torsions:
REMARK  status: ('A' for Active; 'I' for Inactive)
REMARK    1  A    between atoms: C_1  and  O_2
REMARK    2  A    between atoms: O_2  and  C_3
REMARK    3  A    between atoms: C_3  and  C_5
REMARK    4  A    between atoms: C_8  and  N_9
REMARK    5  A    between atoms: C_10  and  C_12
REMARK    6  A    between atoms: C_14  and  C_15
REMARK    7  A    between atoms: C_15  and  C_16
REMARK                            x       y       z     vdW  Elec       q    Type
REMARK                         _______ _______ _______ _____ _____    ______ ____
ROOT
ATOM      1  N   UNL     1       7.547   8.700  17.561  0.00  0.00    +0.000 N 
ATOM      2  C   UNL     1       7.672   7.384  17.971  0.00  0.00    +0.000 C 
ATOM      3  O   UNL     1       8.429   6.993  18.855  0.00  0.00    +0.000 OA
ATOM      4  H   UNL     1       6.782   8.920  16.939  0.00  0.00    +0.000 HD
ENDROOT
BRANCH   1   8
ATOM      5  C   UNL     1       9.766  12.032  18.947  0.00  0.00    +0.000 A 
ATOM      6  C   UNL     1       9.933  10.785  19.555  0.00  0.00    +0.000 A 
ATOM      7  C   UNL     1       9.214   9.676  19.100  0.00  0.00    +0.000 A 
ATOM      8  C   UNL     1       8.317   9.787  18.036  0.00  0.00    +0.000 A 
ATOM      9  C   UNL     1       8.178  11.027  17.401  0.00  0.00    +0.000 A 
ATOM     10  C   UNL     1       8.887  12.147  17.862  0.00  0.00    +0.000 A 
BRANCH   5  11
ATOM     11  C   UNL     1      10.546  13.178  19.487  0.00  0.00    +0.000 C 
ATOM     12  O   UNL     1      11.597  13.055  20.094  0.00  0.00    +0.000 OA
BRANCH  11  14
ATOM     13  C   UNL     1      10.672  15.222  18.368  0.00  0.00    +0.000 C 
ATOM     14  O   UNL     1       9.922  14.349  19.212  0.00  0.00    +0.000 OA
ENDBRANCH  11  14
ENDBRANCH   5  11
ENDBRANCH   1   8
BRANCH   2  15
ATOM     15  C   UNL     1       6.820   6.433  17.299  0.00  0.00    +0.000 A 
ATOM     16  C   UNL     1       6.416   5.134  17.541  0.00  0.00    +0.000 A 
ATOM     17  C   UNL     1       5.492   4.829  16.504  0.00  0.00    +0.000 A 
ATOM     18  N   UNL     1       5.351   5.858  15.657  0.00  0.00    +0.000 NA
ATOM     19  N   UNL     1       6.179   6.793  16.142  0.00  0.00    +0.000 N 
ATOM     20  H   UNL     1       6.248   7.689  15.669  0.00  0.00    +0.000 HD
BRANCH  17  21
ATOM     21  C   UNL     1       4.644   3.610  16.350  0.00  0.00    +0.000 C 
BRANCH  21  22
ATOM     22  C   UNL     1       3.638   3.602  17.476  0.00  0.00    +0.000 A 
ATOM     23  C   UNL     1       3.601   2.541  18.396  0.00  0.00    +0.000 A 
ATOM     24  C   UNL     1       2.712   2.569  19.471  0.00  0.00    +0.000 A 
ATOM     25  C   UNL     1       1.862   3.656  19.633  0.00  0.00    +0.000 A 
ATOM     26  F   UNL     1       1.023   3.688  20.676  0.00  0.00    +0.000 F 
ATOM     27  C   UNL     1       1.873   4.712  18.730  0.00  0.00    +0.000 A 
ATOM     28  C   UNL     1       2.757   4.683  17.650  0.00  0.00    +0.000 A 
ENDBRANCH  21  22
ENDBRANCH  17  21
ENDBRANCH   2  15
TORSDOF 6
ENDMDL
MODEL 7
REMARK VINA RESULT:      -7.4      7.461      9.121
REMARK  Name = 
REMARK  7 active torsions:
REMARK  status: ('A' for Active; 'I' for Inactive)
REMARK    1  A    between atoms: C_1  and  O_2
REMARK    2  A    between atoms: O_2  and  C_3
REMARK    3  A    between atoms: C_3  and  C_5
REMARK    4  A    between atoms: C_8  and  N_9
REMARK    5  A    between atoms: C_10  and  C_12
REMARK    6  A    between atoms: C_14  and  C_15
REMARK    7  A    between atoms: C_15  and  C_16
REMARK                            x       y       z     vdW  Elec       q    Type
REMARK                         _______ _______ _______ _____ _____    ______ ____
ROOT
ATOM      1  N   UNL     1       1.450   8.021  21.150  0.00  0.00    +0.000 N 
ATOM      2  C   UNL     1       1.913   7.782  19.868  0.00  0.00    +0.000 C 
ATOM      3  O   UNL     1       1.816   8.566  18.929  0.00  0.00    +0.000 OA
ATOM      4  H   UNL     1       1.726   7.369  21.872  0.00  0.00    +0.000 HD
ENDROOT
BRANCH   1   8
ATOM      5  C   UNL     1      -0.696  11.412  22.509  0.00  0.00    +0.000 A 
ATOM      6  C   UNL     1       0.034  11.482  21.321  0.00  0.00    +0.000 A 
ATOM      7  C   UNL     1       0.738  10.367  20.856  0.00  0.00    +0.000 A 
ATOM      8  C   UNL     1       0.730   9.165  21.565  0.00  0.00    +0.000 A 
ATOM      9  C   UNL     1      -0.034   9.081  22.736  0.00  0.00    +0.000 A 
ATOM     10  C   UNL     1      -0.732  10.201  23.214  0.00  0.00    +0.000 A 
BRANCH   5  11
ATOM     11  C   UNL     1      -1.410  12.637  22.960  0.00  0.00    +0.000 C 
ATOM     12  O   UNL     1      -0.876  13.727  23.076  0.00  0.00    +0.000 OA
BRANCH  11  14
ATOM     13  C   UNL     1      -3.628  12.987  22.323  0.00  0.00    +0.000 C 
ATOM     14  O   UNL     1      -2.712  12.359  23.219  0.00  0.00    +0.000 OA
ENDBRANCH  11  14
ENDBRANCH   5  11
ENDBRANCH   1   8
BRANCH   2  15
ATOM     15  C   UNL     1       2.568   6.513  19.664  0.00  0.00    +0.000 A 
ATOM     16  C   UNL     1       3.803   6.110  19.191  0.00  0.00    +0.000 A 
ATOM     17  C   UNL     1       3.820   4.696  19.342  0.00  0.00    +0.000 A 
ATOM     18  N   UNL     1       2.665   4.245  19.850  0.00  0.00    +0.000 NA
ATOM     19  N   UNL     1       1.925   5.352  20.006  0.00  0.00    +0.000 N 
ATOM     20  H   UNL     1       0.988   5.273  20.390  0.00  0.00    +0.000 HD
BRANCH  17  21
ATOM     21  C   UNL     1       4.957   3.756  19.117  0.00  0.00    +0.000 C 
BRANCH  21  22
ATOM     22  C   UNL     1       5.565   4.079  17.773  0.00  0.00    +0.000 A 
ATOM     23  C   UNL     1       4.828   3.895  16.591  0.00  0.00    +0.000 A 
ATOM     24  C   UNL     1       5.371   4.255  15.357  0.00  0.00    +0.000 A 
ATOM     25  C   UNL     1       6.647   4.801  15.300  0.00  0.00    +0.000 A 
ATOM     26  F   UNL     1       7.157   5.162  14.115  0.00  0.00    +0.000 F 
ATOM     27  C   UNL     1       7.399   4.983  16.453  0.00  0.00    +0.000 A 
ATOM     28  C   UNL     1       6.860   4.617  17.689  0.00  0.00    +0.000 A 
ENDBRANCH  21  22
ENDBRANCH  17  21
ENDBRANCH   2  15
TORSDOF 6
ENDMDL
MODEL 8
REMARK VINA RESULT:      -7.4      2.128      3.122
REMARK  Name = 
REMARK  7 active torsions:
REMARK  status: ('A' for Active; 'I' for Inactive)
REMARK    1  A    between atoms: C_1  and  O_2
REMARK    2  A    between atoms: O_2  and  C_3
REMARK    3  A    between atoms: C_3  and  C_5
REMARK    4  A    between atoms: C_8  and  N_9
REMARK    5  A    between atoms: C_10  and  C_12
REMARK    6  A    between atoms: C_14  and  C_15
REMARK    7  A    between atoms: C_15  and  C_16
REMARK                            x       y       z     vdW  Elec       q    Type
REMARK                         _______ _______ _______ _____ _____    ______ ____
ROOT
ATOM      1  N   UNL     1       7.614   8.543  17.714  0.00  0.00    +0.000 N 
ATOM      2  C   UNL     1       7.780   7.260  18.207  0.00  0.00    +0.000 C 
ATOM      3  O   UNL     1       8.538   6.952  19.122  0.00  0.00    +0.000 OA
ATOM      4  H   UNL     1       6.851   8.697  17.070  0.00  0.00    +0.000 HD
ENDROOT
BRANCH   1   8
ATOM      5  C   UNL     1       9.694  12.032  18.917  0.00  0.00    +0.000 A 
ATOM      6  C   UNL     1       9.916  10.826  19.586  0.00  0.00    +0.000 A 
ATOM      7  C   UNL     1       9.243   9.665  19.192  0.00  0.00    +0.000 A 
ATOM      8  C   UNL     1       8.338   9.684  18.129  0.00  0.00    +0.000 A 
ATOM      9  C   UNL     1       8.145  10.884  17.433  0.00  0.00    +0.000 A 
ATOM     10  C   UNL     1       8.807  12.055  17.833  0.00  0.00    +0.000 A 
BRANCH   5  11
ATOM     11  C   UNL     1      10.427  13.236  19.395  0.00  0.00    +0.000 C 
ATOM     12  O   UNL     1       9.877  14.255  19.777  0.00  0.00    +0.000 OA
BRANCH  11  14
ATOM     13  C   UNL     1      12.328  13.248  18.042  0.00  0.00    +0.000 C 
ATOM     14  O   UNL     1      11.765  13.032  19.335  0.00  0.00    +0.000 OA
ENDBRANCH  11  14
ENDBRANCH   5  11
ENDBRANCH   1   8
BRANCH   2  15
ATOM     15  C   UNL     1       6.971   6.240  17.586  0.00  0.00    +0.000 A 
ATOM     16  C   UNL     1       5.620   5.949  17.540  0.00  0.00    +0.000 A 
ATOM     17  C   UNL     1       5.505   4.835  16.664  0.00  0.00    +0.000 A 
ATOM     18  N   UNL     1       6.705   4.441  16.215  0.00  0.00    +0.000 NA
ATOM     19  N   UNL     1       7.565   5.282  16.806  0.00  0.00    +0.000 N 
ATOM     20  H   UNL     1       8.559   5.190  16.616  0.00  0.00    +0.000 HD
BRANCH  17  21
ATOM     21  C   UNL     1       4.262   4.191  16.146  0.00  0.00    +0.000 C 
BRANCH  21  22
ATOM     22  C   UNL     1       3.451   3.732  17.335  0.00  0.00    +0.000 A 
ATOM     23  C   UNL     1       3.938   2.733  18.193  0.00  0.00    +0.000 A 
ATOM     24  C   UNL     1       3.214   2.358  19.325  0.00  0.00    +0.000 A 
ATOM     25  C   UNL     1       2.003   2.980  19.604  0.00  0.00    +0.000 A 
ATOM     26  F   UNL     1       1.320   2.630  20.701  0.00  0.00    +0.000 F 
ATOM     27  C   UNL     1       1.495   3.964  18.765  0.00  0.00    +0.000 A 
ATOM     28  C   UNL     1       2.216   4.336  17.628  0.00  0.00    +0.000 A 
ENDBRANCH  21  22
ENDBRANCH  17  21
ENDBRANCH   2  15
TORSDOF 6
ENDMDL
MODEL 9
REMARK VINA RESULT:      -7.4      1.898      3.048
REMARK  Name = 
REMARK  7 active torsions:
REMARK  status: ('A' for Active; 'I' for Inactive)
REMARK    1  A    between atoms: C_1  and  O_2
REMARK    2  A    between atoms: O_2  and  C_3
REMARK    3  A    between atoms: C_3  and  C_5
REMARK    4  A    between atoms: C_8  and  N_9
REMARK    5  A    between atoms: C_10  and  C_12
REMARK    6  A    between atoms: C_14  and  C_15
REMARK    7  A    between atoms: C_15  and  C_16
REMARK                            x       y       z     vdW  Elec       q    Type
REMARK                         _______ _______ _______ _____ _____    ______ ____
ROOT
ATOM      1  N   UNL     1       7.625   8.600  17.709  0.00  0.00    +0.000 N 
ATOM      2  C   UNL     1       7.814   7.316  18.190  0.00  0.00    +0.000 C 
ATOM      3  O   UNL     1       8.591   7.012  19.091  0.00  0.00    +0.000 OA
ATOM      4  H   UNL     1       6.849   8.748  17.078  0.00  0.00    +0.000 HD
ENDROOT
BRANCH   1   8
ATOM      5  C   UNL     1       9.682  12.107  18.900  0.00  0.00    +0.000 A 
ATOM      6  C   UNL     1       9.917  10.903  19.568  0.00  0.00    +0.000 A 
ATOM      7  C   UNL     1       9.252   9.737  19.178  0.00  0.00    +0.000 A 
ATOM      8  C   UNL     1       8.342   9.747  18.119  0.00  0.00    +0.000 A 
ATOM      9  C   UNL     1       8.135  10.945  17.424  0.00  0.00    +0.000 A 
ATOM     10  C   UNL     1       8.789  12.122  17.820  0.00  0.00    +0.000 A 
BRANCH   5  11
ATOM     11  C   UNL     1      10.406  13.317  19.373  0.00  0.00    +0.000 C 
ATOM     12  O   UNL     1      11.604  13.343  19.599  0.00  0.00    +0.000 OA
BRANCH  11  14
ATOM     13  C   UNL     1      10.030  15.584  18.965  0.00  0.00    +0.000 C 
ATOM     14  O   UNL     1       9.549  14.358  19.515  0.00  0.00    +0.000 OA
ENDBRANCH  11  14
ENDBRANCH   5  11
ENDBRANCH   1   8
BRANCH   2  15
ATOM     15  C   UNL     1       7.008   6.290  17.575  0.00  0.00    +0.000 A 
ATOM     16  C   UNL     1       5.654   6.029  17.480  0.00  0.00    +0.000 A 
ATOM     17  C   UNL     1       5.550   4.883  16.646  0.00  0.00    +0.000 A 
ATOM     18  N   UNL     1       6.758   4.442  16.269  0.00  0.00    +0.000 NA
ATOM     19  N   UNL     1       7.612   5.286  16.863  0.00  0.00    +0.000 N 
ATOM     20  H   UNL     1       8.610   5.163  16.722  0.00  0.00    +0.000 HD
BRANCH  17  21
ATOM     21  C   UNL     1       4.315   4.246  16.099  0.00  0.00    +0.000 C 
BRANCH  21  22
ATOM     22  C   UNL     1       3.479   3.782  17.268  0.00  0.00    +0.000 A 
ATOM     23  C   UNL     1       2.324   4.486  17.647  0.00  0.00    +0.000 A 
ATOM     24  C   UNL     1       1.520   4.017  18.687  0.00  0.00    +0.000 A 
ATOM     25  C   UNL     1       1.865   2.846  19.349  0.00  0.00    +0.000 A 
ATOM     26  F   UNL     1       1.082   2.390  20.335  0.00  0.00    +0.000 F 
ATOM     27  C   UNL     1       3.008   2.138  18.999  0.00  0.00    +0.000 A 
ATOM     28  C   UNL     1       3.817   2.608  17.964  0.00  0.00    +0.000 A 
ENDBRANCH  21  22
ENDBRANCH  17  21
ENDBRANCH   2  15
TORSDOF 6
ENDMDL
