MODEL 1
REMARK VINA RESULT:      -8.2      0.000      0.000
REMARK  Name = 
REMARK  7 active torsions:
REMARK  status: ('A' for Active; 'I' for Inactive)
REMARK    1  A    between atoms: C_8  and  C_9
REMARK    2  A    between atoms: C_9  and  N_10
REMARK    3  A    between atoms: N_10  and  C_11
REMARK    4  A    between atoms: C_11  and  C_12
REMARK    5  A    between atoms: C_12  and  C_13
REMARK    6  A    between atoms: C_16  and  S_17
REMARK    7  A    between atoms: S_17  and  O_20
REMARK                            x       y       z     vdW  Elec       q    Type
REMARK                         _______ _______ _______ _____ _____    ______ ____
ROOT
ATOM      1  N   UNL     1       0.651   2.636  18.756  0.00  0.00    +0.000 N 
ATOM      2  C   UNL     1       1.954   3.076  18.725  0.00  0.00    +0.000 A 
ATOM      3  N   UNL     1       2.878   2.304  19.294  0.00  0.00    +0.000 NA
ATOM      4  C   UNL     1       4.127   2.786  19.309  0.00  0.00    +0.000 A 
ATOM      5  N   UNL     1       5.083   2.023  20.005  0.00  0.00    +0.000 N 
ATOM      6  C   UNL     1       4.488   4.007  18.760  0.00  0.00    +0.000 A 
ATOM      7  N   UNL     1       5.766   4.469  18.791  0.00  0.00    +0.000 NA
ATOM      8  C   UNL     1       5.983   5.660  18.201  0.00  0.00    +0.000 A 
ATOM      9  C   UNL     1       4.951   6.341  17.581  0.00  0.00    +0.000 A 
ATOM     10  N   UNL     1       3.683   5.866  17.541  0.00  0.00    +0.000 NA
ATOM     11  C   UNL     1       3.436   4.695  18.143  0.00  0.00    +0.000 A 
ATOM     12  N   UNL     1       2.190   4.234  18.121  0.00  0.00    +0.000 NA
ATOM     13  H   UNL     1       0.601   1.632  18.857  0.00  0.00    +0.000 HD
ATOM     14  H   UNL     1       0.101   3.075  18.031  0.00  0.00    +0.000 HD
ATOM     15  H   UNL     1       4.716   1.103  20.208  0.00  0.00    +0.000 HD
ATOM     16  H   UNL     1       5.989   2.046  19.548  0.00  0.00    +0.000 HD
ENDROOT
BRANCH   8  17
ATOM     17  C   UNL     1       7.396   6.165  18.175  0.00  0.00    +0.000 C 
BRANCH  17  18
ATOM     18  N   UNL     1       7.672   7.067  17.050  0.00  0.00    +0.000 NA
ATOM     19  H   UNL     1       6.915   6.970  16.373  0.00  0.00    +0.000 HD
BRANCH  18  20
ATOM     20  C   UNL     1       7.715   8.469  17.498  0.00  0.00    +0.000 C 
BRANCH  20  21
ATOM     21  C   UNL     1       8.719   8.687  18.637  0.00  0.00    +0.000 C 
BRANCH  21  22
ATOM     22  C   UNL     1       8.997  10.137  18.910  0.00  0.00    +0.000 A 
ATOM     23  C   UNL     1       9.423  10.546  20.183  0.00  0.00    +0.000 A 
ATOM     24  C   UNL     1       9.715  11.885  20.426  0.00  0.00    +0.000 A 
ATOM     25  C   UNL     1       9.570  12.812  19.392  0.00  0.00    +0.000 A 
ATOM     26  C   UNL     1       9.149  12.419  18.119  0.00  0.00    +0.000 A 
ATOM     27  C   UNL     1       8.857  11.081  17.883  0.00  0.00    +0.000 A 
BRANCH  25  28
ATOM     28  S   UNL     1       9.992  14.504  19.689  0.00  0.00    +0.000 S 
ATOM     29  O   UNL     1      11.114  14.530  20.599  0.00  0.00    +0.000 OA
ATOM     30  O   UNL     1      10.015  15.178  18.410  0.00  0.00    +0.000 OA
BRANCH  28  31
ATOM     31  O   UNL     1       8.747  15.071  20.543  0.00  0.00    +0.000 OA
ATOM     32  H   UNL     1       8.139  14.318  20.709  0.00  0.00    +0.000 HD
ENDBRANCH  28  31
ENDBRANCH  25  28
ENDBRANCH  21  22
ENDBRANCH  20  21
ENDBRANCH  18  20
ENDBRANCH  17  18
ENDBRANCH   8  17
TORSDOF 7
ENDMDL
MODEL 2
REMARK VINA RESULT:      -8.0      0.681      1.145
REMARK  Name = 
REMARK  7 active torsions:
REMARK  status: ('A' for Active; 'I' for Inactive)
REMARK    1  A    between atoms: C_8  and  C_9
REMARK    2  A    between atoms: C_9  and  N_10
REMARK    3  A    between atoms: N_10  and  C_11
REMARK    4  A    between atoms: C_11  and  C_12
REMARK    5  A    between atoms: C_12  and  C_13
REMARK    6  A    between atoms: C_16  and  S_17
REMARK    7  A    between atoms: S_17  and  O_20
REMARK                            x       y       z     vdW  Elec       q    Type
REMARK                         _______ _______ _______ _____ _____    ______ ____
ROOT
ATOM      1  N   UNL     1       0.781   2.045  18.501  0.00  0.00    +0.000 N 
ATOM      2  C   UNL     1       2.059   2.552  18.532  0.00  0.00    +0.000 A 
ATOM      3  N   UNL     1       2.939   1.952  19.332  0.00  0.00    +0.000 NA
ATOM      4  C   UNL     1       4.157   2.505  19.394  0.00  0.00    +0.000 A 
ATOM      5  N   UNL     1       5.053   1.939  20.320  0.00  0.00    +0.000 N 
ATOM      6  C   UNL     1       4.531   3.627  18.672  0.00  0.00    +0.000 A 
ATOM      7  N   UNL     1       5.777   4.165  18.757  0.00  0.00    +0.000 NA
ATOM      8  C   UNL     1       6.015   5.243  17.985  0.00  0.00    +0.000 A 
ATOM      9  C   UNL     1       5.037   5.737  17.140  0.00  0.00    +0.000 A 
ATOM     10  N   UNL     1       3.803   5.185  17.049  0.00  0.00    +0.000 NA
ATOM     11  C   UNL     1       3.534   4.128  17.826  0.00  0.00    +0.000 A 
ATOM     12  N   UNL     1       2.319   3.595  17.754  0.00  0.00    +0.000 NA
ATOM     13  H   UNL     1       0.759   1.074  18.779  0.00  0.00    +0.000 HD
ATOM     14  H   UNL     1       0.304   2.313  17.651  0.00  0.00    +0.000 HD
ATOM     15  H   UNL     1       4.702   1.049  20.648  0.00  0.00    +0.000 HD
ATOM     16  H   UNL     1       6.006   1.935  19.969  0.00  0.00    +0.000 HD
ENDROOT
BRANCH   8  17
ATOM     17  C   UNL     1       7.399   5.820  18.020  0.00  0.00    +0.000 C 
BRANCH  17  18
ATOM     18  N   UNL     1       7.614   6.880  17.028  0.00  0.00    +0.000 NA
ATOM     19  H   UNL     1       6.905   6.783  16.301  0.00  0.00    +0.000 HD
BRANCH  18  20
ATOM     20  C   UNL     1       7.469   8.212  17.641  0.00  0.00    +0.000 C 
BRANCH  20  21
ATOM     21  C   UNL     1       8.644   8.561  18.562  0.00  0.00    +0.000 C 
BRANCH  21  22
ATOM     22  C   UNL     1       8.928  10.034  18.625  0.00  0.00    +0.000 A 
ATOM     23  C   UNL     1       8.363  10.902  17.677  0.00  0.00    +0.000 A 
ATOM     24  C   UNL     1       8.599  12.272  17.755  0.00  0.00    +0.000 A 
ATOM     25  C   UNL     1       9.408  12.766  18.780  0.00  0.00    +0.000 A 
ATOM     26  C   UNL     1       9.975  11.915  19.731  0.00  0.00    +0.000 A 
ATOM     27  C   UNL     1       9.739  10.547  19.646  0.00  0.00    +0.000 A 
BRANCH  25  28
ATOM     28  S   UNL     1       9.661  14.512  18.908  0.00  0.00    +0.000 S 
ATOM     29  O   UNL     1      10.145  14.796  20.239  0.00  0.00    +0.000 OA
ATOM     30  O   UNL     1      10.365  14.938  17.719  0.00  0.00    +0.000 OA
BRANCH  28  31
ATOM     31  O   UNL     1       8.169  15.124  18.865  0.00  0.00    +0.000 OA
ATOM     32  H   UNL     1       7.601  14.548  19.419  0.00  0.00    +0.000 HD
ENDBRANCH  28  31
ENDBRANCH  25  28
ENDBRANCH  21  22
ENDBRANCH  20  21
ENDBRANCH  18  20
ENDBRANCH  17  18
ENDBRANCH   8  17
TORSDOF 7
ENDMDL
MODEL 3
REMARK VINA RESULT:      -8.0      4.402      7.121
REMARK  Name = 
REMARK  7 active torsions:
REMARK  status: ('A' for Active; 'I' for Inactive)
REMARK    1  A    between atoms: C_8  and  C_9
REMARK    2  A    between atoms: C_9  and  N_10
REMARK    3  A    between atoms: N_10  and  C_11
REMARK    4  A    between atoms: C_11  and  C_12
REMARK    5  A    between atoms: C_12  and  C_13
REMARK    6  A    between atoms: C_16  and  S_17
REMARK    7  A    between atoms: S_17  and  O_20
REMARK                            x       y       z     vdW  Elec       q    Type
REMARK                         _______ _______ _______ _____ _____    ______ ____
ROOT
ATOM      1  N   UNL     1       8.168   8.596  17.039  0.00  0.00    +0.000 N 
ATOM      2  C   UNL     1       7.541   7.499  17.583  0.00  0.00    +0.000 A 
ATOM      3  N   UNL     1       8.051   6.991  18.703  0.00  0.00    +0.000 NA
ATOM      4  C   UNL     1       7.463   5.885  19.176  0.00  0.00    +0.000 A 
ATOM      5  N   UNL     1       8.068   5.286  20.296  0.00  0.00    +0.000 N 
ATOM      6  C   UNL     1       6.370   5.278  18.576  0.00  0.00    +0.000 A 
ATOM      7  N   UNL     1       5.795   4.155  19.081  0.00  0.00    +0.000 NA
ATOM      8  C   UNL     1       4.725   3.681  18.413  0.00  0.00    +0.000 A 
ATOM      9  C   UNL     1       4.244   4.337  17.294  0.00  0.00    +0.000 A 
ATOM     10  N   UNL     1       4.814   5.464  16.806  0.00  0.00    +0.000 NA
ATOM     11  C   UNL     1       5.894   5.942  17.439  0.00  0.00    +0.000 A 
ATOM     12  N   UNL     1       6.467   7.038  16.954  0.00  0.00    +0.000 NA
ATOM     13  H   UNL     1       8.689   9.109  17.735  0.00  0.00    +0.000 HD
ATOM     14  H   UNL     1       7.544   9.107  16.430  0.00  0.00    +0.000 HD
ATOM     15  H   UNL     1       8.743   5.916  20.709  0.00  0.00    +0.000 HD
ATOM     16  H   UNL     1       7.380   4.897  20.933  0.00  0.00    +0.000 HD
ENDROOT
BRANCH   8  17
ATOM     17  C   UNL     1       4.040   2.475  18.982  0.00  0.00    +0.000 C 
BRANCH  17  18
ATOM     18  N   UNL     1       2.976   2.805  19.938  0.00  0.00    +0.000 NA
ATOM     19  H   UNL     1       3.405   2.950  20.852  0.00  0.00    +0.000 HD
BRANCH  18  20
ATOM     20  C   UNL     1       2.285   4.045  19.548  0.00  0.00    +0.000 C 
BRANCH  20  21
ATOM     21  C   UNL     1       2.210   5.057  20.698  0.00  0.00    +0.000 C 
BRANCH  21  22
ATOM     22  C   UNL     1       1.990   6.467  20.231  0.00  0.00    +0.000 A 
ATOM     23  C   UNL     1       2.402   6.857  18.947  0.00  0.00    +0.000 A 
ATOM     24  C   UNL     1       2.166   8.155  18.501  0.00  0.00    +0.000 A 
ATOM     25  C   UNL     1       1.525   9.060  19.349  0.00  0.00    +0.000 A 
ATOM     26  C   UNL     1       1.108   8.686  20.628  0.00  0.00    +0.000 A 
ATOM     27  C   UNL     1       1.349   7.389  21.069  0.00  0.00    +0.000 A 
BRANCH  25  28
ATOM     28  S   UNL     1       1.179  10.692  18.760  0.00  0.00    +0.000 S 
ATOM     29  O   UNL     1       0.720  11.482  19.878  0.00  0.00    +0.000 OA
ATOM     30  O   UNL     1       2.289  11.097  17.927  0.00  0.00    +0.000 OA
BRANCH  28  31
ATOM     31  O   UNL     1      -0.119  10.498  17.822  0.00  0.00    +0.000 OA
ATOM     32  H   UNL     1      -0.891  10.850  18.314  0.00  0.00    +0.000 HD
ENDBRANCH  28  31
ENDBRANCH  25  28
ENDBRANCH  21  22
ENDBRANCH  20  21
ENDBRANCH  18  20
ENDBRANCH  17  18
ENDBRANCH   8  17
TORSDOF 7
ENDMDL
MODEL 4
REMARK VINA RESULT:      -7.8      5.507      7.173
REMARK  Name = 
REMARK  7 active torsions:
REMARK  status: ('A' for Active; 'I' for Inactive)
REMARK    1  A    between atoms: C_8  and  C_9
REMARK    2  A    between atoms: C_9  and  N_10
REMARK    3  A    between atoms: N_10  and  C_11
REMARK    4  A    between atoms: C_11  and  C_12
REMARK    5  A    between atoms: C_12  and  C_13
REMARK    6  A    between atoms: C_16  and  S_17
REMARK    7  A    between atoms: S_17  and  O_20
REMARK                            x       y       z     vdW  Elec       q    Type
REMARK                         _______ _______ _______ _____ _____    ______ ____
ROOT
ATOM      1  N   UNL     1       7.621   5.182  14.411  0.00  0.00    +0.000 N 
ATOM      2  C   UNL     1       6.943   4.949  15.585  0.00  0.00    +0.000 A 
ATOM      3  N   UNL     1       7.576   5.218  16.725  0.00  0.00    +0.000 NA
ATOM      4  C   UNL     1       6.920   4.920  17.854  0.00  0.00    +0.000 A 
ATOM      5  N   UNL     1       7.629   5.101  19.056  0.00  0.00    +0.000 N 
ATOM      6  C   UNL     1       5.644   4.377  17.882  0.00  0.00    +0.000 A 
ATOM      7  N   UNL     1       5.004   4.085  19.045  0.00  0.00    +0.000 NA
ATOM      8  C   UNL     1       3.760   3.581  18.930  0.00  0.00    +0.000 A 
ATOM      9  C   UNL     1       3.180   3.408  17.686  0.00  0.00    +0.000 A 
ATOM     10  N   UNL     1       3.819   3.716  16.533  0.00  0.00    +0.000 NA
ATOM     11  C   UNL     1       5.067   4.195  16.620  0.00  0.00    +0.000 A 
ATOM     12  N   UNL     1       5.704   4.482  15.490  0.00  0.00    +0.000 NA
ATOM     13  H   UNL     1       8.348   5.873  14.533  0.00  0.00    +0.000 HD
ATOM     14  H   UNL     1       6.981   5.289  13.637  0.00  0.00    +0.000 HD
ATOM     15  H   UNL     1       8.467   5.643  18.889  0.00  0.00    +0.000 HD
ATOM     16  H   UNL     1       7.027   5.437  19.801  0.00  0.00    +0.000 HD
ENDROOT
BRANCH   8  17
ATOM     17  C   UNL     1       3.013   3.303  20.201  0.00  0.00    +0.000 C 
BRANCH  17  18
ATOM     18  N   UNL     1       1.690   3.936  20.250  0.00  0.00    +0.000 NA
ATOM     19  H   UNL     1       1.088   3.367  20.846  0.00  0.00    +0.000 HD
BRANCH  18  20
ATOM     20  C   UNL     1       1.773   5.287  20.830  0.00  0.00    +0.000 C 
BRANCH  20  21
ATOM     21  C   UNL     1       2.426   6.293  19.874  0.00  0.00    +0.000 C 
BRANCH  21  22
ATOM     22  C   UNL     1       1.834   7.670  19.972  0.00  0.00    +0.000 A 
ATOM     23  C   UNL     1       1.805   8.506  18.845  0.00  0.00    +0.000 A 
ATOM     24  C   UNL     1       1.225   9.769  18.927  0.00  0.00    +0.000 A 
ATOM     25  C   UNL     1       0.684  10.193  20.143  0.00  0.00    +0.000 A 
ATOM     26  C   UNL     1       0.705   9.371  21.272  0.00  0.00    +0.000 A 
ATOM     27  C   UNL     1       1.288   8.111  21.184  0.00  0.00    +0.000 A 
BRANCH  25  28
ATOM     28  S   UNL     1      -0.099  11.776  20.229  0.00  0.00    +0.000 S 
ATOM     29  O   UNL     1       0.295  12.533  19.063  0.00  0.00    +0.000 OA
ATOM     30  O   UNL     1      -1.485  11.558  20.581  0.00  0.00    +0.000 OA
BRANCH  28  31
ATOM     31  O   UNL     1       0.634  12.505  21.468  0.00  0.00    +0.000 OA
ATOM     32  H   UNL     1       1.552  12.707  21.187  0.00  0.00    +0.000 HD
ENDBRANCH  28  31
ENDBRANCH  25  28
ENDBRANCH  21  22
ENDBRANCH  20  21
ENDBRANCH  18  20
ENDBRANCH  17  18
ENDBRANCH   8  17
TORSDOF 7
ENDMDL
MODEL 5
REMARK VINA RESULT:      -7.6      4.295      7.137
REMARK  Name = 
REMARK  7 active torsions:
REMARK  status: ('A' for Active; 'I' for Inactive)
REMARK    1  A    between atoms: C_8  and  C_9
REMARK    2  A    between atoms: C_9  and  N_10
REMARK    3  A    between atoms: N_10  and  C_11
REMARK    4  A    between atoms: C_11  and  C_12
REMARK    5  A    between atoms: C_12  and  C_13
REMARK    6  A    between atoms: C_16  and  S_17
REMARK    7  A    between atoms: S_17  and  O_20
REMARK                            x       y       z     vdW  Elec       q    Type
REMARK                         _______ _______ _______ _____ _____    ______ ____
ROOT
ATOM      1  N   UNL     1       8.788   9.498  17.871  0.00  0.00    +0.000 N 
ATOM      2  C   UNL     1       8.095   8.313  17.955  0.00  0.00    +0.000 A 
ATOM      3  N   UNL     1       8.443   7.464  18.919  0.00  0.00    +0.000 NA
ATOM      4  C   UNL     1       7.799   6.291  18.939  0.00  0.00    +0.000 A 
ATOM      5  N   UNL     1       8.241   5.350  19.887  0.00  0.00    +0.000 N 
ATOM      6  C   UNL     1       6.804   5.944  18.037  0.00  0.00    +0.000 A 
ATOM      7  N   UNL     1       6.168   4.743  18.084  0.00  0.00    +0.000 NA
ATOM      8  C   UNL     1       5.206   4.543  17.162  0.00  0.00    +0.000 A 
ATOM      9  C   UNL     1       4.885   5.532  16.249  0.00  0.00    +0.000 A 
ATOM     10  N   UNL     1       5.514   6.731  16.220  0.00  0.00    +0.000 NA
ATOM     11  C   UNL     1       6.492   6.945  17.110  0.00  0.00    +0.000 A 
ATOM     12  N   UNL     1       7.123   8.113  17.073  0.00  0.00    +0.000 NA
ATOM     13  H   UNL     1       9.203   9.750  18.756  0.00  0.00    +0.000 HD
ATOM     14  H   UNL     1       8.254  10.198  17.373  0.00  0.00    +0.000 HD
ATOM     15  H   UNL     1       8.848   5.794  20.564  0.00  0.00    +0.000 HD
ATOM     16  H   UNL     1       7.471   4.811  20.272  0.00  0.00    +0.000 HD
ENDROOT
BRANCH   8  17
ATOM     17  C   UNL     1       4.451   3.248  17.228  0.00  0.00    +0.000 C 
BRANCH  17  18
ATOM     18  N   UNL     1       3.515   3.175  18.355  0.00  0.00    +0.000 NA
ATOM     19  H   UNL     1       4.059   3.132  19.217  0.00  0.00    +0.000 HD
BRANCH  18  20
ATOM     20  C   UNL     1       2.660   4.373  18.408  0.00  0.00    +0.000 C 
BRANCH  20  21
ATOM     21  C   UNL     1       2.769   5.109  19.749  0.00  0.00    +0.000 C 
BRANCH  21  22
ATOM     22  C   UNL     1       2.261   6.522  19.690  0.00  0.00    +0.000 A 
ATOM     23  C   UNL     1       1.676   7.108  20.823  0.00  0.00    +0.000 A 
ATOM     24  C   UNL     1       1.238   8.428  20.779  0.00  0.00    +0.000 A 
ATOM     25  C   UNL     1       1.379   9.154  19.594  0.00  0.00    +0.000 A 
ATOM     26  C   UNL     1       1.961   8.584  18.460  0.00  0.00    +0.000 A 
ATOM     27  C   UNL     1       2.395   7.264  18.509  0.00  0.00    +0.000 A 
BRANCH  25  28
ATOM     28  S   UNL     1       0.869  10.848  19.558  0.00  0.00    +0.000 S 
ATOM     29  O   UNL     1       1.745  11.557  18.655  0.00  0.00    +0.000 OA
ATOM     30  O   UNL     1      -0.570  10.866  19.418  0.00  0.00    +0.000 OA
BRANCH  28  31
ATOM     31  O   UNL     1       1.247  11.398  21.027  0.00  0.00    +0.000 OA
ATOM     32  H   UNL     1       0.531  12.008  21.303  0.00  0.00    +0.000 HD
ENDBRANCH  28  31
ENDBRANCH  25  28
ENDBRANCH  21  22
ENDBRANCH  20  21
ENDBRANCH  18  20
ENDBRANCH  17  18
ENDBRANCH   8  17
TORSDOF 7
ENDMDL
MODEL 6
REMARK VINA RESULT:      -7.6      5.449      7.075
REMARK  Name = 
REMARK  7 active torsions:
REMARK  status: ('A' for Active; 'I' for Inactive)
REMARK    1  A    between atoms: C_8  and  C_9
REMARK    2  A    between atoms: C_9  and  N_10
REMARK    3  A    between atoms: N_10  and  C_11
REMARK    4  A    between atoms: C_11  and  C_12
REMARK    5  A    between atoms: C_12  and  C_13
REMARK    6  A    between atoms: C_16  and  S_17
REMARK    7  A    between atoms: S_17  and  O_20
REMARK                            x       y       z     vdW  Elec       q    Type
REMARK                         _______ _______ _______ _____ _____    ______ ____
ROOT
ATOM      1  N   UNL     1       7.495   5.182  14.473  0.00  0.00    +0.000 N 
ATOM      2  C   UNL     1       6.880   4.893  15.669  0.00  0.00    +0.000 A 
ATOM      3  N   UNL     1       7.529   5.209  16.787  0.00  0.00    +0.000 NA
ATOM      4  C   UNL     1       6.939   4.857  17.937  0.00  0.00    +0.000 A 
ATOM      5  N   UNL     1       7.673   5.091  19.114  0.00  0.00    +0.000 N 
ATOM      6  C   UNL     1       5.711   4.216  18.007  0.00  0.00    +0.000 A 
ATOM      7  N   UNL     1       5.137   3.872  19.190  0.00  0.00    +0.000 NA
ATOM      8  C   UNL     1       3.933   3.273  19.116  0.00  0.00    +0.000 A 
ATOM      9  C   UNL     1       3.325   3.058  17.892  0.00  0.00    +0.000 A 
ATOM     10  N   UNL     1       3.897   3.418  16.719  0.00  0.00    +0.000 NA
ATOM     11  C   UNL     1       5.106   3.992  16.765  0.00  0.00    +0.000 A 
ATOM     12  N   UNL     1       5.678   4.331  15.614  0.00  0.00    +0.000 NA
ATOM     13  H   UNL     1       8.170   5.927  14.573  0.00  0.00    +0.000 HD
ATOM     14  H   UNL     1       6.822   5.240  13.722  0.00  0.00    +0.000 HD
ATOM     15  H   UNL     1       8.460   5.696  18.921  0.00  0.00    +0.000 HD
ATOM     16  H   UNL     1       7.074   5.376  19.882  0.00  0.00    +0.000 HD
ENDROOT
BRANCH   8  17
ATOM     17  C   UNL     1       3.255   2.934  20.410  0.00  0.00    +0.000 C 
BRANCH  17  18
ATOM     18  N   UNL     1       2.012   3.682  20.631  0.00  0.00    +0.000 NA
ATOM     19  H   UNL     1       1.995   3.989  21.604  0.00  0.00    +0.000 HD
BRANCH  18  20
ATOM     20  C   UNL     1       1.955   4.875  19.769  0.00  0.00    +0.000 C 
BRANCH  20  21
ATOM     21  C   UNL     1       2.639   6.090  20.409  0.00  0.00    +0.000 C 
BRANCH  21  22
ATOM     22  C   UNL     1       1.991   7.394  20.041  0.00  0.00    +0.000 A 
ATOM     23  C   UNL     1       1.201   8.078  20.979  0.00  0.00    +0.000 A 
ATOM     24  C   UNL     1       0.629   9.304  20.649  0.00  0.00    +0.000 A 
ATOM     25  C   UNL     1       0.845   9.835  19.376  0.00  0.00    +0.000 A 
ATOM     26  C   UNL     1       1.630   9.166  18.434  0.00  0.00    +0.000 A 
ATOM     27  C   UNL     1       2.196   7.942  18.768  0.00  0.00    +0.000 A 
BRANCH  25  28
ATOM     28  S   UNL     1       0.161  11.418  18.979  0.00  0.00    +0.000 S 
ATOM     29  O   UNL     1      -1.018  11.204  18.172  0.00  0.00    +0.000 OA
ATOM     30  O   UNL     1       0.138  12.199  20.196  0.00  0.00    +0.000 OA
BRANCH  28  31
ATOM     31  O   UNL     1       1.244  12.067  17.975  0.00  0.00    +0.000 OA
ATOM     32  H   UNL     1       2.012  12.350  18.517  0.00  0.00    +0.000 HD
ENDBRANCH  28  31
ENDBRANCH  25  28
ENDBRANCH  21  22
ENDBRANCH  20  21
ENDBRANCH  18  20
ENDBRANCH  17  18
ENDBRANCH   8  17
TORSDOF 7
ENDMDL
MODEL 7
REMARK VINA RESULT:      -7.6      5.798      7.592
REMARK  Name = 
REMARK  7 active torsions:
REMARK  status: ('A' for Active; 'I' for Inactive)
REMARK    1  A    between atoms: C_8  and  C_9
REMARK    2  A    between atoms: C_9  and  N_10
REMARK    3  A    between atoms: N_10  and  C_11
REMARK    4  A    between atoms: C_11  and  C_12
REMARK    5  A    between atoms: C_12  and  C_13
REMARK    6  A    between atoms: C_16  and  S_17
REMARK    7  A    between atoms: S_17  and  O_20
REMARK                            x       y       z     vdW  Elec       q    Type
REMARK                         _______ _______ _______ _____ _____    ______ ____
ROOT
ATOM      1  N   UNL     1       7.801   4.748  15.090  0.00  0.00    +0.000 N 
ATOM      2  C   UNL     1       6.963   4.765  16.182  0.00  0.00    +0.000 A 
ATOM      3  N   UNL     1       7.476   5.162  17.344  0.00  0.00    +0.000 NA
ATOM      4  C   UNL     1       6.659   5.107  18.404  0.00  0.00    +0.000 A 
ATOM      5  N   UNL     1       7.230   5.420  19.651  0.00  0.00    +0.000 N 
ATOM      6  C   UNL     1       5.340   4.684  18.337  0.00  0.00    +0.000 A 
ATOM      7  N   UNL     1       4.535   4.640  19.431  0.00  0.00    +0.000 NA
ATOM      8  C   UNL     1       3.268   4.231  19.223  0.00  0.00    +0.000 A 
ATOM      9  C   UNL     1       2.830   3.908  17.951  0.00  0.00    +0.000 A 
ATOM     10  N   UNL     1       3.635   3.970  16.864  0.00  0.00    +0.000 NA
ATOM     11  C   UNL     1       4.906   4.350  17.049  0.00  0.00    +0.000 A 
ATOM     12  N   UNL     1       5.703   4.395  15.987  0.00  0.00    +0.000 NA
ATOM     13  H   UNL     1       8.575   5.385  15.207  0.00  0.00    +0.000 HD
ATOM     14  H   UNL     1       7.275   4.780  14.228  0.00  0.00    +0.000 HD
ATOM     15  H   UNL     1       8.134   5.855  19.522  0.00  0.00    +0.000 HD
ATOM     16  H   UNL     1       6.579   5.922  20.248  0.00  0.00    +0.000 HD
ENDROOT
BRANCH   8  17
ATOM     17  C   UNL     1       2.345   4.226  20.405  0.00  0.00    +0.000 C 
BRANCH  17  18
ATOM     18  N   UNL     1       2.369   5.479  21.169  0.00  0.00    +0.000 NA
ATOM     19  H   UNL     1       3.332   5.658  21.455  0.00  0.00    +0.000 HD
BRANCH  18  20
ATOM     20  C   UNL     1       1.915   6.609  20.342  0.00  0.00    +0.000 C 
BRANCH  20  21
ATOM     21  C   UNL     1       1.639   7.868  21.174  0.00  0.00    +0.000 C 
BRANCH  21  22
ATOM     22  C   UNL     1       0.861   8.912  20.426  0.00  0.00    +0.000 A 
ATOM     23  C   UNL     1      -0.126   9.662  21.084  0.00  0.00    +0.000 A 
ATOM     24  C   UNL     1      -0.823  10.653  20.399  0.00  0.00    +0.000 A 
ATOM     25  C   UNL     1      -0.532  10.884  19.053  0.00  0.00    +0.000 A 
ATOM     26  C   UNL     1       0.449  10.147  18.386  0.00  0.00    +0.000 A 
ATOM     27  C   UNL     1       1.139   9.156  19.074  0.00  0.00    +0.000 A 
BRANCH  25  28
ATOM     28  S   UNL     1      -1.382  12.181  18.201  0.00  0.00    +0.000 S 
ATOM     29  O   UNL     1      -0.456  13.273  18.015  0.00  0.00    +0.000 OA
ATOM     30  O   UNL     1      -2.104  11.579  17.102  0.00  0.00    +0.000 OA
BRANCH  28  31
ATOM     31  O   UNL     1      -2.453  12.719  19.281  0.00  0.00    +0.000 OA
ATOM     32  H   UNL     1      -3.104  13.271  18.798  0.00  0.00    +0.000 HD
ENDBRANCH  28  31
ENDBRANCH  25  28
ENDBRANCH  21  22
ENDBRANCH  20  21
ENDBRANCH  18  20
ENDBRANCH  17  18
ENDBRANCH   8  17
TORSDOF 7
ENDMDL
MODEL 8
REMARK VINA RESULT:      -7.5      3.060      4.248
REMARK  Name = 
REMARK  7 active torsions:
REMARK  status: ('A' for Active; 'I' for Inactive)
REMARK    1  A    between atoms: C_8  and  C_9
REMARK    2  A    between atoms: C_9  and  N_10
REMARK    3  A    between atoms: N_10  and  C_11
REMARK    4  A    between atoms: C_11  and  C_12
REMARK    5  A    between atoms: C_12  and  C_13
REMARK    6  A    between atoms: C_16  and  S_17
REMARK    7  A    between atoms: S_17  and  O_20
REMARK                            x       y       z     vdW  Elec       q    Type
REMARK                         _______ _______ _______ _____ _____    ______ ____
ROOT
ATOM      1  N   UNL     1       5.939   2.423  11.751  0.00  0.00    +0.000 N 
ATOM      2  C   UNL     1       6.215   3.367  12.713  0.00  0.00    +0.000 A 
ATOM      3  N   UNL     1       7.222   4.206  12.481  0.00  0.00    +0.000 NA
ATOM      4  C   UNL     1       7.513   5.071  13.461  0.00  0.00    +0.000 A 
ATOM      5  N   UNL     1       8.644   5.884  13.262  0.00  0.00    +0.000 N 
ATOM      6  C   UNL     1       6.820   5.136  14.660  0.00  0.00    +0.000 A 
ATOM      7  N   UNL     1       7.140   6.027  15.636  0.00  0.00    +0.000 NA
ATOM      8  C   UNL     1       6.372   5.999  16.743  0.00  0.00    +0.000 A 
ATOM      9  C   UNL     1       5.307   5.122  16.842  0.00  0.00    +0.000 A 
ATOM     10  N   UNL     1       4.985   4.249  15.857  0.00  0.00    +0.000 NA
ATOM     11  C   UNL     1       5.750   4.240  14.757  0.00  0.00    +0.000 A 
ATOM     12  N   UNL     1       5.448   3.373  13.797  0.00  0.00    +0.000 NA
ATOM     13  H   UNL     1       6.266   2.714  10.841  0.00  0.00    +0.000 HD
ATOM     14  H   UNL     1       4.991   2.083  11.837  0.00  0.00    +0.000 HD
ATOM     15  H   UNL     1       8.943   5.837  12.296  0.00  0.00    +0.000 HD
ATOM     16  H   UNL     1       8.509   6.817  13.638  0.00  0.00    +0.000 HD
ENDROOT
BRANCH   8  17
ATOM     17  C   UNL     1       6.671   7.009  17.811  0.00  0.00    +0.000 C 
BRANCH  17  18
ATOM     18  N   UNL     1       8.042   7.530  17.754  0.00  0.00    +0.000 NA
ATOM     19  H   UNL     1       8.432   7.296  16.841  0.00  0.00    +0.000 HD
BRANCH  18  20
ATOM     20  C   UNL     1       8.055   8.995  17.901  0.00  0.00    +0.000 C 
BRANCH  20  21
ATOM     21  C   UNL     1       9.020   9.463  18.997  0.00  0.00    +0.000 C 
BRANCH  21  22
ATOM     22  C   UNL     1       9.477  10.882  18.816  0.00  0.00    +0.000 A 
ATOM     23  C   UNL     1      10.576  11.368  19.542  0.00  0.00    +0.000 A 
ATOM     24  C   UNL     1      11.020  12.672  19.348  0.00  0.00    +0.000 A 
ATOM     25  C   UNL     1      10.354  13.490  18.433  0.00  0.00    +0.000 A 
ATOM     26  C   UNL     1       9.260  13.020  17.703  0.00  0.00    +0.000 A 
ATOM     27  C   UNL     1       8.820  11.717  17.902  0.00  0.00    +0.000 A 
BRANCH  25  28
ATOM     28  S   UNL     1      10.954  15.130  18.150  0.00  0.00    +0.000 S 
ATOM     29  O   UNL     1      11.351  15.227  16.765  0.00  0.00    +0.000 OA
ATOM     30  O   UNL     1      10.014  16.047  18.755  0.00  0.00    +0.000 OA
BRANCH  28  31
ATOM     31  O   UNL     1      12.333  15.187  18.986  0.00  0.00    +0.000 OA
ATOM     32  H   UNL     1      12.776  14.318  18.880  0.00  0.00    +0.000 HD
ENDBRANCH  28  31
ENDBRANCH  25  28
ENDBRANCH  21  22
ENDBRANCH  20  21
ENDBRANCH  18  20
ENDBRANCH  17  18
ENDBRANCH   8  17
TORSDOF 7
ENDMDL
MODEL 9
REMARK VINA RESULT:      -7.5      4.457      7.252
REMARK  Name = 
REMARK  7 active torsions:
REMARK  status: ('A' for Active; 'I' for Inactive)
REMARK    1  A    between atoms: C_8  and  C_9
REMARK    2  A    between atoms: C_9  and  N_10
REMARK    3  A    between atoms: N_10  and  C_11
REMARK    4  A    between atoms: C_11  and  C_12
REMARK    5  A    between atoms: C_12  and  C_13
REMARK    6  A    between atoms: C_16  and  S_17
REMARK    7  A    between atoms: S_17  and  O_20
REMARK                            x       y       z     vdW  Elec       q    Type
REMARK                         _______ _______ _______ _____ _____    ______ ____
ROOT
ATOM      1  N   UNL     1       8.791   9.484  17.945  0.00  0.00    +0.000 N 
ATOM      2  C   UNL     1       8.087   8.304  18.010  0.00  0.00    +0.000 A 
ATOM      3  N   UNL     1       8.444   7.425  18.944  0.00  0.00    +0.000 NA
ATOM      4  C   UNL     1       7.787   6.258  18.943  0.00  0.00    +0.000 A 
ATOM      5  N   UNL     1       8.237   5.287  19.856  0.00  0.00    +0.000 N 
ATOM      6  C   UNL     1       6.773   5.946  18.050  0.00  0.00    +0.000 A 
ATOM      7  N   UNL     1       6.125   4.751  18.075  0.00  0.00    +0.000 NA
ATOM      8  C   UNL     1       5.145   4.586  17.166  0.00  0.00    +0.000 A 
ATOM      9  C   UNL     1       4.818   5.603  16.287  0.00  0.00    +0.000 A 
ATOM     10  N   UNL     1       5.458   6.796  16.279  0.00  0.00    +0.000 NA
ATOM     11  C   UNL     1       6.454   6.976  17.157  0.00  0.00    +0.000 A 
ATOM     12  N   UNL     1       7.097   8.138  17.141  0.00  0.00    +0.000 NA
ATOM     13  H   UNL     1       9.224   9.707  18.830  0.00  0.00    +0.000 HD
ATOM     14  H   UNL     1       8.255  10.202  17.477  0.00  0.00    +0.000 HD
ATOM     15  H   UNL     1       8.861   5.706  20.534  0.00  0.00    +0.000 HD
ATOM     16  H   UNL     1       7.469   4.745  20.240  0.00  0.00    +0.000 HD
ENDROOT
BRANCH   8  17
ATOM     17  C   UNL     1       4.378   3.298  17.210  0.00  0.00    +0.000 C 
BRANCH  17  18
ATOM     18  N   UNL     1       3.460   3.204  18.350  0.00  0.00    +0.000 NA
ATOM     19  H   UNL     1       4.018   3.138  19.202  0.00  0.00    +0.000 HD
BRANCH  18  20
ATOM     20  C   UNL     1       2.612   4.404  18.444  0.00  0.00    +0.000 C 
BRANCH  20  21
ATOM     21  C   UNL     1       2.948   5.261  19.671  0.00  0.00    +0.000 C 
BRANCH  21  22
ATOM     22  C   UNL     1       2.396   6.655  19.587  0.00  0.00    +0.000 A 
ATOM     23  C   UNL     1       2.551   7.405  18.411  0.00  0.00    +0.000 A 
ATOM     24  C   UNL     1       2.009   8.684  18.321  0.00  0.00    +0.000 A 
ATOM     25  C   UNL     1       1.321   9.210  19.415  0.00  0.00    +0.000 A 
ATOM     26  C   UNL     1       1.157   8.475  20.591  0.00  0.00    +0.000 A 
ATOM     27  C   UNL     1       1.702   7.199  20.676  0.00  0.00    +0.000 A 
BRANCH  25  28
ATOM     28  S   UNL     1       0.588  10.815  19.278  0.00  0.00    +0.000 S 
ATOM     29  O   UNL     1       0.056  11.174  20.572  0.00  0.00    +0.000 OA
ATOM     30  O   UNL     1       1.517  11.657  18.559  0.00  0.00    +0.000 OA
BRANCH  28  31
ATOM     31  O   UNL     1      -0.707  10.571  18.346  0.00  0.00    +0.000 OA
ATOM     32  H   UNL     1      -1.464  11.027  18.772  0.00  0.00    +0.000 HD
ENDBRANCH  28  31
ENDBRANCH  25  28
ENDBRANCH  21  22
ENDBRANCH  20  21
ENDBRANCH  18  20
ENDBRANCH  17  18
ENDBRANCH   8  17
TORSDOF 7
ENDMDL
