MODEL 1
REMARK VINA RESULT:      -8.4      0.000      0.000
REMARK  Name = 
REMARK  3 active torsions:
REMARK  status: ('A' for Active; 'I' for Inactive)
REMARK    1  A    between atoms: C_4  and  N_5
REMARK    2  A    between atoms: C_13  and  C_14
REMARK    3  A    between atoms: C_14  and  C_15
REMARK                            x       y       z     vdW  Elec       q    Type
REMARK                         _______ _______ _______ _____ _____    ______ ____
ROOT
ATOM      1  O   UNL     1       1.081   3.224  21.280  0.00  0.00    +0.000 OA
ATOM      2  C   UNL     1       1.620   3.976  20.488  0.00  0.00    +0.000 A 
ATOM      3  C   UNL     1       1.490   5.440  20.640  0.00  0.00    +0.000 A 
ATOM      4  C   UNL     1       1.965   6.270  19.702  0.00  0.00    +0.000 A 
ATOM      5  N   UNL     1       2.653   5.766  18.614  0.00  0.00    +0.000 N 
ATOM      6  C   UNL     1       2.992   4.417  18.457  0.00  0.00    +0.000 A 
ATOM      7  C   UNL     1       3.914   3.962  17.483  0.00  0.00    +0.000 A 
ATOM      8  C   UNL     1       4.142   2.576  17.369  0.00  0.00    +0.000 A 
ATOM      9  C   UNL     1       3.519   1.662  18.218  0.00  0.00    +0.000 A 
ATOM     10  C   UNL     1       2.684   2.114  19.234  0.00  0.00    +0.000 A 
ATOM     11  C   UNL     1       2.445   3.483  19.360  0.00  0.00    +0.000 A 
ATOM     12  H   UNL     1       2.915   6.434  17.915  0.00  0.00    +0.000 HD
ENDROOT
BRANCH   4  13
ATOM     13  N   UNL     1       1.820   7.653  19.814  0.00  0.00    +0.000 N 
ATOM     14  C   UNL     1       1.517   8.368  21.071  0.00  0.00    +0.000 C 
ATOM     15  C   UNL     1       0.432   9.427  20.806  0.00  0.00    +0.000 C 
ATOM     16  O   UNL     1       0.793  10.321  19.736  0.00  0.00    +0.000 OA
ATOM     17  C   UNL     1       1.055   9.586  18.528  0.00  0.00    +0.000 C 
ATOM     18  C   UNL     1       2.196   8.591  18.743  0.00  0.00    +0.000 C 
ENDBRANCH   4  13
BRANCH   7  19
ATOM     19  C   UNL     1       4.746   4.860  16.576  0.00  0.00    +0.000 C 
BRANCH  19  20
ATOM     20  C   UNL     1       5.968   5.531  17.164  0.00  0.00    +0.000 A 
ATOM     21  C   UNL     1       6.321   6.839  16.799  0.00  0.00    +0.000 A 
ATOM     22  C   UNL     1       7.338   7.514  17.470  0.00  0.00    +0.000 A 
ATOM     23  C   UNL     1       8.010   6.903  18.526  0.00  0.00    +0.000 A 
ATOM     24  C   UNL     1       7.673   5.606  18.905  0.00  0.00    +0.000 A 
ATOM     25  C   UNL     1       6.670   4.915  18.220  0.00  0.00    +0.000 A 
ENDBRANCH  19  20
ENDBRANCH   7  19
TORSDOF 3
ENDMDL
MODEL 2
REMARK VINA RESULT:      -8.4      0.230      1.011
REMARK  Name = 
REMARK  3 active torsions:
REMARK  status: ('A' for Active; 'I' for Inactive)
REMARK    1  A    between atoms: C_4  and  N_5
REMARK    2  A    between atoms: C_13  and  C_14
REMARK    3  A    between atoms: C_14  and  C_15
REMARK                            x       y       z     vdW  Elec       q    Type
REMARK                         _______ _______ _______ _____ _____    ______ ____
ROOT
ATOM      1  O   UNL     1       0.944   3.114  21.224  0.00  0.00    +0.000 OA
ATOM      2  C   UNL     1       1.514   3.904  20.494  0.00  0.00    +0.000 A 
ATOM      3  C   UNL     1       1.381   5.358  20.717  0.00  0.00    +0.000 A 
ATOM      4  C   UNL     1       1.894   6.234  19.843  0.00  0.00    +0.000 A 
ATOM      5  N   UNL     1       2.623   5.785  18.758  0.00  0.00    +0.000 N 
ATOM      6  C   UNL     1       2.967   4.445  18.545  0.00  0.00    +0.000 A 
ATOM      7  C   UNL     1       3.926   4.038  17.586  0.00  0.00    +0.000 A 
ATOM      8  C   UNL     1       4.157   2.659  17.409  0.00  0.00    +0.000 A 
ATOM      9  C   UNL     1       3.500   1.704  18.184  0.00  0.00    +0.000 A 
ATOM     10  C   UNL     1       2.626   2.106  19.188  0.00  0.00    +0.000 A 
ATOM     11  C   UNL     1       2.383   3.467  19.375  0.00  0.00    +0.000 A 
ATOM     12  H   UNL     1       2.914   6.488  18.105  0.00  0.00    +0.000 HD
ENDROOT
BRANCH   4  13
ATOM     13  N   UNL     1       1.746   7.610  20.021  0.00  0.00    +0.000 N 
ATOM     14  C   UNL     1       1.470   8.266  21.315  0.00  0.00    +0.000 C 
ATOM     15  C   UNL     1       0.375   9.331  21.124  0.00  0.00    +0.000 C 
ATOM     16  O   UNL     1       0.706  10.274  20.088  0.00  0.00    +0.000 OA
ATOM     17  C   UNL     1       0.942   9.596  18.842  0.00  0.00    +0.000 C 
ATOM     18  C   UNL     1       2.092   8.597  18.984  0.00  0.00    +0.000 C 
ENDBRANCH   4  13
BRANCH   7  19
ATOM     19  C   UNL     1       4.795   4.979  16.760  0.00  0.00    +0.000 C 
BRANCH  19  20
ATOM     20  C   UNL     1       5.885   5.751  17.472  0.00  0.00    +0.000 A 
ATOM     21  C   UNL     1       6.617   5.171  18.518  0.00  0.00    +0.000 A 
ATOM     22  C   UNL     1       7.731   5.816  19.049  0.00  0.00    +0.000 A 
ATOM     23  C   UNL     1       8.143   7.044  18.538  0.00  0.00    +0.000 A 
ATOM     24  C   UNL     1       7.430   7.636  17.498  0.00  0.00    +0.000 A 
ATOM     25  C   UNL     1       6.298   7.005  16.977  0.00  0.00    +0.000 A 
ENDBRANCH  19  20
ENDBRANCH   7  19
TORSDOF 3
ENDMDL
MODEL 3
REMARK VINA RESULT:      -7.8      2.277      5.400
REMARK  Name = 
REMARK  3 active torsions:
REMARK  status: ('A' for Active; 'I' for Inactive)
REMARK    1  A    between atoms: C_4  and  N_5
REMARK    2  A    between atoms: C_13  and  C_14
REMARK    3  A    between atoms: C_14  and  C_15
REMARK                            x       y       z     vdW  Elec       q    Type
REMARK                         _______ _______ _______ _____ _____    ______ ____
ROOT
ATOM      1  O   UNL     1       3.518   1.728  17.317  0.00  0.00    +0.000 OA
ATOM      2  C   UNL     1       3.692   2.801  17.866  0.00  0.00    +0.000 A 
ATOM      3  C   UNL     1       4.862   3.635  17.524  0.00  0.00    +0.000 A 
ATOM      4  C   UNL     1       5.132   4.751  18.216  0.00  0.00    +0.000 A 
ATOM      5  N   UNL     1       4.272   5.175  19.211  0.00  0.00    +0.000 N 
ATOM      6  C   UNL     1       3.044   4.567  19.499  0.00  0.00    +0.000 A 
ATOM      7  C   UNL     1       2.066   5.163  20.331  0.00  0.00    +0.000 A 
ATOM      8  C   UNL     1       0.886   4.440  20.604  0.00  0.00    +0.000 A 
ATOM      9  C   UNL     1       0.652   3.187  20.041  0.00  0.00    +0.000 A 
ATOM     10  C   UNL     1       1.571   2.641  19.152  0.00  0.00    +0.000 A 
ATOM     11  C   UNL     1       2.745   3.341  18.872  0.00  0.00    +0.000 A 
ATOM     12  H   UNL     1       4.573   5.973  19.738  0.00  0.00    +0.000 HD
ENDROOT
BRANCH   4  13
ATOM     13  N   UNL     1       6.253   5.530  17.928  0.00  0.00    +0.000 N 
ATOM     14  C   UNL     1       7.598   5.313  18.499  0.00  0.00    +0.000 C 
ATOM     15  C   UNL     1       8.191   6.664  18.935  0.00  0.00    +0.000 C 
ATOM     16  O   UNL     1       8.196   7.628  17.866  0.00  0.00    +0.000 OA
ATOM     17  C   UNL     1       6.866   7.827  17.357  0.00  0.00    +0.000 C 
ATOM     18  C   UNL     1       6.290   6.511  16.831  0.00  0.00    +0.000 C 
ENDBRANCH   4  13
BRANCH   7  19
ATOM     19  C   UNL     1       2.146   6.569  20.912  0.00  0.00    +0.000 C 
BRANCH  19  20
ATOM     20  C   UNL     1       1.866   7.737  19.993  0.00  0.00    +0.000 A 
ATOM     21  C   UNL     1       2.275   7.715  18.651  0.00  0.00    +0.000 A 
ATOM     22  C   UNL     1       1.864   8.709  17.766  0.00  0.00    +0.000 A 
ATOM     23  C   UNL     1       1.026   9.735  18.200  0.00  0.00    +0.000 A 
ATOM     24  C   UNL     1       0.609   9.773  19.528  0.00  0.00    +0.000 A 
ATOM     25  C   UNL     1       1.037   8.792  20.426  0.00  0.00    +0.000 A 
ENDBRANCH  19  20
ENDBRANCH   7  19
TORSDOF 3
ENDMDL
MODEL 4
REMARK VINA RESULT:      -7.7      2.385      5.459
REMARK  Name = 
REMARK  3 active torsions:
REMARK  status: ('A' for Active; 'I' for Inactive)
REMARK    1  A    between atoms: C_4  and  N_5
REMARK    2  A    between atoms: C_13  and  C_14
REMARK    3  A    between atoms: C_14  and  C_15
REMARK                            x       y       z     vdW  Elec       q    Type
REMARK                         _______ _______ _______ _____ _____    ______ ____
ROOT
ATOM      1  O   UNL     1       3.346   1.258  17.770  0.00  0.00    +0.000 OA
ATOM      2  C   UNL     1       3.594   2.386  18.156  0.00  0.00    +0.000 A 
ATOM      3  C   UNL     1       4.763   3.118  17.625  0.00  0.00    +0.000 A 
ATOM      4  C   UNL     1       5.119   4.303  18.138  0.00  0.00    +0.000 A 
ATOM      5  N   UNL     1       4.348   4.891  19.123  0.00  0.00    +0.000 N 
ATOM      6  C   UNL     1       3.126   4.379  19.574  0.00  0.00    +0.000 A 
ATOM      7  C   UNL     1       2.230   5.121  20.382  0.00  0.00    +0.000 A 
ATOM      8  C   UNL     1       1.052   4.491  20.831  0.00  0.00    +0.000 A 
ATOM      9  C   UNL     1       0.736   3.185  20.460  0.00  0.00    +0.000 A 
ATOM     10  C   UNL     1       1.570   2.487  19.593  0.00  0.00    +0.000 A 
ATOM     11  C   UNL     1       2.742   3.094  19.141  0.00  0.00    +0.000 A 
ATOM     12  H   UNL     1       4.712   5.739  19.515  0.00  0.00    +0.000 HD
ENDROOT
BRANCH   4  13
ATOM     13  N   UNL     1       6.241   4.989  17.672  0.00  0.00    +0.000 N 
ATOM     14  C   UNL     1       7.070   5.899  18.488  0.00  0.00    +0.000 C 
ATOM     15  C   UNL     1       7.375   7.173  17.681  0.00  0.00    +0.000 C 
ATOM     16  O   UNL     1       7.972   6.880  16.404  0.00  0.00    +0.000 OA
ATOM     17  C   UNL     1       7.121   6.013  15.634  0.00  0.00    +0.000 C 
ATOM     18  C   UNL     1       6.881   4.699  16.378  0.00  0.00    +0.000 C 
ENDBRANCH   4  13
BRANCH   7  19
ATOM     19  C   UNL     1       2.398   6.587  20.760  0.00  0.00    +0.000 C 
BRANCH  19  20
ATOM     20  C   UNL     1       1.918   7.635  19.780  0.00  0.00    +0.000 A 
ATOM     21  C   UNL     1       1.086   8.686  20.194  0.00  0.00    +0.000 A 
ATOM     22  C   UNL     1       0.792   9.741  19.334  0.00  0.00    +0.000 A 
ATOM     23  C   UNL     1       1.333   9.774  18.051  0.00  0.00    +0.000 A 
ATOM     24  C   UNL     1       2.163   8.741  17.621  0.00  0.00    +0.000 A 
ATOM     25  C   UNL     1       2.442   7.669  18.471  0.00  0.00    +0.000 A 
ENDBRANCH  19  20
ENDBRANCH   7  19
TORSDOF 3
ENDMDL
MODEL 5
REMARK VINA RESULT:      -7.7      2.502      5.796
REMARK  Name = 
REMARK  3 active torsions:
REMARK  status: ('A' for Active; 'I' for Inactive)
REMARK    1  A    between atoms: C_4  and  N_5
REMARK    2  A    between atoms: C_13  and  C_14
REMARK    3  A    between atoms: C_14  and  C_15
REMARK                            x       y       z     vdW  Elec       q    Type
REMARK                         _______ _______ _______ _____ _____    ______ ____
ROOT
ATOM      1  O   UNL     1       2.190   1.672  17.149  0.00  0.00    +0.000 OA
ATOM      2  C   UNL     1       2.623   2.759  17.487  0.00  0.00    +0.000 A 
ATOM      3  C   UNL     1       3.654   3.437  16.676  0.00  0.00    +0.000 A 
ATOM      4  C   UNL     1       4.231   4.567  17.108  0.00  0.00    +0.000 A 
ATOM      5  N   UNL     1       3.810   5.152  18.288  0.00  0.00    +0.000 N 
ATOM      6  C   UNL     1       2.723   4.700  19.044  0.00  0.00    +0.000 A 
ATOM      7  C   UNL     1       2.146   5.455  20.093  0.00  0.00    +0.000 A 
ATOM      8  C   UNL     1       1.090   4.883  20.832  0.00  0.00    +0.000 A 
ATOM      9  C   UNL     1       0.582   3.623  20.521  0.00  0.00    +0.000 A 
ATOM     10  C   UNL     1       1.087   2.918  19.434  0.00  0.00    +0.000 A 
ATOM     11  C   UNL     1       2.134   3.468  18.693  0.00  0.00    +0.000 A 
ATOM     12  H   UNL     1       4.334   5.952  18.590  0.00  0.00    +0.000 HD
ENDROOT
BRANCH   4  13
ATOM     13  N   UNL     1       5.231   5.201  16.371  0.00  0.00    +0.000 N 
ATOM     14  C   UNL     1       5.584   4.871  14.975  0.00  0.00    +0.000 C 
ATOM     15  C   UNL     1       7.116   4.808  14.837  0.00  0.00    +0.000 C 
ATOM     16  O   UNL     1       7.755   6.013  15.297  0.00  0.00    +0.000 OA
ATOM     17  C   UNL     1       7.404   6.281  16.666  0.00  0.00    +0.000 C 
ATOM     18  C   UNL     1       5.890   6.442  16.810  0.00  0.00    +0.000 C 
ENDBRANCH   4  13
BRANCH   7  19
ATOM     19  C   UNL     1       2.527   6.885  20.458  0.00  0.00    +0.000 C 
BRANCH  19  20
ATOM     20  C   UNL     1       1.796   8.015  19.767  0.00  0.00    +0.000 A 
ATOM     21  C   UNL     1       0.945   8.871  20.483  0.00  0.00    +0.000 A 
ATOM     22  C   UNL     1       0.415  10.010  19.884  0.00  0.00    +0.000 A 
ATOM     23  C   UNL     1       0.734  10.326  18.566  0.00  0.00    +0.000 A 
ATOM     24  C   UNL     1       1.578   9.490  17.838  0.00  0.00    +0.000 A 
ATOM     25  C   UNL     1       2.094   8.333  18.426  0.00  0.00    +0.000 A 
ENDBRANCH  19  20
ENDBRANCH   7  19
TORSDOF 3
ENDMDL
MODEL 6
REMARK VINA RESULT:      -7.5      2.511      5.913
REMARK  Name = 
REMARK  3 active torsions:
REMARK  status: ('A' for Active; 'I' for Inactive)
REMARK    1  A    between atoms: C_4  and  N_5
REMARK    2  A    between atoms: C_13  and  C_14
REMARK    3  A    between atoms: C_14  and  C_15
REMARK                            x       y       z     vdW  Elec       q    Type
REMARK                         _______ _______ _______ _____ _____    ______ ____
ROOT
ATOM      1  O   UNL     1       2.092   1.767  17.316  0.00  0.00    +0.000 OA
ATOM      2  C   UNL     1       2.563   2.857  17.585  0.00  0.00    +0.000 A 
ATOM      3  C   UNL     1       3.602   3.456  16.723  0.00  0.00    +0.000 A 
ATOM      4  C   UNL     1       4.220   4.590  17.083  0.00  0.00    +0.000 A 
ATOM      5  N   UNL     1       3.835   5.254  18.232  0.00  0.00    +0.000 N 
ATOM      6  C   UNL     1       2.745   4.879  19.028  0.00  0.00    +0.000 A 
ATOM      7  C   UNL     1       2.207   5.711  20.039  0.00  0.00    +0.000 A 
ATOM      8  C   UNL     1       1.145   5.214  20.823  0.00  0.00    +0.000 A 
ATOM      9  C   UNL     1       0.594   3.955  20.591  0.00  0.00    +0.000 A 
ATOM     10  C   UNL     1       1.062   3.175  19.540  0.00  0.00    +0.000 A 
ATOM     11  C   UNL     1       2.114   3.649  18.755  0.00  0.00    +0.000 A 
ATOM     12  H   UNL     1       4.387   6.052  18.482  0.00  0.00    +0.000 HD
ENDROOT
BRANCH   4  13
ATOM     13  N   UNL     1       5.228   5.149  16.298  0.00  0.00    +0.000 N 
ATOM     14  C   UNL     1       5.517   4.765  14.901  0.00  0.00    +0.000 C 
ATOM     15  C   UNL     1       7.038   4.615  14.718  0.00  0.00    +0.000 C 
ATOM     16  O   UNL     1       7.755   5.795  15.125  0.00  0.00    +0.000 OA
ATOM     17  C   UNL     1       7.464   6.117  16.496  0.00  0.00    +0.000 C 
ATOM     18  C   UNL     1       5.966   6.364  16.682  0.00  0.00    +0.000 C 
ENDBRANCH   4  13
BRANCH   7  19
ATOM     19  C   UNL     1       2.637   7.146  20.316  0.00  0.00    +0.000 C 
BRANCH  19  20
ATOM     20  C   UNL     1       1.813   8.265  19.719  0.00  0.00    +0.000 A 
ATOM     21  C   UNL     1       1.848   8.535  18.342  0.00  0.00    +0.000 A 
ATOM     22  C   UNL     1       0.961   9.444  17.773  0.00  0.00    +0.000 A 
ATOM     23  C   UNL     1       0.012  10.089  18.562  0.00  0.00    +0.000 A 
ATOM     24  C   UNL     1      -0.041   9.834  19.931  0.00  0.00    +0.000 A 
ATOM     25  C   UNL     1       0.863   8.941  20.511  0.00  0.00    +0.000 A 
ENDBRANCH  19  20
ENDBRANCH   7  19
TORSDOF 3
ENDMDL
MODEL 7
REMARK VINA RESULT:      -7.4      2.400      5.587
REMARK  Name = 
REMARK  3 active torsions:
REMARK  status: ('A' for Active; 'I' for Inactive)
REMARK    1  A    between atoms: C_4  and  N_5
REMARK    2  A    between atoms: C_13  and  C_14
REMARK    3  A    between atoms: C_14  and  C_15
REMARK                            x       y       z     vdW  Elec       q    Type
REMARK                         _______ _______ _______ _____ _____    ______ ____
ROOT
ATOM      1  O   UNL     1       2.596   1.512  17.425  0.00  0.00    +0.000 OA
ATOM      2  C   UNL     1       2.995   2.576  17.864  0.00  0.00    +0.000 A 
ATOM      3  C   UNL     1       4.235   3.183  17.340  0.00  0.00    +0.000 A 
ATOM      4  C   UNL     1       4.751   4.282  17.906  0.00  0.00    +0.000 A 
ATOM      5  N   UNL     1       4.083   4.906  18.943  0.00  0.00    +0.000 N 
ATOM      6  C   UNL     1       2.816   4.527  19.401  0.00  0.00    +0.000 A 
ATOM      7  C   UNL     1       2.040   5.329  20.273  0.00  0.00    +0.000 A 
ATOM      8  C   UNL     1       0.800   4.828  20.721  0.00  0.00    +0.000 A 
ATOM      9  C   UNL     1       0.312   3.596  20.289  0.00  0.00    +0.000 A 
ATOM     10  C   UNL     1       1.031   2.850  19.362  0.00  0.00    +0.000 A 
ATOM     11  C   UNL     1       2.262   3.328  18.910  0.00  0.00    +0.000 A 
ATOM     12  H   UNL     1       4.562   5.677  19.369  0.00  0.00    +0.000 HD
ENDROOT
BRANCH   4  13
ATOM     13  N   UNL     1       5.941   4.846  17.446  0.00  0.00    +0.000 N 
ATOM     14  C   UNL     1       6.803   5.750  18.233  0.00  0.00    +0.000 C 
ATOM     15  C   UNL     1       7.239   6.935  17.352  0.00  0.00    +0.000 C 
ATOM     16  O   UNL     1       7.865   6.504  16.129  0.00  0.00    +0.000 OA
ATOM     17  C   UNL     1       6.982   5.647  15.384  0.00  0.00    +0.000 C 
ATOM     18  C   UNL     1       6.610   4.413  16.208  0.00  0.00    +0.000 C 
ENDBRANCH   4  13
BRANCH   7  19
ATOM     19  C   UNL     1       2.402   6.738  20.725  0.00  0.00    +0.000 C 
BRANCH  19  20
ATOM     20  C   UNL     1       1.932   7.901  19.879  0.00  0.00    +0.000 A 
ATOM     21  C   UNL     1       2.278   7.995  18.522  0.00  0.00    +0.000 A 
ATOM     22  C   UNL     1       1.702   8.967  17.708  0.00  0.00    +0.000 A 
ATOM     23  C   UNL     1       0.760   9.852  18.227  0.00  0.00    +0.000 A 
ATOM     24  C   UNL     1       0.402   9.773  19.571  0.00  0.00    +0.000 A 
ATOM     25  C   UNL     1       0.994   8.816  20.398  0.00  0.00    +0.000 A 
ENDBRANCH  19  20
ENDBRANCH   7  19
TORSDOF 3
ENDMDL
MODEL 8
REMARK VINA RESULT:      -7.4      2.508      6.053
REMARK  Name = 
REMARK  3 active torsions:
REMARK  status: ('A' for Active; 'I' for Inactive)
REMARK    1  A    between atoms: C_4  and  N_5
REMARK    2  A    between atoms: C_13  and  C_14
REMARK    3  A    between atoms: C_14  and  C_15
REMARK                            x       y       z     vdW  Elec       q    Type
REMARK                         _______ _______ _______ _____ _____    ______ ____
ROOT
ATOM      1  O   UNL     1       2.713   1.209  18.434  0.00  0.00    +0.000 OA
ATOM      2  C   UNL     1       3.128   2.353  18.393  0.00  0.00    +0.000 A 
ATOM      3  C   UNL     1       4.263   2.705  17.515  0.00  0.00    +0.000 A 
ATOM      4  C   UNL     1       4.811   3.927  17.563  0.00  0.00    +0.000 A 
ATOM      5  N   UNL     1       4.268   4.899  18.382  0.00  0.00    +0.000 N 
ATOM      6  C   UNL     1       3.088   4.735  19.119  0.00  0.00    +0.000 A 
ATOM      7  C   UNL     1       2.410   5.813  19.736  0.00  0.00    +0.000 A 
ATOM      8  C   UNL     1       1.262   5.532  20.505  0.00  0.00    +0.000 A 
ATOM      9  C   UNL     1       0.765   4.235  20.626  0.00  0.00    +0.000 A 
ATOM     10  C   UNL     1       1.378   3.189  19.946  0.00  0.00    +0.000 A 
ATOM     11  C   UNL     1       2.517   3.448  19.183  0.00  0.00    +0.000 A 
ATOM     12  H   UNL     1       4.771   5.765  18.425  0.00  0.00    +0.000 HD
ENDROOT
BRANCH   4  13
ATOM     13  N   UNL     1       5.905   4.264  16.766  0.00  0.00    +0.000 N 
ATOM     14  C   UNL     1       7.116   4.958  17.249  0.00  0.00    +0.000 C 
ATOM     15  C   UNL     1       7.505   6.062  16.251  0.00  0.00    +0.000 C 
ATOM     16  O   UNL     1       7.657   5.557  14.911  0.00  0.00    +0.000 OA
ATOM     17  C   UNL     1       6.449   4.912  14.472  0.00  0.00    +0.000 C 
ATOM     18  C   UNL     1       6.094   3.749  15.400  0.00  0.00    +0.000 C 
ENDBRANCH   4  13
BRANCH   7  19
ATOM     19  C   UNL     1       2.778   7.284  19.587  0.00  0.00    +0.000 C 
BRANCH  19  20
ATOM     20  C   UNL     1       1.656   8.292  19.482  0.00  0.00    +0.000 A 
ATOM     21  C   UNL     1       1.009   8.777  20.628  0.00  0.00    +0.000 A 
ATOM     22  C   UNL     1       0.102   9.830  20.542  0.00  0.00    +0.000 A 
ATOM     23  C   UNL     1      -0.166  10.429  19.313  0.00  0.00    +0.000 A 
ATOM     24  C   UNL     1       0.468   9.963  18.163  0.00  0.00    +0.000 A 
ATOM     25  C   UNL     1       1.360   8.892  18.240  0.00  0.00    +0.000 A 
ENDBRANCH  19  20
ENDBRANCH   7  19
TORSDOF 3
ENDMDL
MODEL 9
REMARK VINA RESULT:      -7.3      1.264      1.662
REMARK  Name = 
REMARK  3 active torsions:
REMARK  status: ('A' for Active; 'I' for Inactive)
REMARK    1  A    between atoms: C_4  and  N_5
REMARK    2  A    between atoms: C_13  and  C_14
REMARK    3  A    between atoms: C_14  and  C_15
REMARK                            x       y       z     vdW  Elec       q    Type
REMARK                         _______ _______ _______ _____ _____    ______ ____
ROOT
ATOM      1  O   UNL     1       2.114   3.565  22.216  0.00  0.00    +0.000 OA
ATOM      2  C   UNL     1       2.256   4.112  21.137  0.00  0.00    +0.000 A 
ATOM      3  C   UNL     1       2.105   5.576  21.015  0.00  0.00    +0.000 A 
ATOM      4  C   UNL     1       2.128   6.169  19.813  0.00  0.00    +0.000 A 
ATOM      5  N   UNL     1       2.370   5.421  18.676  0.00  0.00    +0.000 N 
ATOM      6  C   UNL     1       2.706   4.061  18.688  0.00  0.00    +0.000 A 
ATOM      7  C   UNL     1       3.205   3.381  17.551  0.00  0.00    +0.000 A 
ATOM      8  C   UNL     1       3.456   1.998  17.653  0.00  0.00    +0.000 A 
ATOM      9  C   UNL     1       3.269   1.308  18.849  0.00  0.00    +0.000 A 
ATOM     10  C   UNL     1       2.866   1.993  19.990  0.00  0.00    +0.000 A 
ATOM     11  C   UNL     1       2.609   3.362  19.907  0.00  0.00    +0.000 A 
ATOM     12  H   UNL     1       2.299   5.913  17.806  0.00  0.00    +0.000 HD
ENDROOT
BRANCH   4  13
ATOM     13  N   UNL     1       1.952   7.546  19.678  0.00  0.00    +0.000 N 
ATOM     14  C   UNL     1       1.540   8.452  20.769  0.00  0.00    +0.000 C 
ATOM     15  C   UNL     1       0.463   9.420  20.250  0.00  0.00    +0.000 C 
ATOM     16  O   UNL     1       0.890  10.132  19.074  0.00  0.00    +0.000 OA
ATOM     17  C   UNL     1       1.257   9.213  18.030  0.00  0.00    +0.000 C 
ATOM     18  C   UNL     1       2.394   8.301  18.494  0.00  0.00    +0.000 C 
ENDBRANCH   4  13
BRANCH   7  19
ATOM     19  C   UNL     1       3.564   4.037  16.223  0.00  0.00    +0.000 C 
BRANCH  19  20
ATOM     20  C   UNL     1       5.027   4.259  15.911  0.00  0.00    +0.000 A 
ATOM     21  C   UNL     1       5.475   4.378  14.586  0.00  0.00    +0.000 A 
ATOM     22  C   UNL     1       6.786   4.756  14.310  0.00  0.00    +0.000 A 
ATOM     23  C   UNL     1       7.671   5.035  15.349  0.00  0.00    +0.000 A 
ATOM     24  C   UNL     1       7.246   4.923  16.671  0.00  0.00    +0.000 A 
ATOM     25  C   UNL     1       5.939   4.522  16.954  0.00  0.00    +0.000 A 
ENDBRANCH  19  20
ENDBRANCH   7  19
TORSDOF 3
ENDMDL
