MODEL 1
REMARK VINA RESULT:      -6.9      0.000      0.000
REMARK  Name = 
REMARK  5 active torsions:
REMARK  status: ('A' for Active; 'I' for Inactive)
REMARK    1  A    between atoms: C_1  and  N_2
REMARK    2  A    between atoms: N_2  and  C_3
REMARK    3  A    between atoms: C_3  and  N_5
REMARK    4  A    between atoms: C_7  and  C_8
REMARK    5  A    between atoms: C_9  and  C_10
REMARK                            x       y       z     vdW  Elec       q    Type
REMARK                         _______ _______ _______ _____ _____    ______ ____
ROOT
ATOM      1  N   UNL     1       5.500   5.050  16.705  0.00  0.00    +0.000 N 
ATOM      2  C   UNL     1       5.075   6.434  16.856  0.00  0.00    +0.000 C 
ATOM      3  C   UNL     1       4.061   6.382  17.987  0.00  0.00    +0.000 C 
ATOM      4  C   UNL     1       2.864   7.274  17.709  0.00  0.00    +0.000 C 
ATOM      5  C   UNL     1       3.787   4.890  17.995  0.00  0.00    +0.000 C 
ATOM      6  N   UNL     1       4.621   4.167  17.302  0.00  0.00    +0.000 NA
ENDROOT
BRANCH   5   7
ATOM      7  C   UNL     1       2.672   4.305  18.772  0.00  0.00    +0.000 A 
ATOM      8  C   UNL     1       2.517   4.641  20.121  0.00  0.00    +0.000 A 
ATOM      9  C   UNL     1       1.500   4.047  20.872  0.00  0.00    +0.000 A 
ATOM     10  C   UNL     1       0.633   3.130  20.277  0.00  0.00    +0.000 A 
ATOM     11  C   UNL     1       0.772   2.815  18.925  0.00  0.00    +0.000 A 
ATOM     12  C   UNL     1       1.784   3.405  18.171  0.00  0.00    +0.000 A 
ENDBRANCH   5   7
BRANCH   1  13
ATOM     13  C   UNL     1       6.544   4.589  15.896  0.00  0.00    +0.000 C 
ATOM     14  S   UNL     1       6.438   4.406  14.231  0.00  0.00    +0.000 S 
BRANCH  13  16
ATOM     15  C   UNL     1       7.892   4.644  18.023  0.00  0.00    +0.000 C 
ATOM     16  N   UNL     1       7.674   4.309  16.637  0.00  0.00    +0.000 N 
ATOM     17  H   UNL     1       8.475   4.154  16.030  0.00  0.00    +0.000 HD
ENDBRANCH  13  16
ENDBRANCH   1  13
TORSDOF 3
ENDMDL
MODEL 2
REMARK VINA RESULT:      -6.7      0.992      1.560
REMARK  Name = 
REMARK  5 active torsions:
REMARK  status: ('A' for Active; 'I' for Inactive)
REMARK    1  A    between atoms: C_1  and  N_2
REMARK    2  A    between atoms: N_2  and  C_3
REMARK    3  A    between atoms: C_3  and  N_5
REMARK    4  A    between atoms: C_7  and  C_8
REMARK    5  A    between atoms: C_9  and  C_10
REMARK                            x       y       z     vdW  Elec       q    Type
REMARK                         _______ _______ _______ _____ _____    ______ ____
ROOT
ATOM      1  N   UNL     1       5.296   5.911  16.953  0.00  0.00    +0.000 N 
ATOM      2  C   UNL     1       4.551   7.155  17.086  0.00  0.00    +0.000 C 
ATOM      3  C   UNL     1       3.501   6.840  18.140  0.00  0.00    +0.000 C 
ATOM      4  C   UNL     1       2.152   7.438  17.784  0.00  0.00    +0.000 C 
ATOM      5  C   UNL     1       3.582   5.326  18.114  0.00  0.00    +0.000 C 
ATOM      6  N   UNL     1       4.606   4.834  17.477  0.00  0.00    +0.000 NA
ENDROOT
BRANCH   5   7
ATOM      7  C   UNL     1       2.582   4.479  18.801  0.00  0.00    +0.000 A 
ATOM      8  C   UNL     1       1.860   3.530  18.070  0.00  0.00    +0.000 A 
ATOM      9  C   UNL     1       0.875   2.768  18.703  0.00  0.00    +0.000 A 
ATOM     10  C   UNL     1       0.619   2.944  20.064  0.00  0.00    +0.000 A 
ATOM     11  C   UNL     1       1.357   3.873  20.798  0.00  0.00    +0.000 A 
ATOM     12  C   UNL     1       2.342   4.634  20.170  0.00  0.00    +0.000 A 
ENDBRANCH   5   7
BRANCH   1  13
ATOM     13  C   UNL     1       6.471   5.726  16.219  0.00  0.00    +0.000 C 
ATOM     14  S   UNL     1       6.630   4.641  14.949  0.00  0.00    +0.000 S 
BRANCH  13  16
ATOM     15  C   UNL     1       7.800   6.849  18.041  0.00  0.00    +0.000 C 
ATOM     16  N   UNL     1       7.483   6.552  16.665  0.00  0.00    +0.000 N 
ATOM     17  H   UNL     1       7.766   7.203  15.936  0.00  0.00    +0.000 HD
ENDBRANCH  13  16
ENDBRANCH   1  13
TORSDOF 3
ENDMDL
MODEL 3
REMARK VINA RESULT:      -6.5      1.192      1.201
REMARK  Name = 
REMARK  5 active torsions:
REMARK  status: ('A' for Active; 'I' for Inactive)
REMARK    1  A    between atoms: C_1  and  N_2
REMARK    2  A    between atoms: N_2  and  C_3
REMARK    3  A    between atoms: C_3  and  N_5
REMARK    4  A    between atoms: C_7  and  C_8
REMARK    5  A    between atoms: C_9  and  C_10
REMARK                            x       y       z     vdW  Elec       q    Type
REMARK                         _______ _______ _______ _____ _____    ______ ____
ROOT
ATOM      1  N   UNL     1       5.220   6.126  17.099  0.00  0.00    +0.000 N 
ATOM      2  C   UNL     1       4.437   7.349  17.195  0.00  0.00    +0.000 C 
ATOM      3  C   UNL     1       3.340   7.003  18.188  0.00  0.00    +0.000 C 
ATOM      4  C   UNL     1       1.997   7.568  17.761  0.00  0.00    +0.000 C 
ATOM      5  C   UNL     1       3.461   5.491  18.161  0.00  0.00    +0.000 C 
ATOM      6  N   UNL     1       4.531   5.029  17.579  0.00  0.00    +0.000 NA
ENDROOT
BRANCH   5   7
ATOM      7  C   UNL     1       2.447   4.615  18.789  0.00  0.00    +0.000 A 
ATOM      8  C   UNL     1       2.180   4.736  20.156  0.00  0.00    +0.000 A 
ATOM      9  C   UNL     1       1.265   3.872  20.764  0.00  0.00    +0.000 A 
ATOM     10  C   UNL     1       0.610   2.900  20.008  0.00  0.00    +0.000 A 
ATOM     11  C   UNL     1       0.858   2.796  18.639  0.00  0.00    +0.000 A 
ATOM     12  C   UNL     1       1.769   3.656  18.028  0.00  0.00    +0.000 A 
ENDBRANCH   5   7
BRANCH   1  13
ATOM     13  C   UNL     1       6.438   5.974  16.429  0.00  0.00    +0.000 C 
ATOM     14  S   UNL     1       6.744   4.788  15.282  0.00  0.00    +0.000 S 
BRANCH  13  16
ATOM     15  C   UNL     1       7.902   7.088  18.151  0.00  0.00    +0.000 C 
ATOM     16  N   UNL     1       7.356   6.926  16.826  0.00  0.00    +0.000 N 
ATOM     17  H   UNL     1       7.352   7.720  16.188  0.00  0.00    +0.000 HD
ENDBRANCH  13  16
ENDBRANCH   1  13
TORSDOF 3
ENDMDL
MODEL 4
REMARK VINA RESULT:      -6.5      1.889      2.549
REMARK  Name = 
REMARK  5 active torsions:
REMARK  status: ('A' for Active; 'I' for Inactive)
REMARK    1  A    between atoms: C_1  and  N_2
REMARK    2  A    between atoms: N_2  and  C_3
REMARK    3  A    between atoms: C_3  and  N_5
REMARK    4  A    between atoms: C_7  and  C_8
REMARK    5  A    between atoms: C_9  and  C_10
REMARK                            x       y       z     vdW  Elec       q    Type
REMARK                         _______ _______ _______ _____ _____    ______ ____
ROOT
ATOM      1  N   UNL     1       6.250   4.377  15.480  0.00  0.00    +0.000 N 
ATOM      2  C   UNL     1       6.912   4.872  16.679  0.00  0.00    +0.000 C 
ATOM      3  C   UNL     1       6.083   4.298  17.816  0.00  0.00    +0.000 C 
ATOM      4  C   UNL     1       5.882   5.311  18.930  0.00  0.00    +0.000 C 
ATOM      5  C   UNL     1       4.839   3.916  17.037  0.00  0.00    +0.000 C 
ATOM      6  N   UNL     1       4.967   3.935  15.741  0.00  0.00    +0.000 NA
ENDROOT
BRANCH   5   7
ATOM      7  C   UNL     1       3.587   3.513  17.714  0.00  0.00    +0.000 A 
ATOM      8  C   UNL     1       2.445   4.310  17.588  0.00  0.00    +0.000 A 
ATOM      9  C   UNL     1       1.277   3.964  18.272  0.00  0.00    +0.000 A 
ATOM     10  C   UNL     1       1.245   2.820  19.070  0.00  0.00    +0.000 A 
ATOM     11  C   UNL     1       2.377   2.011  19.175  0.00  0.00    +0.000 A 
ATOM     12  C   UNL     1       3.544   2.352  18.493  0.00  0.00    +0.000 A 
ENDBRANCH   5   7
BRANCH   1  13
ATOM     13  C   UNL     1       6.718   4.496  14.168  0.00  0.00    +0.000 C 
ATOM     14  S   UNL     1       6.138   3.601  12.873  0.00  0.00    +0.000 S 
BRANCH  13  16
ATOM     15  C   UNL     1       8.433   5.812  12.874  0.00  0.00    +0.000 C 
ATOM     16  N   UNL     1       7.715   5.447  14.070  0.00  0.00    +0.000 N 
ATOM     17  H   UNL     1       8.138   5.621  14.980  0.00  0.00    +0.000 HD
ENDBRANCH  13  16
ENDBRANCH   1  13
TORSDOF 3
ENDMDL
MODEL 5
REMARK VINA RESULT:      -6.5      1.856      2.512
REMARK  Name = 
REMARK  5 active torsions:
REMARK  status: ('A' for Active; 'I' for Inactive)
REMARK    1  A    between atoms: C_1  and  N_2
REMARK    2  A    between atoms: N_2  and  C_3
REMARK    3  A    between atoms: C_3  and  N_5
REMARK    4  A    between atoms: C_7  and  C_8
REMARK    5  A    between atoms: C_9  and  C_10
REMARK                            x       y       z     vdW  Elec       q    Type
REMARK                         _______ _______ _______ _____ _____    ______ ____
ROOT
ATOM      1  N   UNL     1       6.256   4.391  15.538  0.00  0.00    +0.000 N 
ATOM      2  C   UNL     1       6.960   4.854  16.725  0.00  0.00    +0.000 C 
ATOM      3  C   UNL     1       6.143   4.290  17.876  0.00  0.00    +0.000 C 
ATOM      4  C   UNL     1       5.995   5.295  19.005  0.00  0.00    +0.000 C 
ATOM      5  C   UNL     1       4.871   3.949  17.123  0.00  0.00    +0.000 C 
ATOM      6  N   UNL     1       4.969   3.979  15.825  0.00  0.00    +0.000 NA
ENDROOT
BRANCH   5   7
ATOM      7  C   UNL     1       3.626   3.571  17.826  0.00  0.00    +0.000 A 
ATOM      8  C   UNL     1       3.634   2.496  18.721  0.00  0.00    +0.000 A 
ATOM      9  C   UNL     1       2.447   2.100  19.342  0.00  0.00    +0.000 A 
ATOM     10  C   UNL     1       1.258   2.782  19.081  0.00  0.00    +0.000 A 
ATOM     11  C   UNL     1       1.255   3.870  18.208  0.00  0.00    +0.000 A 
ATOM     12  C   UNL     1       2.437   4.269  17.586  0.00  0.00    +0.000 A 
ENDBRANCH   5   7
BRANCH   1  13
ATOM     13  C   UNL     1       6.696   4.512  14.216  0.00  0.00    +0.000 C 
ATOM     14  S   UNL     1       6.064   3.645  12.927  0.00  0.00    +0.000 S 
BRANCH  13  16
ATOM     15  C   UNL     1       8.441   5.769  12.904  0.00  0.00    +0.000 C 
ATOM     16  N   UNL     1       7.713   5.440  14.104  0.00  0.00    +0.000 N 
ATOM     17  H   UNL     1       8.138   5.621  15.011  0.00  0.00    +0.000 HD
ENDBRANCH  13  16
ENDBRANCH   1  13
TORSDOF 3
ENDMDL
MODEL 6
REMARK VINA RESULT:      -6.5      2.043      3.689
REMARK  Name = 
REMARK  5 active torsions:
REMARK  status: ('A' for Active; 'I' for Inactive)
REMARK    1  A    between atoms: C_1  and  N_2
REMARK    2  A    between atoms: N_2  and  C_3
REMARK    3  A    between atoms: C_3  and  N_5
REMARK    4  A    between atoms: C_7  and  C_8
REMARK    5  A    between atoms: C_9  and  C_10
REMARK                            x       y       z     vdW  Elec       q    Type
REMARK                         _______ _______ _______ _____ _____    ______ ____
ROOT
ATOM      1  N   UNL     1       4.779   4.694  17.388  0.00  0.00    +0.000 N 
ATOM      2  C   UNL     1       3.667   3.760  17.490  0.00  0.00    +0.000 C 
ATOM      3  C   UNL     1       2.457   4.654  17.704  0.00  0.00    +0.000 C 
ATOM      4  C   UNL     1       1.507   4.076  18.737  0.00  0.00    +0.000 C 
ATOM      5  C   UNL     1       3.171   5.932  18.102  0.00  0.00    +0.000 C 
ATOM      6  N   UNL     1       4.456   5.942  17.886  0.00  0.00    +0.000 NA
ENDROOT
BRANCH   5   7
ATOM      7  C   UNL     1       2.443   7.092  18.660  0.00  0.00    +0.000 A 
ATOM      8  C   UNL     1       2.097   8.159  17.824  0.00  0.00    +0.000 A 
ATOM      9  C   UNL     1       1.460   9.282  18.359  0.00  0.00    +0.000 A 
ATOM     10  C   UNL     1       1.158   9.334  19.720  0.00  0.00    +0.000 A 
ATOM     11  C   UNL     1       1.480   8.259  20.548  0.00  0.00    +0.000 A 
ATOM     12  C   UNL     1       2.115   7.137  20.020  0.00  0.00    +0.000 A 
ENDBRANCH   5   7
BRANCH   1  13
ATOM     13  C   UNL     1       6.094   4.379  17.032  0.00  0.00    +0.000 C 
ATOM     14  S   UNL     1       7.450   4.908  17.865  0.00  0.00    +0.000 S 
BRANCH  13  16
ATOM     15  C   UNL     1       6.261   4.015  14.545  0.00  0.00    +0.000 C 
ATOM     16  N   UNL     1       6.136   3.573  15.912  0.00  0.00    +0.000 N 
ATOM     17  H   UNL     1       5.723   2.663  16.106  0.00  0.00    +0.000 HD
ENDBRANCH  13  16
ENDBRANCH   1  13
TORSDOF 3
ENDMDL
MODEL 7
REMARK VINA RESULT:      -6.4      1.870      3.490
REMARK  Name = 
REMARK  5 active torsions:
REMARK  status: ('A' for Active; 'I' for Inactive)
REMARK    1  A    between atoms: C_1  and  N_2
REMARK    2  A    between atoms: N_2  and  C_3
REMARK    3  A    between atoms: C_3  and  N_5
REMARK    4  A    between atoms: C_7  and  C_8
REMARK    5  A    between atoms: C_9  and  C_10
REMARK                            x       y       z     vdW  Elec       q    Type
REMARK                         _______ _______ _______ _____ _____    ______ ____
ROOT
ATOM      1  N   UNL     1       4.860   4.881  17.470  0.00  0.00    +0.000 N 
ATOM      2  C   UNL     1       3.776   3.912  17.553  0.00  0.00    +0.000 C 
ATOM      3  C   UNL     1       2.534   4.769  17.739  0.00  0.00    +0.000 C 
ATOM      4  C   UNL     1       1.582   4.165  18.756  0.00  0.00    +0.000 C 
ATOM      5  C   UNL     1       3.200   6.070  18.147  0.00  0.00    +0.000 C 
ATOM      6  N   UNL     1       4.487   6.119  17.957  0.00  0.00    +0.000 NA
ENDROOT
BRANCH   5   7
ATOM      7  C   UNL     1       2.424   7.209  18.686  0.00  0.00    +0.000 A 
ATOM      8  C   UNL     1       2.048   8.253  17.835  0.00  0.00    +0.000 A 
ATOM      9  C   UNL     1       1.365   9.358  18.352  0.00  0.00    +0.000 A 
ATOM     10  C   UNL     1       1.048   9.414  19.709  0.00  0.00    +0.000 A 
ATOM     11  C   UNL     1       1.400   8.360  20.552  0.00  0.00    +0.000 A 
ATOM     12  C   UNL     1       2.081   7.256  20.041  0.00  0.00    +0.000 A 
ENDBRANCH   5   7
BRANCH   1  13
ATOM     13  C   UNL     1       6.190   4.606  17.142  0.00  0.00    +0.000 C 
ATOM     14  S   UNL     1       6.781   4.534  15.573  0.00  0.00    +0.000 S 
BRANCH  13  16
ATOM     15  C   UNL     1       7.774   5.393  18.936  0.00  0.00    +0.000 C 
ATOM     16  N   UNL     1       6.959   4.406  18.271  0.00  0.00    +0.000 N 
ATOM     17  H   UNL     1       7.175   3.418  18.391  0.00  0.00    +0.000 HD
ENDBRANCH  13  16
ENDBRANCH   1  13
TORSDOF 3
ENDMDL
MODEL 8
REMARK VINA RESULT:      -6.4      2.098      3.623
REMARK  Name = 
REMARK  5 active torsions:
REMARK  status: ('A' for Active; 'I' for Inactive)
REMARK    1  A    between atoms: C_1  and  N_2
REMARK    2  A    between atoms: N_2  and  C_3
REMARK    3  A    between atoms: C_3  and  N_5
REMARK    4  A    between atoms: C_7  and  C_8
REMARK    5  A    between atoms: C_9  and  C_10
REMARK                            x       y       z     vdW  Elec       q    Type
REMARK                         _______ _______ _______ _____ _____    ______ ____
ROOT
ATOM      1  N   UNL     1       4.749   4.792  17.483  0.00  0.00    +0.000 N 
ATOM      2  C   UNL     1       3.625   3.873  17.592  0.00  0.00    +0.000 C 
ATOM      3  C   UNL     1       2.427   4.786  17.793  0.00  0.00    +0.000 C 
ATOM      4  C   UNL     1       1.467   4.232  18.831  0.00  0.00    +0.000 C 
ATOM      5  C   UNL     1       3.156   6.059  18.179  0.00  0.00    +0.000 C 
ATOM      6  N   UNL     1       4.441   6.050  17.966  0.00  0.00    +0.000 NA
ENDROOT
BRANCH   5   7
ATOM      7  C   UNL     1       2.441   7.234  18.721  0.00  0.00    +0.000 A 
ATOM      8  C   UNL     1       2.133   7.289  20.084  0.00  0.00    +0.000 A 
ATOM      9  C   UNL     1       1.407   8.371  20.590  0.00  0.00    +0.000 A 
ATOM     10  C   UNL     1       1.000   9.400  19.740  0.00  0.00    +0.000 A 
ATOM     11  C   UNL     1       1.329   9.358  18.385  0.00  0.00    +0.000 A 
ATOM     12  C   UNL     1       2.054   8.281  17.877  0.00  0.00    +0.000 A 
ENDBRANCH   5   7
BRANCH   1  13
ATOM     13  C   UNL     1       6.061   4.456  17.134  0.00  0.00    +0.000 C 
ATOM     14  S   UNL     1       7.423   4.993  17.953  0.00  0.00    +0.000 S 
BRANCH  13  16
ATOM     15  C   UNL     1       6.327   4.020  14.667  0.00  0.00    +0.000 C 
ATOM     16  N   UNL     1       6.095   3.623  16.034  0.00  0.00    +0.000 N 
ATOM     17  H   UNL     1       5.599   2.754  16.224  0.00  0.00    +0.000 HD
ENDBRANCH  13  16
ENDBRANCH   1  13
TORSDOF 3
ENDMDL
MODEL 9
REMARK VINA RESULT:      -6.4      1.793      3.333
REMARK  Name = 
REMARK  5 active torsions:
REMARK  status: ('A' for Active; 'I' for Inactive)
REMARK    1  A    between atoms: C_1  and  N_2
REMARK    2  A    between atoms: N_2  and  C_3
REMARK    3  A    between atoms: C_3  and  N_5
REMARK    4  A    between atoms: C_7  and  C_8
REMARK    5  A    between atoms: C_9  and  C_10
REMARK                            x       y       z     vdW  Elec       q    Type
REMARK                         _______ _______ _______ _____ _____    ______ ____
ROOT
ATOM      1  N   UNL     1       4.421   4.707  16.975  0.00  0.00    +0.000 N 
ATOM      2  C   UNL     1       3.358   3.776  17.326  0.00  0.00    +0.000 C 
ATOM      3  C   UNL     1       2.210   4.678  17.749  0.00  0.00    +0.000 C 
ATOM      4  C   UNL     1       1.489   4.133  18.969  0.00  0.00    +0.000 C 
ATOM      5  C   UNL     1       2.981   5.967  17.956  0.00  0.00    +0.000 C 
ATOM      6  N   UNL     1       4.196   5.970  17.487  0.00  0.00    +0.000 NA
ENDROOT
BRANCH   5   7
ATOM      7  C   UNL     1       2.370   7.145  18.611  0.00  0.00    +0.000 A 
ATOM      8  C   UNL     1       2.140   7.127  19.990  0.00  0.00    +0.000 A 
ATOM      9  C   UNL     1       1.511   8.215  20.603  0.00  0.00    +0.000 A 
ATOM     10  C   UNL     1       1.125   9.320  19.845  0.00  0.00    +0.000 A 
ATOM     11  C   UNL     1       1.378   9.348  18.473  0.00  0.00    +0.000 A 
ATOM     12  C   UNL     1       2.006   8.266  17.858  0.00  0.00    +0.000 A 
ENDBRANCH   5   7
BRANCH   1  13
ATOM     13  C   UNL     1       5.641   4.380  16.373  0.00  0.00    +0.000 C 
ATOM     14  S   UNL     1       5.924   4.437  14.720  0.00  0.00    +0.000 S 
BRANCH  13  16
ATOM     15  C   UNL     1       7.608   4.857  17.873  0.00  0.00    +0.000 C 
ATOM     16  N   UNL     1       6.584   4.011  17.310  0.00  0.00    +0.000 N 
ATOM     17  H   UNL     1       6.715   3.001  17.313  0.00  0.00    +0.000 HD
ENDBRANCH  13  16
ENDBRANCH   1  13
TORSDOF 3
ENDMDL
