MODEL 1
REMARK VINA RESULT:      -8.3      0.000      0.000
REMARK  Name = 
REMARK  7 active torsions:
REMARK  status: ('A' for Active; 'I' for Inactive)
REMARK    1  A    between atoms: C_2  and  C_22
REMARK    2  A    between atoms: N_3  and  C_4
REMARK    3  A    between atoms: C_4  and  C_5
REMARK    4  A    between atoms: C_11  and  C_12
REMARK    5  A    between atoms: C_12  and  N_13
REMARK    6  A    between atoms: N_13  and  C_14
REMARK    7  A    between atoms: C_14  and  C_15
REMARK                            x       y       z     vdW  Elec       q    Type
REMARK                         _______ _______ _______ _____ _____    ______ ____
ROOT
ATOM      1  C   UNL     1       1.454   8.661  19.456  0.00  0.00    +0.000 A 
ATOM      2  C   UNL     1       1.739   8.839  18.094  0.00  0.00    +0.000 A 
ATOM      3  C   UNL     1       2.603   7.982  17.413  0.00  0.00    +0.000 A 
ATOM      4  C   UNL     1       3.197   6.916  18.108  0.00  0.00    +0.000 A 
ATOM      5  C   UNL     1       4.088   5.888  17.741  0.00  0.00    +0.000 A 
ATOM      6  F   UNL     1       4.600   5.714  16.560  0.00  0.00    +0.000 F 
ATOM      7  C   UNL     1       4.392   5.130  18.851  0.00  0.00    +0.000 A 
ATOM      8  N   UNL     1       3.629   5.644  19.883  0.00  0.00    +0.000 N 
ATOM      9  C   UNL     1       2.904   6.740  19.459  0.00  0.00    +0.000 A 
ATOM     10  C   UNL     1       2.046   7.596  20.164  0.00  0.00    +0.000 A 
ATOM     11  H   UNL     1       3.646   5.303  20.839  0.00  0.00    +0.000 HD
ENDROOT
BRANCH   1  12
ATOM     12  C   UNL     1       0.464   9.587  20.127  0.00  0.00    +0.000 C 
BRANCH  12  15
ATOM     13  O   UNL     1      -1.356  11.462  19.172  0.00  0.00    +0.000 OA
ATOM     14  C   UNL     1      -0.178  11.790  19.302  0.00  0.00    +0.000 C 
ATOM     15  N   UNL     1       0.772  10.968  19.834  0.00  0.00    +0.000 N 
ATOM     16  H   UNL     1       1.738  11.274  19.780  0.00  0.00    +0.000 HD
BRANCH  14  17
ATOM     17  C   UNL     1       0.343  13.115  18.802  0.00  0.00    +0.000 A 
ATOM     18  C   UNL     1       1.676  13.143  18.693  0.00  0.00    +0.000 A 
ATOM     19  C   UNL     1       2.274  14.455  18.481  0.00  0.00    +0.000 A 
ATOM     20  O   UNL     1       3.370  14.579  17.949  0.00  0.00    +0.000 OA
ATOM     21  N   UNL     1       1.486  15.462  18.980  0.00  0.00    +0.000 N 
ATOM     22  C   UNL     1       2.008  16.427  19.819  0.00  0.00    +0.000 A 
ATOM     23  C   UNL     1       1.225  17.423  20.256  0.00  0.00    +0.000 A 
ATOM     24  C   UNL     1      -0.045  17.639  19.597  0.00  0.00    +0.000 A 
ATOM     25  C   UNL     1      -0.599  16.670  18.849  0.00  0.00    +0.000 A 
ATOM     26  C   UNL     1       0.115  15.360  18.799  0.00  0.00    +0.000 A 
ATOM     27  N   UNL     1      -0.486  14.218  18.630  0.00  0.00    +0.000 NA
ENDBRANCH  14  17
ENDBRANCH  12  15
ENDBRANCH   1  12
BRANCH   7  28
ATOM     28  C   UNL     1       5.316   3.974  19.013  0.00  0.00    +0.000 C 
BRANCH  28  29
ATOM     29  N   UNL     1       4.612   2.757  19.419  0.00  0.00    +0.000 NA
ATOM     30  H   UNL     1       4.067   2.974  20.256  0.00  0.00    +0.000 HD
BRANCH  29  31
ATOM     31  C   UNL     1       3.712   2.246  18.381  0.00  0.00    +0.000 C 
BRANCH  31  32
ATOM     32  C   UNL     1       2.293   2.115  18.924  0.00  0.00    +0.000 C 
ATOM     33  C   UNL     1       2.027   2.581  20.384  0.00  0.00    +0.000 C 
ATOM     34  C   UNL     1       0.684   3.151  19.888  0.00  0.00    +0.000 C 
ATOM     35  C   UNL     1       1.317   3.242  18.486  0.00  0.00    +0.000 C 
ENDBRANCH  31  32
ENDBRANCH  29  31
ENDBRANCH  28  29
ENDBRANCH   7  28
TORSDOF 7
ENDMDL
MODEL 2
REMARK VINA RESULT:      -8.3      3.038      4.092
REMARK  Name = 
REMARK  7 active torsions:
REMARK  status: ('A' for Active; 'I' for Inactive)
REMARK    1  A    between atoms: C_2  and  C_22
REMARK    2  A    between atoms: N_3  and  C_4
REMARK    3  A    between atoms: C_4  and  C_5
REMARK    4  A    between atoms: C_11  and  C_12
REMARK    5  A    between atoms: C_12  and  N_13
REMARK    6  A    between atoms: N_13  and  C_14
REMARK    7  A    between atoms: C_14  and  C_15
REMARK                            x       y       z     vdW  Elec       q    Type
REMARK                         _______ _______ _______ _____ _____    ______ ____
ROOT
ATOM      1  C   UNL     1       1.300   8.476  20.277  0.00  0.00    +0.000 A 
ATOM      2  C   UNL     1       1.416   8.990  18.977  0.00  0.00    +0.000 A 
ATOM      3  C   UNL     1       2.223   8.376  18.020  0.00  0.00    +0.000 A 
ATOM      4  C   UNL     1       2.935   7.216  18.368  0.00  0.00    +0.000 A 
ATOM      5  C   UNL     1       3.813   6.365  17.670  0.00  0.00    +0.000 A 
ATOM      6  F   UNL     1       4.188   6.510  16.435  0.00  0.00    +0.000 F 
ATOM      7  C   UNL     1       4.275   5.386  18.523  0.00  0.00    +0.000 A 
ATOM      8  N   UNL     1       3.621   5.591  19.725  0.00  0.00    +0.000 N 
ATOM      9  C   UNL     1       2.811   6.707  19.659  0.00  0.00    +0.000 A 
ATOM     10  C   UNL     1       2.011   7.314  20.638  0.00  0.00    +0.000 A 
ATOM     11  H   UNL     1       3.764   5.034  20.562  0.00  0.00    +0.000 HD
ENDROOT
BRANCH   1  12
ATOM     12  C   UNL     1       0.364   9.151  21.253  0.00  0.00    +0.000 C 
BRANCH  12  15
ATOM     13  O   UNL     1      -0.226  11.733  22.106  0.00  0.00    +0.000 OA
ATOM     14  C   UNL     1      -0.795  11.292  21.110  0.00  0.00    +0.000 C 
ATOM     15  N   UNL     1      -0.517  10.070  20.570  0.00  0.00    +0.000 N 
ATOM     16  H   UNL     1      -1.127   9.737  19.830  0.00  0.00    +0.000 HD
BRANCH  14  17
ATOM     17  C   UNL     1      -1.922  12.036  20.439  0.00  0.00    +0.000 A 
ATOM     18  C   UNL     1      -2.531  12.906  21.254  0.00  0.00    +0.000 A 
ATOM     19  C   UNL     1      -3.789  13.462  20.773  0.00  0.00    +0.000 A 
ATOM     20  O   UNL     1      -4.209  14.538  21.181  0.00  0.00    +0.000 OA
ATOM     21  N   UNL     1      -4.411  12.623  19.883  0.00  0.00    +0.000 N 
ATOM     22  C   UNL     1      -5.739  12.274  20.040  0.00  0.00    +0.000 A 
ATOM     23  C   UNL     1      -6.331  11.488  19.131  0.00  0.00    +0.000 A 
ATOM     24  C   UNL     1      -5.669  11.285  17.860  0.00  0.00    +0.000 A 
ATOM     25  C   UNL     1      -4.357  11.540  17.727  0.00  0.00    +0.000 A 
ATOM     26  C   UNL     1      -3.620  11.964  18.953  0.00  0.00    +0.000 A 
ATOM     27  N   UNL     1      -2.357  11.720  19.157  0.00  0.00    +0.000 NA
ENDBRANCH  14  17
ENDBRANCH  12  15
ENDBRANCH   1  12
BRANCH   7  28
ATOM     28  C   UNL     1       5.254   4.287  18.301  0.00  0.00    +0.000 C 
BRANCH  28  29
ATOM     29  N   UNL     1       4.703   2.977  18.653  0.00  0.00    +0.000 NA
ATOM     30  H   UNL     1       4.327   3.040  19.601  0.00  0.00    +0.000 HD
BRANCH  29  31
ATOM     31  C   UNL     1       3.639   2.543  17.743  0.00  0.00    +0.000 C 
BRANCH  31  32
ATOM     32  C   UNL     1       2.381   2.185  18.528  0.00  0.00    +0.000 C 
ATOM     33  C   UNL     1       2.339   2.548  20.039  0.00  0.00    +0.000 C 
ATOM     34  C   UNL     1       0.861   2.934  19.838  0.00  0.00    +0.000 C 
ATOM     35  C   UNL     1       1.195   3.173  18.353  0.00  0.00    +0.000 C 
ENDBRANCH  31  32
ENDBRANCH  29  31
ENDBRANCH  28  29
ENDBRANCH   7  28
TORSDOF 7
ENDMDL
MODEL 3
REMARK VINA RESULT:      -8.3      3.362      4.704
REMARK  Name = 
REMARK  7 active torsions:
REMARK  status: ('A' for Active; 'I' for Inactive)
REMARK    1  A    between atoms: C_2  and  C_22
REMARK    2  A    between atoms: N_3  and  C_4
REMARK    3  A    between atoms: C_4  and  C_5
REMARK    4  A    between atoms: C_11  and  C_12
REMARK    5  A    between atoms: C_12  and  N_13
REMARK    6  A    between atoms: N_13  and  C_14
REMARK    7  A    between atoms: C_14  and  C_15
REMARK                            x       y       z     vdW  Elec       q    Type
REMARK                         _______ _______ _______ _____ _____    ______ ____
ROOT
ATOM      1  C   UNL     1       2.462   6.772  19.712  0.00  0.00    +0.000 A 
ATOM      2  C   UNL     1       2.384   7.735  18.695  0.00  0.00    +0.000 A 
ATOM      3  C   UNL     1       3.154   7.634  17.537  0.00  0.00    +0.000 A 
ATOM      4  C   UNL     1       4.025   6.543  17.386  0.00  0.00    +0.000 A 
ATOM      5  C   UNL     1       4.918   6.139  16.375  0.00  0.00    +0.000 A 
ATOM      6  F   UNL     1       5.145   6.776  15.266  0.00  0.00    +0.000 F 
ATOM      7  C   UNL     1       5.574   4.995  16.774  0.00  0.00    +0.000 A 
ATOM      8  N   UNL     1       5.027   4.652  17.998  0.00  0.00    +0.000 N 
ATOM      9  C   UNL     1       4.093   5.586  18.398  0.00  0.00    +0.000 A 
ATOM     10  C   UNL     1       3.334   5.674  19.574  0.00  0.00    +0.000 A 
ATOM     11  H   UNL     1       5.319   3.856  18.557  0.00  0.00    +0.000 HD
ENDROOT
BRANCH   1  12
ATOM     12  C   UNL     1       1.560   6.902  20.918  0.00  0.00    +0.000 C 
BRANCH  12  15
ATOM     13  O   UNL     1      -0.759   8.155  21.810  0.00  0.00    +0.000 OA
ATOM     14  C   UNL     1       0.271   8.818  21.703  0.00  0.00    +0.000 C 
ATOM     15  N   UNL     1       1.473   8.279  21.349  0.00  0.00    +0.000 N 
ATOM     16  H   UNL     1       2.235   8.922  21.158  0.00  0.00    +0.000 HD
BRANCH  14  17
ATOM     17  C   UNL     1       0.277  10.317  21.873  0.00  0.00    +0.000 A 
ATOM     18  C   UNL     1      -0.769  10.766  22.576  0.00  0.00    +0.000 A 
ATOM     19  C   UNL     1      -0.984  12.208  22.555  0.00  0.00    +0.000 A 
ATOM     20  O   UNL     1      -1.592  12.775  23.454  0.00  0.00    +0.000 OA
ATOM     21  N   UNL     1      -0.469  12.784  21.421  0.00  0.00    +0.000 N 
ATOM     22  C   UNL     1      -1.232  13.631  20.642  0.00  0.00    +0.000 A 
ATOM     23  C   UNL     1      -0.690  14.214  19.564  0.00  0.00    +0.000 A 
ATOM     24  C   UNL     1       0.750  14.193  19.424  0.00  0.00    +0.000 A 
ATOM     25  C   UNL     1       1.491  13.311  20.115  0.00  0.00    +0.000 A 
ATOM     26  C   UNL     1       0.757  12.325  20.961  0.00  0.00    +0.000 A 
ATOM     27  N   UNL     1       1.201  11.131  21.227  0.00  0.00    +0.000 NA
ENDBRANCH  14  17
ENDBRANCH  12  15
ENDBRANCH   1  12
BRANCH   7  28
ATOM     28  C   UNL     1       6.643   4.206  16.105  0.00  0.00    +0.000 C 
BRANCH  28  29
ATOM     29  N   UNL     1       6.218   3.693  14.801  0.00  0.00    +0.000 NA
ATOM     30  H   UNL     1       5.228   3.918  14.684  0.00  0.00    +0.000 HD
BRANCH  29  31
ATOM     31  C   UNL     1       6.976   4.269  13.687  0.00  0.00    +0.000 C 
BRANCH  31  32
ATOM     32  C   UNL     1       6.319   3.914  12.357  0.00  0.00    +0.000 C 
ATOM     33  C   UNL     1       6.603   2.508  11.757  0.00  0.00    +0.000 C 
ATOM     34  C   UNL     1       5.125   2.465  11.325  0.00  0.00    +0.000 C 
ATOM     35  C   UNL     1       4.834   3.468  12.458  0.00  0.00    +0.000 C 
ENDBRANCH  31  32
ENDBRANCH  29  31
ENDBRANCH  28  29
ENDBRANCH   7  28
TORSDOF 7
ENDMDL
MODEL 4
REMARK VINA RESULT:      -8.2      1.928      3.474
REMARK  Name = 
REMARK  7 active torsions:
REMARK  status: ('A' for Active; 'I' for Inactive)
REMARK    1  A    between atoms: C_2  and  C_22
REMARK    2  A    between atoms: N_3  and  C_4
REMARK    3  A    between atoms: C_4  and  C_5
REMARK    4  A    between atoms: C_11  and  C_12
REMARK    5  A    between atoms: C_12  and  N_13
REMARK    6  A    between atoms: N_13  and  C_14
REMARK    7  A    between atoms: C_14  and  C_15
REMARK                            x       y       z     vdW  Elec       q    Type
REMARK                         _______ _______ _______ _____ _____    ______ ____
ROOT
ATOM      1  C   UNL     1       1.050   9.096  20.054  0.00  0.00    +0.000 A 
ATOM      2  C   UNL     1       1.337   9.354  18.706  0.00  0.00    +0.000 A 
ATOM      3  C   UNL     1       2.103   8.472  17.944  0.00  0.00    +0.000 A 
ATOM      4  C   UNL     1       2.596   7.301  18.541  0.00  0.00    +0.000 A 
ATOM      5  C   UNL     1       3.376   6.223  18.079  0.00  0.00    +0.000 A 
ATOM      6  F   UNL     1       3.856   6.095  16.878  0.00  0.00    +0.000 F 
ATOM      7  C   UNL     1       3.616   5.353  19.119  0.00  0.00    +0.000 A 
ATOM      8  N   UNL     1       2.919   5.855  20.203  0.00  0.00    +0.000 N 
ATOM      9  C   UNL     1       2.302   7.047  19.880  0.00  0.00    +0.000 A 
ATOM     10  C   UNL     1       1.541   7.925  20.666  0.00  0.00    +0.000 A 
ATOM     11  H   UNL     1       2.913   5.439  21.129  0.00  0.00    +0.000 HD
ENDROOT
BRANCH   1  12
ATOM     12  C   UNL     1       0.165  10.058  20.814  0.00  0.00    +0.000 C 
BRANCH  12  15
ATOM     13  O   UNL     1      -1.058  12.299  19.708  0.00  0.00    +0.000 OA
ATOM     14  C   UNL     1       0.074  12.409  20.173  0.00  0.00    +0.000 C 
ATOM     15  N   UNL     1       0.726  11.390  20.804  0.00  0.00    +0.000 N 
ATOM     16  H   UNL     1       1.703  11.533  21.037  0.00  0.00    +0.000 HD
BRANCH  14  17
ATOM     17  C   UNL     1       0.886  13.670  20.010  0.00  0.00    +0.000 A 
ATOM     18  C   UNL     1       0.334  14.538  19.153  0.00  0.00    +0.000 A 
ATOM     19  C   UNL     1       1.179  15.649  18.734  0.00  0.00    +0.000 A 
ATOM     20  O   UNL     1       0.697  16.701  18.331  0.00  0.00    +0.000 OA
ATOM     21  N   UNL     1       2.513  15.336  18.815  0.00  0.00    +0.000 N 
ATOM     22  C   UNL     1       3.361  15.549  17.746  0.00  0.00    +0.000 A 
ATOM     23  C   UNL     1       4.667  15.274  17.869  0.00  0.00    +0.000 A 
ATOM     24  C   UNL     1       5.204  15.064  19.196  0.00  0.00    +0.000 A 
ATOM     25  C   UNL     1       4.389  14.771  20.223  0.00  0.00    +0.000 A 
ATOM     26  C   UNL     1       2.939  14.602  19.912  0.00  0.00    +0.000 A 
ATOM     27  N   UNL     1       2.144  13.819  20.583  0.00  0.00    +0.000 NA
ENDBRANCH  14  17
ENDBRANCH  12  15
ENDBRANCH   1  12
BRANCH   7  28
ATOM     28  C   UNL     1       4.422   4.103  19.173  0.00  0.00    +0.000 C 
BRANCH  28  29
ATOM     29  N   UNL     1       5.861   4.373  19.165  0.00  0.00    +0.000 NA
ATOM     30  H   UNL     1       6.320   3.645  19.714  0.00  0.00    +0.000 HD
BRANCH  29  31
ATOM     31  C   UNL     1       6.430   4.386  17.814  0.00  0.00    +0.000 C 
BRANCH  31  32
ATOM     32  C   UNL     1       7.508   5.461  17.702  0.00  0.00    +0.000 C 
ATOM     33  C   UNL     1       7.077   6.876  17.225  0.00  0.00    +0.000 C 
ATOM     34  C   UNL     1       8.059   7.454  18.262  0.00  0.00    +0.000 C 
ATOM     35  C   UNL     1       7.903   6.136  19.045  0.00  0.00    +0.000 C 
ENDBRANCH  31  32
ENDBRANCH  29  31
ENDBRANCH  28  29
ENDBRANCH   7  28
TORSDOF 7
ENDMDL
MODEL 5
REMARK VINA RESULT:      -8.2      3.293      5.006
REMARK  Name = 
REMARK  7 active torsions:
REMARK  status: ('A' for Active; 'I' for Inactive)
REMARK    1  A    between atoms: C_2  and  C_22
REMARK    2  A    between atoms: N_3  and  C_4
REMARK    3  A    between atoms: C_4  and  C_5
REMARK    4  A    between atoms: C_11  and  C_12
REMARK    5  A    between atoms: C_12  and  N_13
REMARK    6  A    between atoms: N_13  and  C_14
REMARK    7  A    between atoms: C_14  and  C_15
REMARK                            x       y       z     vdW  Elec       q    Type
REMARK                         _______ _______ _______ _____ _____    ______ ____
ROOT
ATOM      1  C   UNL     1       1.869   6.395  20.363  0.00  0.00    +0.000 A 
ATOM      2  C   UNL     1       1.430   5.097  20.660  0.00  0.00    +0.000 A 
ATOM      3  C   UNL     1       1.830   4.001  19.897  0.00  0.00    +0.000 A 
ATOM      4  C   UNL     1       2.694   4.203  18.808  0.00  0.00    +0.000 A 
ATOM      5  C   UNL     1       3.282   3.348  17.857  0.00  0.00    +0.000 A 
ATOM      6  F   UNL     1       3.111   2.062  17.785  0.00  0.00    +0.000 F 
ATOM      7  C   UNL     1       4.016   4.095  16.961  0.00  0.00    +0.000 A 
ATOM      8  N   UNL     1       3.942   5.402  17.408  0.00  0.00    +0.000 N 
ATOM      9  C   UNL     1       3.132   5.495  18.522  0.00  0.00    +0.000 A 
ATOM     10  C   UNL     1       2.734   6.612  19.272  0.00  0.00    +0.000 A 
ATOM     11  H   UNL     1       4.373   6.196  16.944  0.00  0.00    +0.000 HD
ENDROOT
BRANCH   1  12
ATOM     12  C   UNL     1       1.449   7.536  21.262  0.00  0.00    +0.000 C 
BRANCH  12  15
ATOM     13  O   UNL     1      -0.411   9.408  22.144  0.00  0.00    +0.000 OA
ATOM     14  C   UNL     1      -0.007   9.473  20.984  0.00  0.00    +0.000 C 
ATOM     15  N   UNL     1       0.959   8.651  20.483  0.00  0.00    +0.000 N 
ATOM     16  H   UNL     1       1.133   8.690  19.483  0.00  0.00    +0.000 HD
BRANCH  14  17
ATOM     17  C   UNL     1      -0.611  10.422  19.980  0.00  0.00    +0.000 A 
ATOM     18  C   UNL     1      -1.121  11.524  20.544  0.00  0.00    +0.000 A 
ATOM     19  C   UNL     1      -1.956  12.355  19.687  0.00  0.00    +0.000 A 
ATOM     20  O   UNL     1      -2.116  13.548  19.914  0.00  0.00    +0.000 OA
ATOM     21  N   UNL     1      -2.534  11.628  18.676  0.00  0.00    +0.000 N 
ATOM     22  C   UNL     1      -3.892  11.698  18.433  0.00  0.00    +0.000 A 
ATOM     23  C   UNL     1      -4.421  11.010  17.412  0.00  0.00    +0.000 A 
ATOM     24  C   UNL     1      -3.528  10.470  16.410  0.00  0.00    +0.000 A 
ATOM     25  C   UNL     1      -2.219  10.319  16.673  0.00  0.00    +0.000 A 
ATOM     26  C   UNL     1      -1.761  10.660  18.052  0.00  0.00    +0.000 A 
ATOM     27  N   UNL     1      -0.747  10.089  18.636  0.00  0.00    +0.000 NA
ENDBRANCH  14  17
ENDBRANCH  12  15
ENDBRANCH   1  12
BRANCH   7  28
ATOM     28  C   UNL     1       4.777   3.686  15.750  0.00  0.00    +0.000 C 
BRANCH  28  29
ATOM     29  N   UNL     1       6.224   3.773  15.952  0.00  0.00    +0.000 NA
ATOM     30  H   UNL     1       6.665   3.050  15.380  0.00  0.00    +0.000 HD
BRANCH  29  31
ATOM     31  C   UNL     1       6.775   5.079  15.581  0.00  0.00    +0.000 C 
BRANCH  31  32
ATOM     32  C   UNL     1       7.649   5.626  16.706  0.00  0.00    +0.000 C 
ATOM     33  C   UNL     1       7.139   6.872  17.484  0.00  0.00    +0.000 C 
ATOM     34  C   UNL     1       7.690   6.215  18.765  0.00  0.00    +0.000 C 
ATOM     35  C   UNL     1       7.543   4.858  18.052  0.00  0.00    +0.000 C 
ENDBRANCH  31  32
ENDBRANCH  29  31
ENDBRANCH  28  29
ENDBRANCH   7  28
TORSDOF 7
ENDMDL
MODEL 6
REMARK VINA RESULT:      -8.2      1.401      2.762
REMARK  Name = 
REMARK  7 active torsions:
REMARK  status: ('A' for Active; 'I' for Inactive)
REMARK    1  A    between atoms: C_2  and  C_22
REMARK    2  A    between atoms: N_3  and  C_4
REMARK    3  A    between atoms: C_4  and  C_5
REMARK    4  A    between atoms: C_11  and  C_12
REMARK    5  A    between atoms: C_12  and  N_13
REMARK    6  A    between atoms: N_13  and  C_14
REMARK    7  A    between atoms: C_14  and  C_15
REMARK                            x       y       z     vdW  Elec       q    Type
REMARK                         _______ _______ _______ _____ _____    ______ ____
ROOT
ATOM      1  C   UNL     1       1.151   9.095  19.844  0.00  0.00    +0.000 A 
ATOM      2  C   UNL     1       1.442   9.298  18.487  0.00  0.00    +0.000 A 
ATOM      3  C   UNL     1       2.203   8.381  17.761  0.00  0.00    +0.000 A 
ATOM      4  C   UNL     1       2.685   7.230  18.405  0.00  0.00    +0.000 A 
ATOM      5  C   UNL     1       3.457   6.129  17.986  0.00  0.00    +0.000 A 
ATOM      6  F   UNL     1       3.938   5.950  16.792  0.00  0.00    +0.000 F 
ATOM      7  C   UNL     1       3.687   5.297  19.060  0.00  0.00    +0.000 A 
ATOM      8  N   UNL     1       2.992   5.847  20.122  0.00  0.00    +0.000 N 
ATOM      9  C   UNL     1       2.386   7.031  19.752  0.00  0.00    +0.000 A 
ATOM     10  C   UNL     1       1.631   7.945  20.501  0.00  0.00    +0.000 A 
ATOM     11  H   UNL     1       2.981   5.467  21.063  0.00  0.00    +0.000 HD
ENDROOT
BRANCH   1  12
ATOM     12  C   UNL     1       0.272  10.093  20.564  0.00  0.00    +0.000 C 
BRANCH  12  15
ATOM     13  O   UNL     1      -1.305  11.732  18.961  0.00  0.00    +0.000 OA
ATOM     14  C   UNL     1      -0.206  12.141  19.328  0.00  0.00    +0.000 C 
ATOM     15  N   UNL     1       0.606  11.445  20.176  0.00  0.00    +0.000 N 
ATOM     16  H   UNL     1       1.546  11.798  20.318  0.00  0.00    +0.000 HD
BRANCH  14  17
ATOM     17  C   UNL     1       0.386  13.424  18.800  0.00  0.00    +0.000 A 
ATOM     18  C   UNL     1       1.719  13.375  18.687  0.00  0.00    +0.000 A 
ATOM     19  C   UNL     1       2.389  14.647  18.447  0.00  0.00    +0.000 A 
ATOM     20  O   UNL     1       3.488  14.699  17.909  0.00  0.00    +0.000 OA
ATOM     21  N   UNL     1       1.660  15.707  18.929  0.00  0.00    +0.000 N 
ATOM     22  C   UNL     1       2.239  16.657  19.746  0.00  0.00    +0.000 A 
ATOM     23  C   UNL     1       1.514  17.703  20.166  0.00  0.00    +0.000 A 
ATOM     24  C   UNL     1       0.256  17.978  19.506  0.00  0.00    +0.000 A 
ATOM     25  C   UNL     1      -0.355  17.026  18.780  0.00  0.00    +0.000 A 
ATOM     26  C   UNL     1       0.284  15.678  18.754  0.00  0.00    +0.000 A 
ATOM     27  N   UNL     1      -0.380  14.568  18.609  0.00  0.00    +0.000 NA
ENDBRANCH  14  17
ENDBRANCH  12  15
ENDBRANCH   1  12
BRANCH   7  28
ATOM     28  C   UNL     1       4.483   4.044  19.164  0.00  0.00    +0.000 C 
BRANCH  28  29
ATOM     29  N   UNL     1       5.924   4.304  19.171  0.00  0.00    +0.000 NA
ATOM     30  H   UNL     1       6.370   3.578  19.736  0.00  0.00    +0.000 HD
BRANCH  29  31
ATOM     31  C   UNL     1       6.511   4.296  17.829  0.00  0.00    +0.000 C 
BRANCH  31  32
ATOM     32  C   UNL     1       7.533   5.421  17.690  0.00  0.00    +0.000 C 
ATOM     33  C   UNL     1       7.026   6.808  17.204  0.00  0.00    +0.000 C 
ATOM     34  C   UNL     1       7.994   7.445  18.221  0.00  0.00    +0.000 C 
ATOM     35  C   UNL     1       7.914   6.130  19.019  0.00  0.00    +0.000 C 
ENDBRANCH  31  32
ENDBRANCH  29  31
ENDBRANCH  28  29
ENDBRANCH   7  28
TORSDOF 7
ENDMDL
MODEL 7
REMARK VINA RESULT:      -8.2      1.346      1.806
REMARK  Name = 
REMARK  7 active torsions:
REMARK  status: ('A' for Active; 'I' for Inactive)
REMARK    1  A    between atoms: C_2  and  C_22
REMARK    2  A    between atoms: N_3  and  C_4
REMARK    3  A    between atoms: C_4  and  C_5
REMARK    4  A    between atoms: C_11  and  C_12
REMARK    5  A    between atoms: C_12  and  N_13
REMARK    6  A    between atoms: N_13  and  C_14
REMARK    7  A    between atoms: C_14  and  C_15
REMARK                            x       y       z     vdW  Elec       q    Type
REMARK                         _______ _______ _______ _____ _____    ______ ____
ROOT
ATOM      1  C   UNL     1       1.309   8.809  19.771  0.00  0.00    +0.000 A 
ATOM      2  C   UNL     1       1.569   9.078  18.419  0.00  0.00    +0.000 A 
ATOM      3  C   UNL     1       2.399   8.254  17.659  0.00  0.00    +0.000 A 
ATOM      4  C   UNL     1       2.985   7.130  18.263  0.00  0.00    +0.000 A 
ATOM      5  C   UNL     1       3.845   6.113  17.804  0.00  0.00    +0.000 A 
ATOM      6  F   UNL     1       4.328   6.013  16.602  0.00  0.00    +0.000 F 
ATOM      7  C   UNL     1       4.157   5.272  18.850  0.00  0.00    +0.000 A 
ATOM      8  N   UNL     1       3.427   5.727  19.934  0.00  0.00    +0.000 N 
ATOM      9  C   UNL     1       2.718   6.864  19.605  0.00  0.00    +0.000 A 
ATOM     10  C   UNL     1       1.893   7.685  20.388  0.00  0.00    +0.000 A 
ATOM     11  H   UNL     1       3.458   5.318  20.863  0.00  0.00    +0.000 HD
ENDROOT
BRANCH   1  12
ATOM     12  C   UNL     1       0.354   9.705  20.528  0.00  0.00    +0.000 C 
BRANCH  12  15
ATOM     13  O   UNL     1      -0.668  12.036  19.404  0.00  0.00    +0.000 OA
ATOM     14  C   UNL     1       0.378  12.096  20.048  0.00  0.00    +0.000 C 
ATOM     15  N   UNL     1       0.916  11.025  20.701  0.00  0.00    +0.000 N 
ATOM     16  H   UNL     1       1.845  11.136  21.094  0.00  0.00    +0.000 HD
BRANCH  14  17
ATOM     17  C   UNL     1       1.210  13.352  20.104  0.00  0.00    +0.000 A 
ATOM     18  C   UNL     1       0.719  14.265  20.951  0.00  0.00    +0.000 A 
ATOM     19  C   UNL     1       1.301  15.599  20.863  0.00  0.00    +0.000 A 
ATOM     20  O   UNL     1       1.272  16.371  21.813  0.00  0.00    +0.000 OA
ATOM     21  N   UNL     1       1.814  15.851  19.615  0.00  0.00    +0.000 N 
ATOM     22  C   UNL     1       1.483  17.002  18.928  0.00  0.00    +0.000 A 
ATOM     23  C   UNL     1       2.033  17.243  17.730  0.00  0.00    +0.000 A 
ATOM     24  C   UNL     1       3.184  16.462  17.332  0.00  0.00    +0.000 A 
ATOM     25  C   UNL     1       3.461  15.297  17.941  0.00  0.00    +0.000 A 
ATOM     26  C   UNL     1       2.495  14.825  18.976  0.00  0.00    +0.000 A 
ATOM     27  N   UNL     1       2.280  13.569  19.244  0.00  0.00    +0.000 NA
ENDBRANCH  14  17
ENDBRANCH  12  15
ENDBRANCH   1  12
BRANCH   7  28
ATOM     28  C   UNL     1       5.059   4.090  18.909  0.00  0.00    +0.000 C 
BRANCH  28  29
ATOM     29  N   UNL     1       4.431   2.949  19.579  0.00  0.00    +0.000 NA
ATOM     30  H   UNL     1       3.825   3.313  20.316  0.00  0.00    +0.000 HD
BRANCH  29  31
ATOM     31  C   UNL     1       3.636   2.121  18.668  0.00  0.00    +0.000 C 
BRANCH  31  32
ATOM     32  C   UNL     1       2.180   2.079  19.124  0.00  0.00    +0.000 C 
ATOM     33  C   UNL     1       1.840   2.653  20.528  0.00  0.00    +0.000 C 
ATOM     34  C   UNL     1       0.556   3.236  19.907  0.00  0.00    +0.000 C 
ATOM     35  C   UNL     1       1.280   3.207  18.548  0.00  0.00    +0.000 C 
ENDBRANCH  31  32
ENDBRANCH  29  31
ENDBRANCH  28  29
ENDBRANCH   7  28
TORSDOF 7
ENDMDL
MODEL 8
REMARK VINA RESULT:      -8.1      3.302      4.714
REMARK  Name = 
REMARK  7 active torsions:
REMARK  status: ('A' for Active; 'I' for Inactive)
REMARK    1  A    between atoms: C_2  and  C_22
REMARK    2  A    between atoms: N_3  and  C_4
REMARK    3  A    between atoms: C_4  and  C_5
REMARK    4  A    between atoms: C_11  and  C_12
REMARK    5  A    between atoms: C_12  and  N_13
REMARK    6  A    between atoms: N_13  and  C_14
REMARK    7  A    between atoms: C_14  and  C_15
REMARK                            x       y       z     vdW  Elec       q    Type
REMARK                         _______ _______ _______ _____ _____    ______ ____
ROOT
ATOM      1  C   UNL     1       1.444   9.133  19.021  0.00  0.00    +0.000 A 
ATOM      2  C   UNL     1       1.066   8.689  20.297  0.00  0.00    +0.000 A 
ATOM      3  C   UNL     1       1.471   7.447  20.784  0.00  0.00    +0.000 A 
ATOM      4  C   UNL     1       2.276   6.625  19.978  0.00  0.00    +0.000 A 
ATOM      5  C   UNL     1       2.851   5.351  20.152  0.00  0.00    +0.000 A 
ATOM      6  F   UNL     1       2.724   4.598  21.203  0.00  0.00    +0.000 F 
ATOM      7  C   UNL     1       3.515   4.989  19.001  0.00  0.00    +0.000 A 
ATOM      8  N   UNL     1       3.414   6.073  18.147  0.00  0.00    +0.000 N 
ATOM      9  C   UNL     1       2.653   7.075  18.714  0.00  0.00    +0.000 A 
ATOM     10  C   UNL     1       2.249   8.317  18.203  0.00  0.00    +0.000 A 
ATOM     11  H   UNL     1       3.794   6.104  17.206  0.00  0.00    +0.000 HD
ENDROOT
BRANCH   1  12
ATOM     12  C   UNL     1       1.024  10.514  18.570  0.00  0.00    +0.000 C 
BRANCH  12  15
ATOM     13  O   UNL     1      -1.735  10.869  18.657  0.00  0.00    +0.000 OA
ATOM     14  C   UNL     1      -1.042  11.383  19.532  0.00  0.00    +0.000 C 
ATOM     15  N   UNL     1       0.308  11.203  19.620  0.00  0.00    +0.000 N 
ATOM     16  H   UNL     1       0.813  11.771  20.293  0.00  0.00    +0.000 HD
BRANCH  14  17
ATOM     17  C   UNL     1      -1.617  12.337  20.549  0.00  0.00    +0.000 A 
ATOM     18  C   UNL     1      -0.782  12.581  21.567  0.00  0.00    +0.000 A 
ATOM     19  C   UNL     1      -1.357  13.268  22.717  0.00  0.00    +0.000 A 
ATOM     20  O   UNL     1      -0.660  13.916  23.487  0.00  0.00    +0.000 OA
ATOM     21  N   UNL     1      -2.709  13.050  22.818  0.00  0.00    +0.000 N 
ATOM     22  C   UNL     1      -3.276  12.630  24.005  0.00  0.00    +0.000 A 
ATOM     23  C   UNL     1      -4.603  12.467  24.087  0.00  0.00    +0.000 A 
ATOM     24  C   UNL     1      -5.431  13.033  23.043  0.00  0.00    +0.000 A 
ATOM     25  C   UNL     1      -4.899  13.363  21.855  0.00  0.00    +0.000 A 
ATOM     26  C   UNL     1      -3.454  13.052  21.648  0.00  0.00    +0.000 A 
ATOM     27  N   UNL     1      -2.934  12.779  20.487  0.00  0.00    +0.000 NA
ENDBRANCH  14  17
ENDBRANCH  12  15
ENDBRANCH   1  12
BRANCH   7  28
ATOM     28  C   UNL     1       4.235   3.735  18.648  0.00  0.00    +0.000 C 
BRANCH  28  29
ATOM     29  N   UNL     1       5.689   3.905  18.678  0.00  0.00    +0.000 NA
ATOM     30  H   UNL     1       6.105   3.007  18.930  0.00  0.00    +0.000 HD
BRANCH  29  31
ATOM     31  C   UNL     1       6.237   4.345  17.392  0.00  0.00    +0.000 C 
BRANCH  31  32
ATOM     32  C   UNL     1       7.431   5.270  17.612  0.00  0.00    +0.000 C 
ATOM     33  C   UNL     1       7.256   6.776  17.270  0.00  0.00    +0.000 C 
ATOM     34  C   UNL     1       8.089   7.092  18.527  0.00  0.00    +0.000 C 
ATOM     35  C   UNL     1       7.646   5.725  19.082  0.00  0.00    +0.000 C 
ENDBRANCH  31  32
ENDBRANCH  29  31
ENDBRANCH  28  29
ENDBRANCH   7  28
TORSDOF 7
ENDMDL
MODEL 9
REMARK VINA RESULT:      -8.1      3.297      5.199
REMARK  Name = 
REMARK  7 active torsions:
REMARK  status: ('A' for Active; 'I' for Inactive)
REMARK    1  A    between atoms: C_2  and  C_22
REMARK    2  A    between atoms: N_3  and  C_4
REMARK    3  A    between atoms: C_4  and  C_5
REMARK    4  A    between atoms: C_11  and  C_12
REMARK    5  A    between atoms: C_12  and  N_13
REMARK    6  A    between atoms: N_13  and  C_14
REMARK    7  A    between atoms: C_14  and  C_15
REMARK                            x       y       z     vdW  Elec       q    Type
REMARK                         _______ _______ _______ _____ _____    ______ ____
ROOT
ATOM      1  C   UNL     1       1.063   9.178  20.376  0.00  0.00    +0.000 A 
ATOM      2  C   UNL     1       1.252   9.460  19.015  0.00  0.00    +0.000 A 
ATOM      3  C   UNL     1       1.901   8.562  18.169  0.00  0.00    +0.000 A 
ATOM      4  C   UNL     1       2.375   7.348  18.694  0.00  0.00    +0.000 A 
ATOM      5  C   UNL     1       3.051   6.244  18.140  0.00  0.00    +0.000 A 
ATOM      6  F   UNL     1       3.422   6.125  16.900  0.00  0.00    +0.000 F 
ATOM      7  C   UNL     1       3.327   5.331  19.134  0.00  0.00    +0.000 A 
ATOM      8  N   UNL     1       2.751   5.838  20.286  0.00  0.00    +0.000 N 
ATOM      9  C   UNL     1       2.179   7.071  20.045  0.00  0.00    +0.000 A 
ATOM     10  C   UNL     1       1.536   7.965  20.914  0.00  0.00    +0.000 A 
ATOM     11  H   UNL     1       2.798   5.395  21.198  0.00  0.00    +0.000 HD
ENDROOT
BRANCH   1  12
ATOM     12  C   UNL     1       0.300  10.164  21.231  0.00  0.00    +0.000 C 
BRANCH  12  15
ATOM     13  O   UNL     1      -0.289  12.873  20.996  0.00  0.00    +0.000 OA
ATOM     14  C   UNL     1      -1.065  12.053  20.512  0.00  0.00    +0.000 C 
ATOM     15  N   UNL     1      -0.826  10.709  20.508  0.00  0.00    +0.000 N 
ATOM     16  H   UNL     1      -1.581  10.101  20.206  0.00  0.00    +0.000 HD
BRANCH  14  17
ATOM     17  C   UNL     1      -2.405  12.456  19.948  0.00  0.00    +0.000 A 
ATOM     18  C   UNL     1      -3.014  13.400  20.676  0.00  0.00    +0.000 A 
ATOM     19  C   UNL     1      -4.415  13.649  20.360  0.00  0.00    +0.000 A 
ATOM     20  O   UNL     1      -4.946  14.722  20.616  0.00  0.00    +0.000 OA
ATOM     21  N   UNL     1      -5.017  12.546  19.805  0.00  0.00    +0.000 N 
ATOM     22  C   UNL     1      -6.213  12.065  20.298  0.00  0.00    +0.000 A 
ATOM     23  C   UNL     1      -6.799  11.013  19.710  0.00  0.00    +0.000 A 
ATOM     24  C   UNL     1      -6.335  10.611  18.399  0.00  0.00    +0.000 A 
ATOM     25  C   UNL     1      -5.132  11.007  17.951  0.00  0.00    +0.000 A 
ATOM     26  C   UNL     1      -4.288  11.804  18.888  0.00  0.00    +0.000 A 
ATOM     27  N   UNL     1      -2.986  11.791  18.874  0.00  0.00    +0.000 NA
ENDBRANCH  14  17
ENDBRANCH  12  15
ENDBRANCH   1  12
BRANCH   7  28
ATOM     28  C   UNL     1       4.063   4.038  19.089  0.00  0.00    +0.000 C 
BRANCH  28  29
ATOM     29  N   UNL     1       5.381   4.175  18.468  0.00  0.00    +0.000 NA
ATOM     30  H   UNL     1       5.242   4.433  17.489  0.00  0.00    +0.000 HD
BRANCH  29  31
ATOM     31  C   UNL     1       6.215   5.190  19.118  0.00  0.00    +0.000 C 
BRANCH  31  32
ATOM     32  C   UNL     1       7.065   5.922  18.083  0.00  0.00    +0.000 C 
ATOM     33  C   UNL     1       6.437   7.149  17.364  0.00  0.00    +0.000 C 
ATOM     34  C   UNL     1       7.815   7.832  17.468  0.00  0.00    +0.000 C 
ATOM     35  C   UNL     1       8.103   6.916  18.673  0.00  0.00    +0.000 C 
ENDBRANCH  31  32
ENDBRANCH  29  31
ENDBRANCH  28  29
ENDBRANCH   7  28
TORSDOF 7
ENDMDL
