MODEL 1
REMARK VINA RESULT:      -7.8      0.000      0.000
REMARK  Name = 
REMARK  9 active torsions:
REMARK  status: ('A' for Active; 'I' for Inactive)
REMARK    1  A    between atoms: C_1  and  C_2
REMARK    2  A    between atoms: C_10  and  N_11
REMARK    3  A    between atoms: C_12  and  C_14
REMARK    4  A    between atoms: N_18  and  C_19
REMARK    5  A    between atoms: C_19  and  C_20
REMARK    6  A    between atoms: C_19  and  C_21
REMARK    7  A    between atoms: C_19  and  C_22
REMARK    8  A    between atoms: C_22  and  O_23
REMARK    9  A    between atoms: C_25  and  N_26
REMARK                            x       y       z     vdW  Elec       q    Type
REMARK                         _______ _______ _______ _____ _____    ______ ____
ROOT
ATOM      1  C   UNL     1      -0.171  11.272  21.786  0.00  0.00    +0.000 A 
ATOM      2  N   UNL     1      -1.096  10.733  22.637  0.00  0.00    +0.000 NA
ATOM      3  C   UNL     1      -1.798  11.652  23.337  0.00  0.00    +0.000 A 
ATOM      4  C   UNL     1      -1.672  13.037  23.182  0.00  0.00    +0.000 A 
ATOM      5  N   UNL     1      -2.410  13.889  24.010  0.00  0.00    +0.000 N 
ATOM      6  N   UNL     1      -0.786  13.524  22.288  0.00  0.00    +0.000 NA
ATOM      7  C   UNL     1      -0.028  12.659  21.546  0.00  0.00    +0.000 A 
ATOM      8  H   UNL     1      -3.277  13.442  24.312  0.00  0.00    +0.000 HD
ENDROOT
BRANCH   7   9
ATOM      9  N   UNL     1       0.777  13.232  20.582  0.00  0.00    +0.000 N 
ATOM     10  C   UNL     1       0.338  13.475  19.205  0.00  0.00    +0.000 C 
ATOM     11  C   UNL     1       0.346  14.979  18.917  0.00  0.00    +0.000 C 
ATOM     12  C   UNL     1       1.687  15.601  19.243  0.00  0.00    +0.000 C 
ATOM     13  C   UNL     1       2.196  15.255  20.633  0.00  0.00    +0.000 C 
ATOM     14  C   UNL     1       2.102  13.750  20.924  0.00  0.00    +0.000 C 
ATOM     15  C   UNL     1       2.675  15.849  18.123  0.00  0.00    +0.000 C 
ATOM     16  C   UNL     1       1.935  17.005  18.733  0.00  0.00    +0.000 C 
ENDBRANCH   7   9
BRANCH   1  18
ATOM     17  N   UNL     1       0.620   9.868  19.958  0.00  0.00    +0.000 N 
ATOM     18  C   UNL     1       0.821  10.270  21.272  0.00  0.00    +0.000 C 
ATOM     19  O   UNL     1       1.694   9.868  22.026  0.00  0.00    +0.000 OA
ATOM     20  H   UNL     1      -0.238  10.159  19.508  0.00  0.00    +0.000 HD
BRANCH  17  30
ATOM     21  C   UNL     1       2.321   2.054  19.763  0.00  0.00    +0.000 C 
ATOM     22  C   UNL     1       1.684   3.361  19.303  0.00  0.00    +0.000 C 
ATOM     23  C   UNL     1       0.908   4.060  20.420  0.00  0.00    +0.000 C 
ATOM     24  C   UNL     1       1.780   5.234  20.842  0.00  0.00    +0.000 C 
ATOM     25  N   UNL     1       2.545   5.568  19.643  0.00  0.00    +0.000 N 
ATOM     26  C   UNL     1       2.411   6.832  19.099  0.00  0.00    +0.000 A 
ATOM     27  C   UNL     1       3.087   7.220  17.947  0.00  0.00    +0.000 A 
ATOM     28  C   UNL     1       2.970   8.530  17.479  0.00  0.00    +0.000 A 
ATOM     29  C   UNL     1       2.163   9.434  18.162  0.00  0.00    +0.000 A 
ATOM     30  C   UNL     1       1.486   8.986  19.283  0.00  0.00    +0.000 A 
ATOM     31  N   UNL     1       1.644   7.732  19.744  0.00  0.00    +0.000 NA
ATOM     32  C   UNL     1       2.722   4.384  18.809  0.00  0.00    +0.000 C 
ENDBRANCH  17  30
ENDBRANCH   1  18
BRANCH   5  33
ATOM     33  C   UNL     1      -2.707  15.288  23.620  0.00  0.00    +0.000 C 
ATOM     34  C   UNL     1      -1.463  16.178  23.719  0.00  0.00    +0.000 C 
ATOM     35  C   UNL     1      -3.345  15.383  22.223  0.00  0.00    +0.000 C 
BRANCH  33  36
ATOM     36  C   UNL     1      -3.748  15.807  24.665  0.00  0.00    +0.000 C 
BRANCH  36  37
ATOM     37  O   UNL     1      -4.993  15.104  24.538  0.00  0.00    +0.000 OA
ATOM     38  H   UNL     1      -5.478  15.223  25.373  0.00  0.00    +0.000 HD
ENDBRANCH  36  37
ENDBRANCH  33  36
ENDBRANCH   5  33
TORSDOF 6
ENDMDL
MODEL 2
REMARK VINA RESULT:      -7.6      0.883      1.363
REMARK  Name = 
REMARK  9 active torsions:
REMARK  status: ('A' for Active; 'I' for Inactive)
REMARK    1  A    between atoms: C_1  and  C_2
REMARK    2  A    between atoms: C_10  and  N_11
REMARK    3  A    between atoms: C_12  and  C_14
REMARK    4  A    between atoms: N_18  and  C_19
REMARK    5  A    between atoms: C_19  and  C_20
REMARK    6  A    between atoms: C_19  and  C_21
REMARK    7  A    between atoms: C_19  and  C_22
REMARK    8  A    between atoms: C_22  and  O_23
REMARK    9  A    between atoms: C_25  and  N_26
REMARK                            x       y       z     vdW  Elec       q    Type
REMARK                         _______ _______ _______ _____ _____    ______ ____
ROOT
ATOM      1  C   UNL     1      -0.565  11.756  21.715  0.00  0.00    +0.000 A 
ATOM      2  N   UNL     1      -1.482  11.059  22.453  0.00  0.00    +0.000 NA
ATOM      3  C   UNL     1      -2.299  11.843  23.193  0.00  0.00    +0.000 A 
ATOM      4  C   UNL     1      -2.287  13.242  23.179  0.00  0.00    +0.000 A 
ATOM      5  N   UNL     1      -3.139  13.942  24.039  0.00  0.00    +0.000 N 
ATOM      6  N   UNL     1      -1.400  13.887  22.392  0.00  0.00    +0.000 NA
ATOM      7  C   UNL     1      -0.532  13.167  21.619  0.00  0.00    +0.000 A 
ATOM      8  H   UNL     1      -3.978  13.398  24.243  0.00  0.00    +0.000 HD
ENDROOT
BRANCH   7   9
ATOM      9  N   UNL     1       0.270  13.898  20.765  0.00  0.00    +0.000 N 
ATOM     10  C   UNL     1       1.548  14.489  21.168  0.00  0.00    +0.000 C 
ATOM     11  C   UNL     1       2.687  13.861  20.358  0.00  0.00    +0.000 C 
ATOM     12  C   UNL     1       2.423  13.947  18.870  0.00  0.00    +0.000 C 
ATOM     13  C   UNL     1       1.049  13.439  18.465  0.00  0.00    +0.000 C 
ATOM     14  C   UNL     1      -0.065  14.023  19.346  0.00  0.00    +0.000 C 
ATOM     15  C   UNL     1       3.080  15.053  18.069  0.00  0.00    +0.000 C 
ATOM     16  C   UNL     1       3.585  13.643  17.947  0.00  0.00    +0.000 C 
ENDBRANCH   7   9
BRANCH   1  18
ATOM     17  N   UNL     1       0.209  10.179  20.026  0.00  0.00    +0.000 N 
ATOM     18  C   UNL     1       0.537  10.895  21.169  0.00  0.00    +0.000 C 
ATOM     19  O   UNL     1       1.605  10.863  21.762  0.00  0.00    +0.000 OA
ATOM     20  H   UNL     1      -0.761  10.176  19.741  0.00  0.00    +0.000 HD
BRANCH  17  30
ATOM     21  C   UNL     1       2.550   2.534  19.798  0.00  0.00    +0.000 C 
ATOM     22  C   UNL     1       1.797   3.782  19.352  0.00  0.00    +0.000 C 
ATOM     23  C   UNL     1       0.988   4.416  20.484  0.00  0.00    +0.000 C 
ATOM     24  C   UNL     1       1.768   5.659  20.888  0.00  0.00    +0.000 C 
ATOM     25  N   UNL     1       2.478   6.054  19.673  0.00  0.00    +0.000 N 
ATOM     26  C   UNL     1       2.228   7.301  19.132  0.00  0.00    +0.000 A 
ATOM     27  C   UNL     1       2.847   7.741  17.967  0.00  0.00    +0.000 A 
ATOM     28  C   UNL     1       2.612   9.037  17.500  0.00  0.00    +0.000 A 
ATOM     29  C   UNL     1       1.746   9.872  18.199  0.00  0.00    +0.000 A 
ATOM     30  C   UNL     1       1.131   9.371  19.334  0.00  0.00    +0.000 A 
ATOM     31  N   UNL     1       1.402   8.135  19.792  0.00  0.00    +0.000 NA
ATOM     32  C   UNL     1       2.736   4.887  18.836  0.00  0.00    +0.000 C 
ENDBRANCH  17  30
ENDBRANCH   1  18
BRANCH   5  33
ATOM     33  C   UNL     1      -3.537  15.345  23.767  0.00  0.00    +0.000 C 
ATOM     34  C   UNL     1      -2.622  16.341  24.488  0.00  0.00    +0.000 C 
ATOM     35  C   UNL     1      -3.610  15.651  22.261  0.00  0.00    +0.000 C 
BRANCH  33  36
ATOM     36  C   UNL     1      -4.974  15.500  24.363  0.00  0.00    +0.000 C 
BRANCH  36  37
ATOM     37  O   UNL     1      -5.692  14.259  24.299  0.00  0.00    +0.000 OA
ATOM     38  H   UNL     1      -5.043  13.544  24.418  0.00  0.00    +0.000 HD
ENDBRANCH  36  37
ENDBRANCH  33  36
ENDBRANCH   5  33
TORSDOF 6
ENDMDL
MODEL 3
REMARK VINA RESULT:      -7.4      1.034      1.599
REMARK  Name = 
REMARK  9 active torsions:
REMARK  status: ('A' for Active; 'I' for Inactive)
REMARK    1  A    between atoms: C_1  and  C_2
REMARK    2  A    between atoms: C_10  and  N_11
REMARK    3  A    between atoms: C_12  and  C_14
REMARK    4  A    between atoms: N_18  and  C_19
REMARK    5  A    between atoms: C_19  and  C_20
REMARK    6  A    between atoms: C_19  and  C_21
REMARK    7  A    between atoms: C_19  and  C_22
REMARK    8  A    between atoms: C_22  and  O_23
REMARK    9  A    between atoms: C_25  and  N_26
REMARK                            x       y       z     vdW  Elec       q    Type
REMARK                         _______ _______ _______ _____ _____    ______ ____
ROOT
ATOM      1  C   UNL     1      -0.588  11.616  21.844  0.00  0.00    +0.000 A 
ATOM      2  N   UNL     1      -1.517  10.951  22.597  0.00  0.00    +0.000 NA
ATOM      3  C   UNL     1      -2.306  11.764  23.335  0.00  0.00    +0.000 A 
ATOM      4  C   UNL     1      -2.260  13.162  23.305  0.00  0.00    +0.000 A 
ATOM      5  N   UNL     1      -3.087  13.893  24.163  0.00  0.00    +0.000 N 
ATOM      6  N   UNL     1      -1.364  13.775  22.503  0.00  0.00    +0.000 NA
ATOM      7  C   UNL     1      -0.521  13.025  21.731  0.00  0.00    +0.000 A 
ATOM      8  H   UNL     1      -3.938  13.372  24.380  0.00  0.00    +0.000 HD
ENDROOT
BRANCH   7   9
ATOM      9  N   UNL     1       0.292  13.726  20.862  0.00  0.00    +0.000 N 
ATOM     10  C   UNL     1       1.641  14.181  21.210  0.00  0.00    +0.000 C 
ATOM     11  C   UNL     1       2.667  13.499  20.301  0.00  0.00    +0.000 C 
ATOM     12  C   UNL     1       2.325  13.684  18.838  0.00  0.00    +0.000 C 
ATOM     13  C   UNL     1       0.889  13.319  18.498  0.00  0.00    +0.000 C 
ATOM     14  C   UNL     1      -0.113  13.953  19.474  0.00  0.00    +0.000 C 
ATOM     15  C   UNL     1       3.030  14.768  18.049  0.00  0.00    +0.000 C 
ATOM     16  C   UNL     1       3.398  13.328  17.831  0.00  0.00    +0.000 C 
ENDBRANCH   7   9
BRANCH   1  18
ATOM     17  N   UNL     1       0.218  10.176  20.051  0.00  0.00    +0.000 N 
ATOM     18  C   UNL     1       0.487  10.722  21.299  0.00  0.00    +0.000 C 
ATOM     19  O   UNL     1       1.482  10.520  21.978  0.00  0.00    +0.000 OA
ATOM     20  H   UNL     1      -0.714  10.299  19.681  0.00  0.00    +0.000 HD
BRANCH  17  30
ATOM     21  C   UNL     1       2.533   2.524  19.781  0.00  0.00    +0.000 C 
ATOM     22  C   UNL     1       1.782   3.777  19.343  0.00  0.00    +0.000 C 
ATOM     23  C   UNL     1       0.980   4.409  20.481  0.00  0.00    +0.000 C 
ATOM     24  C   UNL     1       1.766   5.648  20.887  0.00  0.00    +0.000 C 
ATOM     25  N   UNL     1       2.472   6.045  19.671  0.00  0.00    +0.000 N 
ATOM     26  C   UNL     1       2.224   7.296  19.136  0.00  0.00    +0.000 A 
ATOM     27  C   UNL     1       2.839   7.739  17.970  0.00  0.00    +0.000 A 
ATOM     28  C   UNL     1       2.607   9.037  17.510  0.00  0.00    +0.000 A 
ATOM     29  C   UNL     1       1.747   9.872  18.216  0.00  0.00    +0.000 A 
ATOM     30  C   UNL     1       1.135   9.368  19.351  0.00  0.00    +0.000 A 
ATOM     31  N   UNL     1       1.404   8.129  19.803  0.00  0.00    +0.000 NA
ATOM     32  C   UNL     1       2.723   4.881  18.828  0.00  0.00    +0.000 C 
ENDBRANCH  17  30
ENDBRANCH   1  18
BRANCH   5  33
ATOM     33  C   UNL     1      -3.452  15.302  23.879  0.00  0.00    +0.000 C 
ATOM     34  C   UNL     1      -3.464  15.589  22.374  0.00  0.00    +0.000 C 
ATOM     35  C   UNL     1      -4.787  15.703  24.530  0.00  0.00    +0.000 C 
BRANCH  33  36
ATOM     36  C   UNL     1      -2.320  16.169  24.520  0.00  0.00    +0.000 C 
BRANCH  36  37
ATOM     37  O   UNL     1      -2.009  15.708  25.843  0.00  0.00    +0.000 OA
ATOM     38  H   UNL     1      -2.110  16.466  26.444  0.00  0.00    +0.000 HD
ENDBRANCH  36  37
ENDBRANCH  33  36
ENDBRANCH   5  33
TORSDOF 6
ENDMDL
MODEL 4
REMARK VINA RESULT:      -7.4      2.728      3.724
REMARK  Name = 
REMARK  9 active torsions:
REMARK  status: ('A' for Active; 'I' for Inactive)
REMARK    1  A    between atoms: C_1  and  C_2
REMARK    2  A    between atoms: C_10  and  N_11
REMARK    3  A    between atoms: C_12  and  C_14
REMARK    4  A    between atoms: N_18  and  C_19
REMARK    5  A    between atoms: C_19  and  C_20
REMARK    6  A    between atoms: C_19  and  C_21
REMARK    7  A    between atoms: C_19  and  C_22
REMARK    8  A    between atoms: C_22  and  O_23
REMARK    9  A    between atoms: C_25  and  N_26
REMARK                            x       y       z     vdW  Elec       q    Type
REMARK                         _______ _______ _______ _____ _____    ______ ____
ROOT
ATOM      1  C   UNL     1      -1.323  11.619  21.205  0.00  0.00    +0.000 A 
ATOM      2  N   UNL     1      -1.226  11.580  22.569  0.00  0.00    +0.000 NA
ATOM      3  C   UNL     1      -2.175  12.303  23.206  0.00  0.00    +0.000 A 
ATOM      4  C   UNL     1      -3.220  12.982  22.570  0.00  0.00    +0.000 A 
ATOM      5  N   UNL     1      -4.105  13.748  23.335  0.00  0.00    +0.000 N 
ATOM      6  N   UNL     1      -3.308  12.945  21.224  0.00  0.00    +0.000 NA
ATOM      7  C   UNL     1      -2.381  12.244  20.503  0.00  0.00    +0.000 A 
ATOM      8  H   UNL     1      -4.182  13.378  24.283  0.00  0.00    +0.000 HD
ENDROOT
BRANCH   7   9
ATOM      9  N   UNL     1      -2.601  12.168  19.142  0.00  0.00    +0.000 N 
ATOM     10  C   UNL     1      -1.526  12.225  18.148  0.00  0.00    +0.000 C 
ATOM     11  C   UNL     1      -1.470  10.906  17.371  0.00  0.00    +0.000 C 
ATOM     12  C   UNL     1      -2.819  10.549  16.784  0.00  0.00    +0.000 C 
ATOM     13  C   UNL     1      -3.955  10.602  17.792  0.00  0.00    +0.000 C 
ATOM     14  C   UNL     1      -3.938  11.900  18.613  0.00  0.00    +0.000 C 
ATOM     15  C   UNL     1      -3.094  10.864  15.328  0.00  0.00    +0.000 C 
ATOM     16  C   UNL     1      -2.848   9.443  15.750  0.00  0.00    +0.000 C 
ENDBRANCH   7   9
BRANCH   1  18
ATOM     17  N   UNL     1      -0.103   9.747  20.233  0.00  0.00    +0.000 N 
ATOM     18  C   UNL     1      -0.097  11.108  20.506  0.00  0.00    +0.000 C 
ATOM     19  O   UNL     1       0.805  11.893  20.257  0.00  0.00    +0.000 OA
ATOM     20  H   UNL     1      -0.844   9.194  20.643  0.00  0.00    +0.000 HD
BRANCH  17  30
ATOM     21  C   UNL     1       3.187   2.478  19.672  0.00  0.00    +0.000 C 
ATOM     22  C   UNL     1       2.293   3.645  19.270  0.00  0.00    +0.000 C 
ATOM     23  C   UNL     1       1.386   4.110  20.410  0.00  0.00    +0.000 C 
ATOM     24  C   UNL     1       1.994   5.416  20.901  0.00  0.00    +0.000 C 
ATOM     25  N   UNL     1       2.675   5.963  19.729  0.00  0.00    +0.000 N 
ATOM     26  C   UNL     1       2.281   7.198  19.247  0.00  0.00    +0.000 A 
ATOM     27  C   UNL     1       2.865   7.775  18.124  0.00  0.00    +0.000 A 
ATOM     28  C   UNL     1       2.478   9.055  17.720  0.00  0.00    +0.000 A 
ATOM     29  C   UNL     1       1.500   9.736  18.437  0.00  0.00    +0.000 A 
ATOM     30  C   UNL     1       0.928   9.100  19.525  0.00  0.00    +0.000 A 
ATOM     31  N   UNL     1       1.343   7.884  19.926  0.00  0.00    +0.000 NA
ATOM     32  C   UNL     1       3.096   4.886  18.840  0.00  0.00    +0.000 C 
ENDBRANCH  17  30
ENDBRANCH   1  18
BRANCH   5  33
ATOM     33  C   UNL     1      -5.462  14.089  22.846  0.00  0.00    +0.000 C 
ATOM     34  C   UNL     1      -6.054  12.962  21.992  0.00  0.00    +0.000 C 
ATOM     35  C   UNL     1      -6.416  14.476  23.990  0.00  0.00    +0.000 C 
BRANCH  33  36
ATOM     36  C   UNL     1      -5.279  15.339  21.925  0.00  0.00    +0.000 C 
BRANCH  36  37
ATOM     37  O   UNL     1      -5.270  14.959  20.541  0.00  0.00    +0.000 OA
ATOM     38  H   UNL     1      -5.253  15.778  20.017  0.00  0.00    +0.000 HD
ENDBRANCH  36  37
ENDBRANCH  33  36
ENDBRANCH   5  33
TORSDOF 6
ENDMDL
MODEL 5
REMARK VINA RESULT:      -7.4      1.072      1.670
REMARK  Name = 
REMARK  9 active torsions:
REMARK  status: ('A' for Active; 'I' for Inactive)
REMARK    1  A    between atoms: C_1  and  C_2
REMARK    2  A    between atoms: C_10  and  N_11
REMARK    3  A    between atoms: C_12  and  C_14
REMARK    4  A    between atoms: N_18  and  C_19
REMARK    5  A    between atoms: C_19  and  C_20
REMARK    6  A    between atoms: C_19  and  C_21
REMARK    7  A    between atoms: C_19  and  C_22
REMARK    8  A    between atoms: C_22  and  O_23
REMARK    9  A    between atoms: C_25  and  N_26
REMARK                            x       y       z     vdW  Elec       q    Type
REMARK                         _______ _______ _______ _____ _____    ______ ____
ROOT
ATOM      1  C   UNL     1      -0.503  11.855  21.662  0.00  0.00    +0.000 A 
ATOM      2  N   UNL     1      -1.415  11.156  22.404  0.00  0.00    +0.000 NA
ATOM      3  C   UNL     1      -2.226  11.937  23.153  0.00  0.00    +0.000 A 
ATOM      4  C   UNL     1      -2.215  13.336  23.143  0.00  0.00    +0.000 A 
ATOM      5  N   UNL     1      -3.062  14.033  24.011  0.00  0.00    +0.000 N 
ATOM      6  N   UNL     1      -1.336  13.984  22.351  0.00  0.00    +0.000 NA
ATOM      7  C   UNL     1      -0.472  13.267  21.570  0.00  0.00    +0.000 A 
ATOM      8  H   UNL     1      -3.899  13.487  24.220  0.00  0.00    +0.000 HD
ENDROOT
BRANCH   7   9
ATOM      9  N   UNL     1       0.323  14.001  20.712  0.00  0.00    +0.000 N 
ATOM     10  C   UNL     1       1.572  14.645  21.125  0.00  0.00    +0.000 C 
ATOM     11  C   UNL     1       2.748  14.035  20.356  0.00  0.00    +0.000 C 
ATOM     12  C   UNL     1       2.514  14.071  18.861  0.00  0.00    +0.000 C 
ATOM     13  C   UNL     1       1.166  13.506  18.442  0.00  0.00    +0.000 C 
ATOM     14  C   UNL     1       0.015  14.076  19.283  0.00  0.00    +0.000 C 
ATOM     15  C   UNL     1       3.150  15.176  18.043  0.00  0.00    +0.000 C 
ATOM     16  C   UNL     1       3.704  13.782  17.971  0.00  0.00    +0.000 C 
ENDBRANCH   7   9
BRANCH   1  18
ATOM     17  N   UNL     1       0.236  10.220  20.013  0.00  0.00    +0.000 N 
ATOM     18  C   UNL     1       0.595  10.998  21.106  0.00  0.00    +0.000 C 
ATOM     19  O   UNL     1       1.689  11.019  21.650  0.00  0.00    +0.000 OA
ATOM     20  H   UNL     1      -0.746  10.181  19.774  0.00  0.00    +0.000 HD
BRANCH  17  30
ATOM     21  C   UNL     1       2.537   2.563  19.809  0.00  0.00    +0.000 C 
ATOM     22  C   UNL     1       1.785   3.811  19.363  0.00  0.00    +0.000 C 
ATOM     23  C   UNL     1       0.991   4.457  20.499  0.00  0.00    +0.000 C 
ATOM     24  C   UNL     1       1.781   5.698  20.887  0.00  0.00    +0.000 C 
ATOM     25  N   UNL     1       2.481   6.082  19.663  0.00  0.00    +0.000 N 
ATOM     26  C   UNL     1       2.232   7.327  19.117  0.00  0.00    +0.000 A 
ATOM     27  C   UNL     1       2.840   7.757  17.942  0.00  0.00    +0.000 A 
ATOM     28  C   UNL     1       2.607   9.051  17.470  0.00  0.00    +0.000 A 
ATOM     29  C   UNL     1       1.753   9.894  18.173  0.00  0.00    +0.000 A 
ATOM     30  C   UNL     1       1.147   9.403  19.316  0.00  0.00    +0.000 A 
ATOM     31  N   UNL     1       1.416   8.169  19.780  0.00  0.00    +0.000 NA
ATOM     32  C   UNL     1       2.725   4.909  18.831  0.00  0.00    +0.000 C 
ENDBRANCH  17  30
ENDBRANCH   1  18
BRANCH   5  33
ATOM     33  C   UNL     1      -3.463  15.436  23.746  0.00  0.00    +0.000 C 
ATOM     34  C   UNL     1      -4.739  15.812  24.507  0.00  0.00    +0.000 C 
ATOM     35  C   UNL     1      -2.329  16.433  24.040  0.00  0.00    +0.000 C 
BRANCH  33  36
ATOM     36  C   UNL     1      -3.783  15.504  22.217  0.00  0.00    +0.000 C 
BRANCH  36  37
ATOM     37  O   UNL     1      -2.873  16.384  21.542  0.00  0.00    +0.000 OA
ATOM     38  H   UNL     1      -1.976  16.155  21.840  0.00  0.00    +0.000 HD
ENDBRANCH  36  37
ENDBRANCH  33  36
ENDBRANCH   5  33
TORSDOF 6
ENDMDL
MODEL 6
REMARK VINA RESULT:      -7.3      2.558      3.501
REMARK  Name = 
REMARK  9 active torsions:
REMARK  status: ('A' for Active; 'I' for Inactive)
REMARK    1  A    between atoms: C_1  and  C_2
REMARK    2  A    between atoms: C_10  and  N_11
REMARK    3  A    between atoms: C_12  and  C_14
REMARK    4  A    between atoms: N_18  and  C_19
REMARK    5  A    between atoms: C_19  and  C_20
REMARK    6  A    between atoms: C_19  and  C_21
REMARK    7  A    between atoms: C_19  and  C_22
REMARK    8  A    between atoms: C_22  and  O_23
REMARK    9  A    between atoms: C_25  and  N_26
REMARK                            x       y       z     vdW  Elec       q    Type
REMARK                         _______ _______ _______ _____ _____    ______ ____
ROOT
ATOM      1  C   UNL     1      -0.584  10.901  21.265  0.00  0.00    +0.000 A 
ATOM      2  N   UNL     1      -0.451  10.702  22.612  0.00  0.00    +0.000 NA
ATOM      3  C   UNL     1      -1.342  11.394  23.359  0.00  0.00    +0.000 A 
ATOM      4  C   UNL     1      -2.366  12.192  22.839  0.00  0.00    +0.000 A 
ATOM      5  N   UNL     1      -3.187  12.909  23.715  0.00  0.00    +0.000 N 
ATOM      6  N   UNL     1      -2.495  12.313  21.500  0.00  0.00    +0.000 NA
ATOM      7  C   UNL     1      -1.627  11.653  20.674  0.00  0.00    +0.000 A 
ATOM      8  H   UNL     1      -3.257  12.437  24.617  0.00  0.00    +0.000 HD
ENDROOT
BRANCH   7   9
ATOM      9  N   UNL     1      -1.889  11.744  19.322  0.00  0.00    +0.000 N 
ATOM     10  C   UNL     1      -0.874  11.527  18.288  0.00  0.00    +0.000 C 
ATOM     11  C   UNL     1      -1.257  10.314  17.434  0.00  0.00    +0.000 C 
ATOM     12  C   UNL     1      -2.662  10.442  16.885  0.00  0.00    +0.000 C 
ATOM     13  C   UNL     1      -3.700  10.781  17.942  0.00  0.00    +0.000 C 
ATOM     14  C   UNL     1      -3.254  11.948  18.835  0.00  0.00    +0.000 C 
ATOM     15  C   UNL     1      -2.854  10.926  15.463  0.00  0.00    +0.000 C 
ATOM     16  C   UNL     1      -3.062   9.475  15.791  0.00  0.00    +0.000 C 
ENDBRANCH   7   9
BRANCH   1  18
ATOM     17  N   UNL     1       0.579   9.055  20.180  0.00  0.00    +0.000 N 
ATOM     18  C   UNL     1       0.592  10.412  20.472  0.00  0.00    +0.000 C 
ATOM     19  O   UNL     1       1.467  11.210  20.169  0.00  0.00    +0.000 OA
ATOM     20  H   UNL     1      -0.124   8.488  20.635  0.00  0.00    +0.000 HD
BRANCH  17  30
ATOM     21  C   UNL     1       3.824   1.808  19.212  0.00  0.00    +0.000 C 
ATOM     22  C   UNL     1       2.906   2.985  18.900  0.00  0.00    +0.000 C 
ATOM     23  C   UNL     1       2.075   3.417  20.109  0.00  0.00    +0.000 C 
ATOM     24  C   UNL     1       2.714   4.711  20.594  0.00  0.00    +0.000 C 
ATOM     25  N   UNL     1       3.318   5.290  19.396  0.00  0.00    +0.000 N 
ATOM     26  C   UNL     1       2.894   6.537  18.974  0.00  0.00    +0.000 A 
ATOM     27  C   UNL     1       3.404   7.145  17.832  0.00  0.00    +0.000 A 
ATOM     28  C   UNL     1       2.993   8.435  17.488  0.00  0.00    +0.000 A 
ATOM     29  C   UNL     1       2.063   9.094  18.284  0.00  0.00    +0.000 A 
ATOM     30  C   UNL     1       1.563   8.429  19.390  0.00  0.00    +0.000 A 
ATOM     31  N   UNL     1       2.002   7.203  19.730  0.00  0.00    +0.000 NA
ATOM     32  C   UNL     1       3.680   4.238  18.453  0.00  0.00    +0.000 C 
ENDBRANCH  17  30
ENDBRANCH   1  18
BRANCH   5  33
ATOM     33  C   UNL     1      -4.538  13.370  23.314  0.00  0.00    +0.000 C 
ATOM     34  C   UNL     1      -4.646  14.898  23.348  0.00  0.00    +0.000 C 
ATOM     35  C   UNL     1      -4.962  12.816  21.942  0.00  0.00    +0.000 C 
BRANCH  33  36
ATOM     36  C   UNL     1      -5.517  12.799  24.391  0.00  0.00    +0.000 C 
BRANCH  36  37
ATOM     37  O   UNL     1      -6.602  12.091  23.772  0.00  0.00    +0.000 OA
ATOM     38  H   UNL     1      -6.212  11.434  23.171  0.00  0.00    +0.000 HD
ENDBRANCH  36  37
ENDBRANCH  33  36
ENDBRANCH   5  33
TORSDOF 6
ENDMDL
MODEL 7
REMARK VINA RESULT:      -7.2      2.403      3.323
REMARK  Name = 
REMARK  9 active torsions:
REMARK  status: ('A' for Active; 'I' for Inactive)
REMARK    1  A    between atoms: C_1  and  C_2
REMARK    2  A    between atoms: C_10  and  N_11
REMARK    3  A    between atoms: C_12  and  C_14
REMARK    4  A    between atoms: N_18  and  C_19
REMARK    5  A    between atoms: C_19  and  C_20
REMARK    6  A    between atoms: C_19  and  C_21
REMARK    7  A    between atoms: C_19  and  C_22
REMARK    8  A    between atoms: C_22  and  O_23
REMARK    9  A    between atoms: C_25  and  N_26
REMARK                            x       y       z     vdW  Elec       q    Type
REMARK                         _______ _______ _______ _____ _____    ______ ____
ROOT
ATOM      1  C   UNL     1      -1.065  10.959  21.070  0.00  0.00    +0.000 A 
ATOM      2  N   UNL     1      -0.745  10.885  22.398  0.00  0.00    +0.000 NA
ATOM      3  C   UNL     1      -1.042  12.005  23.095  0.00  0.00    +0.000 A 
ATOM      4  C   UNL     1      -1.683  13.129  22.562  0.00  0.00    +0.000 A 
ATOM      5  N   UNL     1      -1.879  14.253  23.370  0.00  0.00    +0.000 N 
ATOM      6  N   UNL     1      -2.032  13.133  21.258  0.00  0.00    +0.000 NA
ATOM      7  C   UNL     1      -1.758  12.042  20.480  0.00  0.00    +0.000 A 
ATOM      8  H   UNL     1      -1.955  13.986  24.353  0.00  0.00    +0.000 HD
ENDROOT
BRANCH   7   9
ATOM      9  N   UNL     1      -2.239  12.083  19.187  0.00  0.00    +0.000 N 
ATOM     10  C   UNL     1      -1.388  12.313  18.017  0.00  0.00    +0.000 C 
ATOM     11  C   UNL     1      -1.420  11.083  17.104  0.00  0.00    +0.000 C 
ATOM     12  C   UNL     1      -2.838  10.689  16.752  0.00  0.00    +0.000 C 
ATOM     13  C   UNL     1      -3.752  10.562  17.959  0.00  0.00    +0.000 C 
ATOM     14  C   UNL     1      -3.640  11.772  18.898  0.00  0.00    +0.000 C 
ATOM     15  C   UNL     1      -3.412  11.122  15.419  0.00  0.00    +0.000 C 
ATOM     16  C   UNL     1      -3.014   9.689  15.628  0.00  0.00    +0.000 C 
ENDBRANCH   7   9
BRANCH   1  18
ATOM     17  N   UNL     1       0.907  10.053  19.960  0.00  0.00    +0.000 N 
ATOM     18  C   UNL     1      -0.440   9.871  20.246  0.00  0.00    +0.000 C 
ATOM     19  O   UNL     1      -1.140   8.943  19.871  0.00  0.00    +0.000 OA
ATOM     20  H   UNL     1       1.315  10.948  20.196  0.00  0.00    +0.000 HD
BRANCH  17  30
ATOM     21  C   UNL     1       2.154   2.153  19.865  0.00  0.00    +0.000 C 
ATOM     22  C   UNL     1       1.563   3.484  19.411  0.00  0.00    +0.000 C 
ATOM     23  C   UNL     1       0.897   4.251  20.554  0.00  0.00    +0.000 C 
ATOM     24  C   UNL     1       1.858   5.382  20.893  0.00  0.00    +0.000 C 
ATOM     25  N   UNL     1       2.566   5.645  19.641  0.00  0.00    +0.000 N 
ATOM     26  C   UNL     1       2.469   6.902  19.074  0.00  0.00    +0.000 A 
ATOM     27  C   UNL     1       3.095   7.224  17.875  0.00  0.00    +0.000 A 
ATOM     28  C   UNL     1       3.023   8.529  17.380  0.00  0.00    +0.000 A 
ATOM     29  C   UNL     1       2.311   9.492  18.087  0.00  0.00    +0.000 A 
ATOM     30  C   UNL     1       1.679   9.109  19.257  0.00  0.00    +0.000 A 
ATOM     31  N   UNL     1       1.794   7.858  19.741  0.00  0.00    +0.000 NA
ATOM     32  C   UNL     1       2.625   4.435  18.829  0.00  0.00    +0.000 C 
ENDBRANCH  17  30
ENDBRANCH   1  18
BRANCH   5  33
ATOM     33  C   UNL     1      -2.928  15.255  23.067  0.00  0.00    +0.000 C 
ATOM     34  C   UNL     1      -2.440  16.295  22.054  0.00  0.00    +0.000 C 
ATOM     35  C   UNL     1      -4.243  14.604  22.602  0.00  0.00    +0.000 C 
BRANCH  33  36
ATOM     36  C   UNL     1      -3.206  15.998  24.415  0.00  0.00    +0.000 C 
BRANCH  36  37
ATOM     37  O   UNL     1      -3.720  15.091  25.402  0.00  0.00    +0.000 OA
ATOM     38  H   UNL     1      -3.190  14.278  25.350  0.00  0.00    +0.000 HD
ENDBRANCH  36  37
ENDBRANCH  33  36
ENDBRANCH   5  33
TORSDOF 6
ENDMDL
MODEL 8
REMARK VINA RESULT:      -7.1      2.546      3.527
REMARK  Name = 
REMARK  9 active torsions:
REMARK  status: ('A' for Active; 'I' for Inactive)
REMARK    1  A    between atoms: C_1  and  C_2
REMARK    2  A    between atoms: C_10  and  N_11
REMARK    3  A    between atoms: C_12  and  C_14
REMARK    4  A    between atoms: N_18  and  C_19
REMARK    5  A    between atoms: C_19  and  C_20
REMARK    6  A    between atoms: C_19  and  C_21
REMARK    7  A    between atoms: C_19  and  C_22
REMARK    8  A    between atoms: C_22  and  O_23
REMARK    9  A    between atoms: C_25  and  N_26
REMARK                            x       y       z     vdW  Elec       q    Type
REMARK                         _______ _______ _______ _____ _____    ______ ____
ROOT
ATOM      1  C   UNL     1      -1.090  11.004  21.008  0.00  0.00    +0.000 A 
ATOM      2  N   UNL     1      -0.770  10.960  22.338  0.00  0.00    +0.000 NA
ATOM      3  C   UNL     1      -1.079  12.091  23.012  0.00  0.00    +0.000 A 
ATOM      4  C   UNL     1      -1.730  13.197  22.457  0.00  0.00    +0.000 A 
ATOM      5  N   UNL     1      -1.938  14.335  23.242  0.00  0.00    +0.000 N 
ATOM      6  N   UNL     1      -2.078  13.172  21.153  0.00  0.00    +0.000 NA
ATOM      7  C   UNL     1      -1.793  12.069  20.397  0.00  0.00    +0.000 A 
ATOM      8  H   UNL     1      -2.012  14.087  24.230  0.00  0.00    +0.000 HD
ENDROOT
BRANCH   7   9
ATOM      9  N   UNL     1      -2.274  12.079  19.103  0.00  0.00    +0.000 N 
ATOM     10  C   UNL     1      -1.419  12.265  17.927  0.00  0.00    +0.000 C 
ATOM     11  C   UNL     1      -1.466  11.011  17.049  0.00  0.00    +0.000 C 
ATOM     12  C   UNL     1      -2.889  10.624  16.707  0.00  0.00    +0.000 C 
ATOM     13  C   UNL     1      -3.805  10.543  17.918  0.00  0.00    +0.000 C 
ATOM     14  C   UNL     1      -3.678  11.777  18.822  0.00  0.00    +0.000 C 
ATOM     15  C   UNL     1      -3.458  11.027  15.363  0.00  0.00    +0.000 C 
ATOM     16  C   UNL     1      -3.078   9.596  15.612  0.00  0.00    +0.000 C 
ENDBRANCH   7   9
BRANCH   1  18
ATOM     17  N   UNL     1       0.886  10.106  19.900  0.00  0.00    +0.000 N 
ATOM     18  C   UNL     1      -0.454   9.907  20.206  0.00  0.00    +0.000 C 
ATOM     19  O   UNL     1      -1.140   8.955  19.866  0.00  0.00    +0.000 OA
ATOM     20  H   UNL     1       1.279  11.015  20.106  0.00  0.00    +0.000 HD
BRANCH  17  30
ATOM     21  C   UNL     1       2.178   2.213  19.908  0.00  0.00    +0.000 C 
ATOM     22  C   UNL     1       1.583   3.534  19.434  0.00  0.00    +0.000 C 
ATOM     23  C   UNL     1       0.905   4.311  20.563  0.00  0.00    +0.000 C 
ATOM     24  C   UNL     1       1.857   5.452  20.895  0.00  0.00    +0.000 C 
ATOM     25  N   UNL     1       2.572   5.704  19.645  0.00  0.00    +0.000 N 
ATOM     26  C   UNL     1       2.472   6.954  19.062  0.00  0.00    +0.000 A 
ATOM     27  C   UNL     1       3.104   7.265  17.863  0.00  0.00    +0.000 A 
ATOM     28  C   UNL     1       3.027   8.563  17.352  0.00  0.00    +0.000 A 
ATOM     29  C   UNL     1       2.305   9.531  18.043  0.00  0.00    +0.000 A 
ATOM     30  C   UNL     1       1.668   9.158  19.214  0.00  0.00    +0.000 A 
ATOM     31  N   UNL     1       1.787   7.914  19.713  0.00  0.00    +0.000 NA
ATOM     32  C   UNL     1       2.644   4.484  18.848  0.00  0.00    +0.000 C 
ENDBRANCH  17  30
ENDBRANCH   1  18
BRANCH   5  33
ATOM     33  C   UNL     1      -2.997  15.321  22.919  0.00  0.00    +0.000 C 
ATOM     34  C   UNL     1      -4.324  14.633  22.578  0.00  0.00    +0.000 C 
ATOM     35  C   UNL     1      -3.185  16.364  24.034  0.00  0.00    +0.000 C 
BRANCH  33  36
ATOM     36  C   UNL     1      -2.504  16.066  21.636  0.00  0.00    +0.000 C 
BRANCH  36  37
ATOM     37  O   UNL     1      -3.318  15.730  20.503  0.00  0.00    +0.000 OA
ATOM     38  H   UNL     1      -2.844  15.046  20.001  0.00  0.00    +0.000 HD
ENDBRANCH  36  37
ENDBRANCH  33  36
ENDBRANCH   5  33
TORSDOF 6
ENDMDL
MODEL 9
REMARK VINA RESULT:      -7.0      0.938      1.042
REMARK  Name = 
REMARK  9 active torsions:
REMARK  status: ('A' for Active; 'I' for Inactive)
REMARK    1  A    between atoms: C_1  and  C_2
REMARK    2  A    between atoms: C_10  and  N_11
REMARK    3  A    between atoms: C_12  and  C_14
REMARK    4  A    between atoms: N_18  and  C_19
REMARK    5  A    between atoms: C_19  and  C_20
REMARK    6  A    between atoms: C_19  and  C_21
REMARK    7  A    between atoms: C_19  and  C_22
REMARK    8  A    between atoms: C_22  and  O_23
REMARK    9  A    between atoms: C_25  and  N_26
REMARK                            x       y       z     vdW  Elec       q    Type
REMARK                         _______ _______ _______ _____ _____    ______ ____
ROOT
ATOM      1  C   UNL     1      -0.470  12.033  21.608  0.00  0.00    +0.000 A 
ATOM      2  N   UNL     1      -1.318  11.290  22.383  0.00  0.00    +0.000 NA
ATOM      3  C   UNL     1      -2.131  12.031  23.170  0.00  0.00    +0.000 A 
ATOM      4  C   UNL     1      -2.183  13.429  23.169  0.00  0.00    +0.000 A 
ATOM      5  N   UNL     1      -3.023  14.083  24.075  0.00  0.00    +0.000 N 
ATOM      6  N   UNL     1      -1.368  14.119  22.344  0.00  0.00    +0.000 NA
ATOM      7  C   UNL     1      -0.507  13.445  21.522  0.00  0.00    +0.000 A 
ATOM      8  H   UNL     1      -3.825  13.499  24.316  0.00  0.00    +0.000 HD
ENDROOT
BRANCH   7   9
ATOM      9  N   UNL     1       0.217  14.218  20.637  0.00  0.00    +0.000 N 
ATOM     10  C   UNL     1      -0.150  14.388  19.229  0.00  0.00    +0.000 C 
ATOM     11  C   UNL     1      -0.477  15.859  18.952  0.00  0.00    +0.000 C 
ATOM     12  C   UNL     1       0.646  16.771  19.399  0.00  0.00    +0.000 C 
ATOM     13  C   UNL     1       1.105  16.517  20.826  0.00  0.00    +0.000 C 
ATOM     14  C   UNL     1       1.348  15.025  21.097  0.00  0.00    +0.000 C 
ATOM     15  C   UNL     1       1.637  17.275  18.371  0.00  0.00    +0.000 C 
ATOM     16  C   UNL     1       0.596  18.207  18.922  0.00  0.00    +0.000 C 
ENDBRANCH   7   9
BRANCH   1  18
ATOM     17  N   UNL     1       0.233  10.250  20.102  0.00  0.00    +0.000 N 
ATOM     18  C   UNL     1       0.641  11.228  21.000  0.00  0.00    +0.000 C 
ATOM     19  O   UNL     1       1.790  11.460  21.344  0.00  0.00    +0.000 OA
ATOM     20  H   UNL     1      -0.758  10.062  20.038  0.00  0.00    +0.000 HD
BRANCH  17  30
ATOM     21  C   UNL     1       2.535   2.597  19.780  0.00  0.00    +0.000 C 
ATOM     22  C   UNL     1       1.776   3.850  19.358  0.00  0.00    +0.000 C 
ATOM     23  C   UNL     1       0.998   4.483  20.513  0.00  0.00    +0.000 C 
ATOM     24  C   UNL     1       1.793   5.720  20.904  0.00  0.00    +0.000 C 
ATOM     25  N   UNL     1       2.475   6.118  19.673  0.00  0.00    +0.000 N 
ATOM     26  C   UNL     1       2.217   7.369  19.145  0.00  0.00    +0.000 A 
ATOM     27  C   UNL     1       2.809   7.812  17.966  0.00  0.00    +0.000 A 
ATOM     28  C   UNL     1       2.567   9.111  17.512  0.00  0.00    +0.000 A 
ATOM     29  C   UNL     1       1.723   9.946  18.236  0.00  0.00    +0.000 A 
ATOM     30  C   UNL     1       1.134   9.442  19.383  0.00  0.00    +0.000 A 
ATOM     31  N   UNL     1       1.411   8.203  19.829  0.00  0.00    +0.000 NA
ATOM     32  C   UNL     1       2.708   4.954  18.825  0.00  0.00    +0.000 C 
ENDBRANCH  17  30
ENDBRANCH   1  18
BRANCH   5  33
ATOM     33  C   UNL     1      -3.497  15.467  23.837  0.00  0.00    +0.000 C 
ATOM     34  C   UNL     1      -2.924  16.446  24.867  0.00  0.00    +0.000 C 
ATOM     35  C   UNL     1      -3.211  15.944  22.402  0.00  0.00    +0.000 C 
BRANCH  33  36
ATOM     36  C   UNL     1      -5.048  15.423  24.032  0.00  0.00    +0.000 C 
BRANCH  36  37
ATOM     37  O   UNL     1      -5.480  14.105  24.398  0.00  0.00    +0.000 OA
ATOM     38  H   UNL     1      -6.448  14.133  24.487  0.00  0.00    +0.000 HD
ENDBRANCH  36  37
ENDBRANCH  33  36
ENDBRANCH   5  33
TORSDOF 6
ENDMDL
