MODEL 1
REMARK VINA RESULT:      -8.0      0.000      0.000
REMARK  Name = 
REMARK  6 active torsions:
REMARK  status: ('A' for Active; 'I' for Inactive)
REMARK    1  A    between atoms: C_1  and  O_2
REMARK    2  A    between atoms: O_2  and  C_3
REMARK    3  A    between atoms: C_6  and  C_7
REMARK    4  A    between atoms: C_12  and  C_13
REMARK    5  A    between atoms: C_16  and  O_17
REMARK    6  A    between atoms: O_17  and  C_18
REMARK                            x       y       z     vdW  Elec       q    Type
REMARK                         _______ _______ _______ _____ _____    ______ ____
ROOT
ATOM      1  C   UNL     1       2.114   7.290  20.252  0.00  0.00    +0.000 C 
ATOM      2  C   UNL     1       1.301   6.078  20.723  0.00  0.00    +0.000 C 
ATOM      3  C   UNL     1       2.084   4.801  20.551  0.00  0.00    +0.000 C 
ATOM      4  O   UNL     1       1.946   3.839  21.303  0.00  0.00    +0.000 OA
ATOM      5  C   UNL     1       2.990   4.684  19.386  0.00  0.00    +0.000 C 
ATOM      6  C   UNL     1       3.184   5.733  18.573  0.00  0.00    +0.000 C 
ATOM      7  C   UNL     1       2.571   7.100  18.790  0.00  0.00    +0.000 C 
ENDROOT
BRANCH   1  11
ATOM      8  C   UNL     1      -0.432  10.676  21.188  0.00  0.00    +0.000 A 
ATOM      9  C   UNL     1      -0.039   9.770  22.171  0.00  0.00    +0.000 A 
ATOM     10  C   UNL     1       0.836   8.727  21.866  0.00  0.00    +0.000 A 
ATOM     11  C   UNL     1       1.323   8.552  20.560  0.00  0.00    +0.000 A 
ATOM     12  C   UNL     1       0.931   9.473  19.580  0.00  0.00    +0.000 A 
ATOM     13  C   UNL     1       0.063  10.531  19.893  0.00  0.00    +0.000 A 
BRANCH   8  15
ATOM     14  C   UNL     1      -1.715  11.560  22.971  0.00  0.00    +0.000 C 
ATOM     15  O   UNL     1      -1.340  11.610  21.601  0.00  0.00    +0.000 OA
ENDBRANCH   8  15
ENDBRANCH   1  11
BRANCH   6  16
ATOM     16  C   UNL     1       4.074   5.567  17.419  0.00  0.00    +0.000 A 
ATOM     17  C   UNL     1       4.428   4.302  16.950  0.00  0.00    +0.000 A 
ATOM     18  C   UNL     1       5.299   4.192  15.865  0.00  0.00    +0.000 A 
ATOM     19  C   UNL     1       5.785   5.355  15.288  0.00  0.00    +0.000 A 
ATOM     20  N   UNL     1       5.474   6.593  15.724  0.00  0.00    +0.000 NA
ATOM     21  C   UNL     1       4.631   6.670  16.778  0.00  0.00    +0.000 A 
BRANCH  19  22
ATOM     22  O   UNL     1       6.633   5.199  14.210  0.00  0.00    +0.000 OA
ATOM     23  C   UNL     1       6.409   3.979  13.507  0.00  0.00    +0.000 C 
ENDBRANCH  19  22
ENDBRANCH   6  16
TORSDOF 4
ENDMDL
MODEL 2
REMARK VINA RESULT:      -7.8      0.481      1.109
REMARK  Name = 
REMARK  6 active torsions:
REMARK  status: ('A' for Active; 'I' for Inactive)
REMARK    1  A    between atoms: C_1  and  O_2
REMARK    2  A    between atoms: O_2  and  C_3
REMARK    3  A    between atoms: C_6  and  C_7
REMARK    4  A    between atoms: C_12  and  C_13
REMARK    5  A    between atoms: C_16  and  O_17
REMARK    6  A    between atoms: O_17  and  C_18
REMARK                            x       y       z     vdW  Elec       q    Type
REMARK                         _______ _______ _______ _____ _____    ______ ____
ROOT
ATOM      1  C   UNL     1       2.177   7.190  20.155  0.00  0.00    +0.000 C 
ATOM      2  C   UNL     1       1.459   5.947  20.694  0.00  0.00    +0.000 C 
ATOM      3  C   UNL     1       2.329   4.722  20.565  0.00  0.00    +0.000 C 
ATOM      4  O   UNL     1       2.270   3.787  21.361  0.00  0.00    +0.000 OA
ATOM      5  C   UNL     1       3.223   4.616  19.391  0.00  0.00    +0.000 C 
ATOM      6  C   UNL     1       3.331   5.638  18.528  0.00  0.00    +0.000 C 
ATOM      7  C   UNL     1       2.625   6.967  18.695  0.00  0.00    +0.000 C 
ENDROOT
BRANCH   1  11
ATOM      8  C   UNL     1      -0.019  10.863  20.870  0.00  0.00    +0.000 A 
ATOM      9  C   UNL     1       0.473  10.547  19.606  0.00  0.00    +0.000 A 
ATOM     10  C   UNL     1       1.116   9.329  19.379  0.00  0.00    +0.000 A 
ATOM     11  C   UNL     1       1.303   8.406  20.420  0.00  0.00    +0.000 A 
ATOM     12  C   UNL     1       0.795   8.728  21.687  0.00  0.00    +0.000 A 
ATOM     13  C   UNL     1       0.136   9.947  21.909  0.00  0.00    +0.000 A 
BRANCH   8  15
ATOM     14  C   UNL     1      -0.700  12.633  22.290  0.00  0.00    +0.000 C 
ATOM     15  O   UNL     1      -0.569  12.110  20.974  0.00  0.00    +0.000 OA
ENDBRANCH   8  15
ENDBRANCH   1  11
BRANCH   6  16
ATOM     16  C   UNL     1       4.214   5.482  17.367  0.00  0.00    +0.000 A 
ATOM     17  C   UNL     1       4.629   4.224  16.934  0.00  0.00    +0.000 A 
ATOM     18  C   UNL     1       5.491   4.125  15.840  0.00  0.00    +0.000 A 
ATOM     19  C   UNL     1       5.907   5.293  15.220  0.00  0.00    +0.000 A 
ATOM     20  N   UNL     1       5.535   6.527  15.621  0.00  0.00    +0.000 NA
ATOM     21  C   UNL     1       4.702   6.593  16.684  0.00  0.00    +0.000 A 
BRANCH  19  22
ATOM     22  O   UNL     1       6.748   5.148  14.135  0.00  0.00    +0.000 OA
ATOM     23  C   UNL     1       6.467   3.976  13.375  0.00  0.00    +0.000 C 
ENDBRANCH  19  22
ENDBRANCH   6  16
TORSDOF 4
ENDMDL
MODEL 3
REMARK VINA RESULT:      -7.8      1.377      1.968
REMARK  Name = 
REMARK  6 active torsions:
REMARK  status: ('A' for Active; 'I' for Inactive)
REMARK    1  A    between atoms: C_1  and  O_2
REMARK    2  A    between atoms: O_2  and  C_3
REMARK    3  A    between atoms: C_6  and  C_7
REMARK    4  A    between atoms: C_12  and  C_13
REMARK    5  A    between atoms: C_16  and  O_17
REMARK    6  A    between atoms: O_17  and  C_18
REMARK                            x       y       z     vdW  Elec       q    Type
REMARK                         _______ _______ _______ _____ _____    ______ ____
ROOT
ATOM      1  C   UNL     1       2.927   6.449  19.455  0.00  0.00    +0.000 C 
ATOM      2  C   UNL     1       2.257   5.115  19.805  0.00  0.00    +0.000 C 
ATOM      3  C   UNL     1       3.214   3.965  19.618  0.00  0.00    +0.000 C 
ATOM      4  O   UNL     1       3.162   2.948  20.306  0.00  0.00    +0.000 OA
ATOM      5  C   UNL     1       4.194   4.039  18.511  0.00  0.00    +0.000 C 
ATOM      6  C   UNL     1       4.294   5.153  17.770  0.00  0.00    +0.000 C 
ATOM      7  C   UNL     1       3.491   6.412  18.019  0.00  0.00    +0.000 C 
ENDROOT
BRANCH   1  11
ATOM      8  C   UNL     1       0.445   9.888  20.371  0.00  0.00    +0.000 A 
ATOM      9  C   UNL     1       1.036   9.733  19.119  0.00  0.00    +0.000 A 
ATOM     10  C   UNL     1       1.774   8.587  18.820  0.00  0.00    +0.000 A 
ATOM     11  C   UNL     1       1.957   7.576  19.776  0.00  0.00    +0.000 A 
ATOM     12  C   UNL     1       1.349   7.734  21.029  0.00  0.00    +0.000 A 
ATOM     13  C   UNL     1       0.596   8.882  21.323  0.00  0.00    +0.000 A 
BRANCH   8  15
ATOM     14  C   UNL     1      -1.227  11.394  19.631  0.00  0.00    +0.000 C 
ATOM     15  O   UNL     1      -0.195  11.082  20.558  0.00  0.00    +0.000 OA
ENDBRANCH   8  15
ENDBRANCH   1  11
BRANCH   6  16
ATOM     16  C   UNL     1       5.265   5.176  16.672  0.00  0.00    +0.000 A 
ATOM     17  C   UNL     1       5.096   4.387  15.535  0.00  0.00    +0.000 A 
ATOM     18  C   UNL     1       6.059   4.421  14.526  0.00  0.00    +0.000 A 
ATOM     19  C   UNL     1       7.161   5.246  14.693  0.00  0.00    +0.000 A 
ATOM     20  N   UNL     1       7.363   6.013  15.785  0.00  0.00    +0.000 NA
ATOM     21  C   UNL     1       6.415   5.958  16.747  0.00  0.00    +0.000 A 
BRANCH  19  22
ATOM     22  O   UNL     1       8.082   5.259  13.664  0.00  0.00    +0.000 OA
ATOM     23  C   UNL     1       7.525   4.835  12.423  0.00  0.00    +0.000 C 
ENDBRANCH  19  22
ENDBRANCH   6  16
TORSDOF 4
ENDMDL
MODEL 4
REMARK VINA RESULT:      -7.7      1.157      1.359
REMARK  Name = 
REMARK  6 active torsions:
REMARK  status: ('A' for Active; 'I' for Inactive)
REMARK    1  A    between atoms: C_1  and  O_2
REMARK    2  A    between atoms: O_2  and  C_3
REMARK    3  A    between atoms: C_6  and  C_7
REMARK    4  A    between atoms: C_12  and  C_13
REMARK    5  A    between atoms: C_16  and  O_17
REMARK    6  A    between atoms: O_17  and  C_18
REMARK                            x       y       z     vdW  Elec       q    Type
REMARK                         _______ _______ _______ _____ _____    ______ ____
ROOT
ATOM      1  C   UNL     1       2.785   6.625  19.526  0.00  0.00    +0.000 C 
ATOM      2  C   UNL     1       1.976   5.348  19.779  0.00  0.00    +0.000 C 
ATOM      3  C   UNL     1       2.826   4.119  19.571  0.00  0.00    +0.000 C 
ATOM      4  O   UNL     1       2.646   3.081  20.203  0.00  0.00    +0.000 OA
ATOM      5  C   UNL     1       3.859   4.150  18.511  0.00  0.00    +0.000 C 
ATOM      6  C   UNL     1       4.098   5.283  17.833  0.00  0.00    +0.000 C 
ATOM      7  C   UNL     1       3.408   6.602  18.114  0.00  0.00    +0.000 C 
ENDROOT
BRANCH   1  11
ATOM      8  C   UNL     1       0.012   9.819  20.490  0.00  0.00    +0.000 A 
ATOM      9  C   UNL     1       0.313   8.818  21.410  0.00  0.00    +0.000 A 
ATOM     10  C   UNL     1       1.260   7.838  21.108  0.00  0.00    +0.000 A 
ATOM     11  C   UNL     1       1.913   7.824  19.866  0.00  0.00    +0.000 A 
ATOM     12  C   UNL     1       1.612   8.841  18.950  0.00  0.00    +0.000 A 
ATOM     13  C   UNL     1       0.670   9.834  19.262  0.00  0.00    +0.000 A 
BRANCH   8  15
ATOM     14  C   UNL     1      -0.862  11.212  22.195  0.00  0.00    +0.000 C 
ATOM     15  O   UNL     1      -0.977  10.678  20.882  0.00  0.00    +0.000 OA
ENDBRANCH   8  15
ENDBRANCH   1  11
BRANCH   6  16
ATOM     16  C   UNL     1       5.116   5.264  16.778  0.00  0.00    +0.000 A 
ATOM     17  C   UNL     1       5.023   4.392  15.694  0.00  0.00    +0.000 A 
ATOM     18  C   UNL     1       6.029   4.390  14.727  0.00  0.00    +0.000 A 
ATOM     19  C   UNL     1       7.095   5.264  14.881  0.00  0.00    +0.000 A 
ATOM     20  N   UNL     1       7.223   6.111  15.923  0.00  0.00    +0.000 NA
ATOM     21  C   UNL     1       6.235   6.090  16.846  0.00  0.00    +0.000 A 
BRANCH  19  22
ATOM     22  O   UNL     1       8.060   5.237  13.894  0.00  0.00    +0.000 OA
ATOM     23  C   UNL     1       7.517   4.976  12.602  0.00  0.00    +0.000 C 
ENDBRANCH  19  22
ENDBRANCH   6  16
TORSDOF 4
ENDMDL
MODEL 5
REMARK VINA RESULT:      -7.7      0.645      1.025
REMARK  Name = 
REMARK  6 active torsions:
REMARK  status: ('A' for Active; 'I' for Inactive)
REMARK    1  A    between atoms: C_1  and  O_2
REMARK    2  A    between atoms: O_2  and  C_3
REMARK    3  A    between atoms: C_6  and  C_7
REMARK    4  A    between atoms: C_12  and  C_13
REMARK    5  A    between atoms: C_16  and  O_17
REMARK    6  A    between atoms: O_17  and  C_18
REMARK                            x       y       z     vdW  Elec       q    Type
REMARK                         _______ _______ _______ _____ _____    ______ ____
ROOT
ATOM      1  C   UNL     1       2.216   7.203  20.242  0.00  0.00    +0.000 C 
ATOM      2  C   UNL     1       1.438   5.992  20.770  0.00  0.00    +0.000 C 
ATOM      3  C   UNL     1       2.243   4.726  20.623  0.00  0.00    +0.000 C 
ATOM      4  O   UNL     1       2.140   3.786  21.409  0.00  0.00    +0.000 OA
ATOM      5  C   UNL     1       3.126   4.587  19.444  0.00  0.00    +0.000 C 
ATOM      6  C   UNL     1       3.282   5.612  18.592  0.00  0.00    +0.000 C 
ATOM      7  C   UNL     1       2.646   6.973  18.777  0.00  0.00    +0.000 C 
ENDROOT
BRANCH   1  11
ATOM      8  C   UNL     1      -0.372  10.568  21.139  0.00  0.00    +0.000 A 
ATOM      9  C   UNL     1       0.117   9.739  22.147  0.00  0.00    +0.000 A 
ATOM     10  C   UNL     1       1.004   8.704  21.848  0.00  0.00    +0.000 A 
ATOM     11  C   UNL     1       1.406   8.459  20.525  0.00  0.00    +0.000 A 
ATOM     12  C   UNL     1       0.918   9.303  19.519  0.00  0.00    +0.000 A 
ATOM     13  C   UNL     1       0.038  10.353  19.825  0.00  0.00    +0.000 A 
BRANCH   8  15
ATOM     14  C   UNL     1      -1.547  11.539  22.952  0.00  0.00    +0.000 C 
ATOM     15  O   UNL     1      -1.281  11.500  21.556  0.00  0.00    +0.000 OA
ENDBRANCH   8  15
ENDBRANCH   1  11
BRANCH   6  16
ATOM     16  C   UNL     1       4.151   5.425  17.426  0.00  0.00    +0.000 A 
ATOM     17  C   UNL     1       4.618   6.510  16.686  0.00  0.00    +0.000 A 
ATOM     18  C   UNL     1       5.421   6.283  15.567  0.00  0.00    +0.000 A 
ATOM     19  C   UNL     1       5.727   4.973  15.229  0.00  0.00    +0.000 A 
ATOM     20  N   UNL     1       5.281   3.900  15.915  0.00  0.00    +0.000 NA
ATOM     21  C   UNL     1       4.504   4.149  16.992  0.00  0.00    +0.000 A 
BRANCH  19  22
ATOM     22  O   UNL     1       6.534   4.795  14.123  0.00  0.00    +0.000 OA
ATOM     23  C   UNL     1       6.130   3.690  13.320  0.00  0.00    +0.000 C 
ENDBRANCH  19  22
ENDBRANCH   6  16
TORSDOF 4
ENDMDL
MODEL 6
REMARK VINA RESULT:      -7.7      2.010      8.059
REMARK  Name = 
REMARK  6 active torsions:
REMARK  status: ('A' for Active; 'I' for Inactive)
REMARK    1  A    between atoms: C_1  and  O_2
REMARK    2  A    between atoms: O_2  and  C_3
REMARK    3  A    between atoms: C_6  and  C_7
REMARK    4  A    between atoms: C_12  and  C_13
REMARK    5  A    between atoms: C_16  and  O_17
REMARK    6  A    between atoms: O_17  and  C_18
REMARK                            x       y       z     vdW  Elec       q    Type
REMARK                         _______ _______ _______ _____ _____    ______ ____
ROOT
ATOM      1  C   UNL     1       2.932   5.511  18.445  0.00  0.00    +0.000 C 
ATOM      2  C   UNL     1       3.006   4.441  19.541  0.00  0.00    +0.000 C 
ATOM      3  C   UNL     1       1.874   4.597  20.526  0.00  0.00    +0.000 C 
ATOM      4  O   UNL     1       1.377   3.639  21.114  0.00  0.00    +0.000 OA
ATOM      5  C   UNL     1       1.407   5.964  20.849  0.00  0.00    +0.000 C 
ATOM      6  C   UNL     1       1.908   7.022  20.194  0.00  0.00    +0.000 C 
ATOM      7  C   UNL     1       2.915   6.923  19.067  0.00  0.00    +0.000 C 
ENDROOT
BRANCH   1  11
ATOM      8  C   UNL     1       5.805   4.813  15.270  0.00  0.00    +0.000 A 
ATOM      9  C   UNL     1       5.413   6.102  15.623  0.00  0.00    +0.000 A 
ATOM     10  C   UNL     1       4.541   6.311  16.692  0.00  0.00    +0.000 A 
ATOM     11  C   UNL     1       4.022   5.230  17.423  0.00  0.00    +0.000 A 
ATOM     12  C   UNL     1       4.430   3.937  17.068  0.00  0.00    +0.000 A 
ATOM     13  C   UNL     1       5.319   3.731  16.001  0.00  0.00    +0.000 A 
BRANCH   8  15
ATOM     14  C   UNL     1       6.263   3.761  13.198  0.00  0.00    +0.000 C 
ATOM     15  O   UNL     1       6.610   4.741  14.167  0.00  0.00    +0.000 OA
ENDBRANCH   8  15
ENDBRANCH   1  11
BRANCH   6  16
ATOM     16  C   UNL     1       1.431   8.360  20.559  0.00  0.00    +0.000 A 
ATOM     17  C   UNL     1       1.103   9.305  19.588  0.00  0.00    +0.000 A 
ATOM     18  C   UNL     1       0.679  10.575  19.981  0.00  0.00    +0.000 A 
ATOM     19  C   UNL     1       0.599  10.853  21.338  0.00  0.00    +0.000 A 
ATOM     20  N   UNL     1       0.920   9.967  22.303  0.00  0.00    +0.000 NA
ATOM     21  C   UNL     1       1.331   8.746  21.893  0.00  0.00    +0.000 A 
BRANCH  19  22
ATOM     22  O   UNL     1       0.162  12.116  21.682  0.00  0.00    +0.000 OA
ATOM     23  C   UNL     1       0.953  13.148  21.100  0.00  0.00    +0.000 C 
ENDBRANCH  19  22
ENDBRANCH   6  16
TORSDOF 4
ENDMDL
MODEL 7
REMARK VINA RESULT:      -7.6      1.976      8.146
REMARK  Name = 
REMARK  6 active torsions:
REMARK  status: ('A' for Active; 'I' for Inactive)
REMARK    1  A    between atoms: C_1  and  O_2
REMARK    2  A    between atoms: O_2  and  C_3
REMARK    3  A    between atoms: C_6  and  C_7
REMARK    4  A    between atoms: C_12  and  C_13
REMARK    5  A    between atoms: C_16  and  O_17
REMARK    6  A    between atoms: O_17  and  C_18
REMARK                            x       y       z     vdW  Elec       q    Type
REMARK                         _______ _______ _______ _____ _____    ______ ____
ROOT
ATOM      1  C   UNL     1       2.800   5.670  18.468  0.00  0.00    +0.000 C 
ATOM      2  C   UNL     1       2.933   4.584  19.542  0.00  0.00    +0.000 C 
ATOM      3  C   UNL     1       1.833   4.699  20.566  0.00  0.00    +0.000 C 
ATOM      4  O   UNL     1       1.376   3.720  21.153  0.00  0.00    +0.000 OA
ATOM      5  C   UNL     1       1.347   6.049  20.928  0.00  0.00    +0.000 C 
ATOM      6  C   UNL     1       1.804   7.129  20.276  0.00  0.00    +0.000 C 
ATOM      7  C   UNL     1       2.774   7.071  19.115  0.00  0.00    +0.000 C 
ENDROOT
BRANCH   1  11
ATOM      8  C   UNL     1       6.033   4.838  15.696  0.00  0.00    +0.000 A 
ATOM      9  C   UNL     1       5.263   3.813  16.241  0.00  0.00    +0.000 A 
ATOM     10  C   UNL     1       4.183   4.104  17.076  0.00  0.00    +0.000 A 
ATOM     11  C   UNL     1       3.861   5.431  17.405  0.00  0.00    +0.000 A 
ATOM     12  C   UNL     1       4.634   6.456  16.843  0.00  0.00    +0.000 A 
ATOM     13  C   UNL     1       5.710   6.161  15.992  0.00  0.00    +0.000 A 
BRANCH   8  15
ATOM     14  C   UNL     1       7.076   4.771  13.571  0.00  0.00    +0.000 C 
ATOM     15  O   UNL     1       7.097   4.418  14.948  0.00  0.00    +0.000 OA
ENDBRANCH   8  15
ENDBRANCH   1  11
BRANCH   6  16
ATOM     16  C   UNL     1       1.312   8.450  20.680  0.00  0.00    +0.000 A 
ATOM     17  C   UNL     1       0.964   9.416  19.737  0.00  0.00    +0.000 A 
ATOM     18  C   UNL     1       0.525  10.669  20.168  0.00  0.00    +0.000 A 
ATOM     19  C   UNL     1       0.451  10.909  21.532  0.00  0.00    +0.000 A 
ATOM     20  N   UNL     1       0.791  10.002  22.471  0.00  0.00    +0.000 NA
ATOM     21  C   UNL     1       1.215   8.798  22.025  0.00  0.00    +0.000 A 
BRANCH  19  22
ATOM     22  O   UNL     1      -0.001  12.156  21.913  0.00  0.00    +0.000 OA
ATOM     23  C   UNL     1      -1.091  12.089  22.829  0.00  0.00    +0.000 C 
ENDBRANCH  19  22
ENDBRANCH   6  16
TORSDOF 4
ENDMDL
MODEL 8
REMARK VINA RESULT:      -7.6      1.616      8.108
REMARK  Name = 
REMARK  6 active torsions:
REMARK  status: ('A' for Active; 'I' for Inactive)
REMARK    1  A    between atoms: C_1  and  O_2
REMARK    2  A    between atoms: O_2  and  C_3
REMARK    3  A    between atoms: C_6  and  C_7
REMARK    4  A    between atoms: C_12  and  C_13
REMARK    5  A    between atoms: C_16  and  O_17
REMARK    6  A    between atoms: O_17  and  C_18
REMARK                            x       y       z     vdW  Elec       q    Type
REMARK                         _______ _______ _______ _____ _____    ______ ____
ROOT
ATOM      1  C   UNL     1       3.164   5.367  18.373  0.00  0.00    +0.000 C 
ATOM      2  C   UNL     1       3.424   4.418  19.549  0.00  0.00    +0.000 C 
ATOM      3  C   UNL     1       2.340   4.539  20.591  0.00  0.00    +0.000 C 
ATOM      4  O   UNL     1       1.992   3.590  21.290  0.00  0.00    +0.000 OA
ATOM      5  C   UNL     1       1.736   5.869  20.826  0.00  0.00    +0.000 C 
ATOM      6  C   UNL     1       2.074   6.911  20.050  0.00  0.00    +0.000 C 
ATOM      7  C   UNL     1       3.019   6.820  18.871  0.00  0.00    +0.000 C 
ENDROOT
BRANCH   1  11
ATOM      8  C   UNL     1       5.928   4.751  15.085  0.00  0.00    +0.000 A 
ATOM      9  C   UNL     1       5.534   6.030  15.472  0.00  0.00    +0.000 A 
ATOM     10  C   UNL     1       4.700   6.213  16.576  0.00  0.00    +0.000 A 
ATOM     11  C   UNL     1       4.220   5.114  17.307  0.00  0.00    +0.000 A 
ATOM     12  C   UNL     1       4.630   3.832  16.918  0.00  0.00    +0.000 A 
ATOM     13  C   UNL     1       5.481   3.652  15.817  0.00  0.00    +0.000 A 
BRANCH   8  15
ATOM     14  C   UNL     1       6.342   3.715  12.997  0.00  0.00    +0.000 C 
ATOM     15  O   UNL     1       6.693   4.706  13.953  0.00  0.00    +0.000 OA
ENDBRANCH   8  15
ENDBRANCH   1  11
BRANCH   6  16
ATOM     16  C   UNL     1       1.466   8.216  20.330  0.00  0.00    +0.000 A 
ATOM     17  C   UNL     1       0.976   8.533  21.597  0.00  0.00    +0.000 A 
ATOM     18  C   UNL     1       0.382   9.777  21.811  0.00  0.00    +0.000 A 
ATOM     19  C   UNL     1       0.299  10.661  20.746  0.00  0.00    +0.000 A 
ATOM     20  N   UNL     1       0.750  10.382  19.505  0.00  0.00    +0.000 NA
ATOM     21  C   UNL     1       1.319   9.169  19.326  0.00  0.00    +0.000 A 
BRANCH  19  22
ATOM     22  O   UNL     1      -0.285  11.885  21.006  0.00  0.00    +0.000 OA
ATOM     23  C   UNL     1      -0.724  12.008  22.356  0.00  0.00    +0.000 C 
ENDBRANCH  19  22
ENDBRANCH   6  16
TORSDOF 4
ENDMDL
MODEL 9
REMARK VINA RESULT:      -7.6      0.884      1.541
REMARK  Name = 
REMARK  6 active torsions:
REMARK  status: ('A' for Active; 'I' for Inactive)
REMARK    1  A    between atoms: C_1  and  O_2
REMARK    2  A    between atoms: O_2  and  C_3
REMARK    3  A    between atoms: C_6  and  C_7
REMARK    4  A    between atoms: C_12  and  C_13
REMARK    5  A    between atoms: C_16  and  O_17
REMARK    6  A    between atoms: O_17  and  C_18
REMARK                            x       y       z     vdW  Elec       q    Type
REMARK                         _______ _______ _______ _____ _____    ______ ____
ROOT
ATOM      1  C   UNL     1       2.250   7.023  20.129  0.00  0.00    +0.000 C 
ATOM      2  C   UNL     1       1.539   5.796  20.712  0.00  0.00    +0.000 C 
ATOM      3  C   UNL     1       2.415   4.571  20.624  0.00  0.00    +0.000 C 
ATOM      4  O   UNL     1       2.363   3.665  21.453  0.00  0.00    +0.000 OA
ATOM      5  C   UNL     1       3.308   4.429  19.452  0.00  0.00    +0.000 C 
ATOM      6  C   UNL     1       3.408   5.421  18.554  0.00  0.00    +0.000 C 
ATOM      7  C   UNL     1       2.696   6.751  18.677  0.00  0.00    +0.000 C 
ENDROOT
BRANCH   1  11
ATOM      8  C   UNL     1       0.042  10.705  20.757  0.00  0.00    +0.000 A 
ATOM      9  C   UNL     1       0.630  10.412  19.529  0.00  0.00    +0.000 A 
ATOM     10  C   UNL     1       1.276   9.193  19.324  0.00  0.00    +0.000 A 
ATOM     11  C   UNL     1       1.370   8.243  20.354  0.00  0.00    +0.000 A 
ATOM     12  C   UNL     1       0.766   8.540  21.583  0.00  0.00    +0.000 A 
ATOM     13  C   UNL     1       0.104   9.762  21.782  0.00  0.00    +0.000 A 
BRANCH   8  15
ATOM     14  C   UNL     1      -0.587  12.512  22.154  0.00  0.00    +0.000 C 
ATOM     15  O   UNL     1      -0.502  11.956  20.848  0.00  0.00    +0.000 OA
ENDBRANCH   8  15
ENDBRANCH   1  11
BRANCH   6  16
ATOM     16  C   UNL     1       4.289   5.229  17.398  0.00  0.00    +0.000 A 
ATOM     17  C   UNL     1       4.695   6.303  16.608  0.00  0.00    +0.000 A 
ATOM     18  C   UNL     1       5.513   6.071  15.500  0.00  0.00    +0.000 A 
ATOM     19  C   UNL     1       5.894   4.766  15.224  0.00  0.00    +0.000 A 
ATOM     20  N   UNL     1       5.509   3.703  15.960  0.00  0.00    +0.000 NA
ATOM     21  C   UNL     1       4.716   3.957  17.024  0.00  0.00    +0.000 A 
BRANCH  19  22
ATOM     22  O   UNL     1       6.713   4.584  14.128  0.00  0.00    +0.000 OA
ATOM     23  C   UNL     1       6.154   3.692  13.167  0.00  0.00    +0.000 C 
ENDBRANCH  19  22
ENDBRANCH   6  16
TORSDOF 4
ENDMDL
