MODEL 1
REMARK VINA RESULT:      -7.5      0.000      0.000
REMARK  Name = 
REMARK  8 active torsions:
REMARK  status: ('A' for Active; 'I' for Inactive)
REMARK    1  A    between atoms: C_2  and  C_3
REMARK    2  A    between atoms: C_3  and  N_4
REMARK    3  A    between atoms: N_4  and  C_14
REMARK    4  A    between atoms: C_5  and  C_7
REMARK    5  A    between atoms: C_19  and  C_20
REMARK    6  A    between atoms: N_22  and  C_23
REMARK    7  A    between atoms: C_23  and  C_24
REMARK    8  A    between atoms: C_24  and  O_26
REMARK                            x       y       z     vdW  Elec       q    Type
REMARK                         _______ _______ _______ _____ _____    ______ ____
ROOT
ATOM      1  C   UNL     1       4.995   5.567  16.573  0.00  0.00    +0.000 A 
ATOM      2  C   UNL     1       5.261   5.923  15.234  0.00  0.00    +0.000 A 
ATOM      3  C   UNL     1       5.833   5.018  14.339  0.00  0.00    +0.000 A 
ATOM      4  C   UNL     1       6.147   3.736  14.765  0.00  0.00    +0.000 A 
ATOM      5  C   UNL     1       5.904   3.370  16.090  0.00  0.00    +0.000 A 
ATOM      6  C   UNL     1       5.334   4.273  17.014  0.00  0.00    +0.000 A 
ENDROOT
BRANCH   6   7
ATOM      7  C   UNL     1       5.257   3.754  18.411  0.00  0.00    +0.000 C 
ATOM      8  O   UNL     1       6.098   4.104  19.236  0.00  0.00    +0.000 OA
ATOM      9  N   UNL     1       4.277   2.850  18.723  0.00  0.00    +0.000 N 
ATOM     10  H   UNL     1       3.636   2.538  18.006  0.00  0.00    +0.000 HD
BRANCH   9  11
ATOM     11  C   UNL     1       4.176   2.251  20.039  0.00  0.00    +0.000 C 
BRANCH  11  12
ATOM     12  C   UNL     1       2.987   2.797  20.819  0.00  0.00    +0.000 C 
ATOM     13  O   UNL     1       2.746   2.529  21.994  0.00  0.00    +0.000 OA
BRANCH  12  14
ATOM     14  O   UNL     1       2.243   3.678  20.119  0.00  0.00    +0.000 OA
ATOM     15  H   UNL     1       2.042   4.508  20.595  0.00  0.00    +0.000 HD
ENDBRANCH  12  14
ENDBRANCH  11  12
ENDBRANCH   9  11
ENDBRANCH   6   7
BRANCH   1  16
ATOM     16  N   UNL     1       4.482   6.604  17.422  0.00  0.00    +0.000 N 
ATOM     17  C   UNL     1       3.144   6.491  17.849  0.00  0.00    +0.000 C 
ATOM     18  O   UNL     1       2.492   5.452  17.694  0.00  0.00    +0.000 OA
BRANCH  17  19
ATOM     19  C   UNL     1       2.436   7.628  18.500  0.00  0.00    +0.000 A 
ATOM     20  C   UNL     1       2.115   7.531  19.865  0.00  0.00    +0.000 A 
ATOM     21  C   UNL     1       1.353   8.529  20.486  0.00  0.00    +0.000 A 
ATOM     22  C   UNL     1       0.902   9.615  19.740  0.00  0.00    +0.000 A 
ATOM     23 CL   UNL     1      -0.129  10.788  20.459  0.00  0.00    +0.000 Cl
ATOM     24  C   UNL     1       1.287   9.761  18.411  0.00  0.00    +0.000 A 
ATOM     25  C   UNL     1       2.095   8.792  17.811  0.00  0.00    +0.000 A 
ENDBRANCH  17  19
BRANCH  16  26
ATOM     26  C   UNL     1       5.337   7.808  17.485  0.00  0.00    +0.000 C 
BRANCH  26  28
ATOM     27  C   UNL     1       7.769   8.372  17.671  0.00  0.00    +0.000 C 
ATOM     28  C   UNL     1       6.799   7.458  17.548  0.00  0.00    +0.000 C 
ENDBRANCH  26  28
ENDBRANCH  16  26
ENDBRANCH   1  16
TORSDOF 8
ENDMDL
MODEL 2
REMARK VINA RESULT:      -6.7      3.484      6.246
REMARK  Name = 
REMARK  8 active torsions:
REMARK  status: ('A' for Active; 'I' for Inactive)
REMARK    1  A    between atoms: C_2  and  C_3
REMARK    2  A    between atoms: C_3  and  N_4
REMARK    3  A    between atoms: N_4  and  C_14
REMARK    4  A    between atoms: C_5  and  C_7
REMARK    5  A    between atoms: C_19  and  C_20
REMARK    6  A    between atoms: N_22  and  C_23
REMARK    7  A    between atoms: C_23  and  C_24
REMARK    8  A    between atoms: C_24  and  O_26
REMARK                            x       y       z     vdW  Elec       q    Type
REMARK                         _______ _______ _______ _____ _____    ______ ____
ROOT
ATOM      1  C   UNL     1       3.433   4.293  19.554  0.00  0.00    +0.000 A 
ATOM      2  C   UNL     1       3.765   2.986  19.966  0.00  0.00    +0.000 A 
ATOM      3  C   UNL     1       3.126   2.378  21.047  0.00  0.00    +0.000 A 
ATOM      4  C   UNL     1       2.139   3.065  21.737  0.00  0.00    +0.000 A 
ATOM      5  C   UNL     1       1.807   4.365  21.352  0.00  0.00    +0.000 A 
ATOM      6  C   UNL     1       2.446   5.002  20.267  0.00  0.00    +0.000 A 
ENDROOT
BRANCH   6   7
ATOM      7  C   UNL     1       2.053   6.428  20.073  0.00  0.00    +0.000 C 
ATOM      8  O   UNL     1       2.044   6.907  18.941  0.00  0.00    +0.000 OA
ATOM      9  N   UNL     1       1.766   7.187  21.175  0.00  0.00    +0.000 N 
ATOM     10  H   UNL     1       1.839   6.779  22.097  0.00  0.00    +0.000 HD
BRANCH   9  11
ATOM     11  C   UNL     1       1.440   8.595  21.075  0.00  0.00    +0.000 C 
BRANCH  11  12
ATOM     12  C   UNL     1       0.432   9.019  22.137  0.00  0.00    +0.000 C 
ATOM     13  O   UNL     1      -0.734   8.631  22.180  0.00  0.00    +0.000 OA
BRANCH  12  14
ATOM     14  O   UNL     1       0.957   9.814  23.091  0.00  0.00    +0.000 OA
ATOM     15  H   UNL     1       0.735  10.762  22.997  0.00  0.00    +0.000 HD
ENDBRANCH  12  14
ENDBRANCH  11  12
ENDBRANCH   9  11
ENDBRANCH   6   7
BRANCH   1  16
ATOM     16  N   UNL     1       4.212   4.844  18.482  0.00  0.00    +0.000 N 
ATOM     17  C   UNL     1       4.022   4.303  17.196  0.00  0.00    +0.000 C 
ATOM     18  O   UNL     1       3.083   3.542  16.937  0.00  0.00    +0.000 OA
BRANCH  17  19
ATOM     19  C   UNL     1       4.956   4.608  16.077  0.00  0.00    +0.000 A 
ATOM     20  C   UNL     1       5.537   3.539  15.373  0.00  0.00    +0.000 A 
ATOM     21  C   UNL     1       6.504   3.782  14.388  0.00  0.00    +0.000 A 
ATOM     22  C   UNL     1       6.897   5.091  14.117  0.00  0.00    +0.000 A 
ATOM     23 CL   UNL     1       8.163   5.396  12.995  0.00  0.00    +0.000 Cl
ATOM     24  C   UNL     1       6.265   6.157  14.749  0.00  0.00    +0.000 A 
ATOM     25  C   UNL     1       5.261   5.912  15.688  0.00  0.00    +0.000 A 
ENDBRANCH  17  19
BRANCH  16  26
ATOM     26  C   UNL     1       5.330   5.702  18.931  0.00  0.00    +0.000 C 
BRANCH  26  28
ATOM     27  C   UNL     1       7.816   5.524  18.695  0.00  0.00    +0.000 C 
ATOM     28  C   UNL     1       6.635   4.954  18.966  0.00  0.00    +0.000 C 
ENDBRANCH  26  28
ENDBRANCH  16  26
ENDBRANCH   1  16
TORSDOF 8
ENDMDL
MODEL 3
REMARK VINA RESULT:      -6.7      3.327      6.260
REMARK  Name = 
REMARK  8 active torsions:
REMARK  status: ('A' for Active; 'I' for Inactive)
REMARK    1  A    between atoms: C_2  and  C_3
REMARK    2  A    between atoms: C_3  and  N_4
REMARK    3  A    between atoms: N_4  and  C_14
REMARK    4  A    between atoms: C_5  and  C_7
REMARK    5  A    between atoms: C_19  and  C_20
REMARK    6  A    between atoms: N_22  and  C_23
REMARK    7  A    between atoms: C_23  and  C_24
REMARK    8  A    between atoms: C_24  and  O_26
REMARK                            x       y       z     vdW  Elec       q    Type
REMARK                         _______ _______ _______ _____ _____    ______ ____
ROOT
ATOM      1  C   UNL     1       3.401   3.914  19.660  0.00  0.00    +0.000 A 
ATOM      2  C   UNL     1       3.501   2.578  20.101  0.00  0.00    +0.000 A 
ATOM      3  C   UNL     1       2.655   2.071  21.088  0.00  0.00    +0.000 A 
ATOM      4  C   UNL     1       1.689   2.890  21.653  0.00  0.00    +0.000 A 
ATOM      5  C   UNL     1       1.584   4.219  21.239  0.00  0.00    +0.000 A 
ATOM      6  C   UNL     1       2.435   4.755  20.248  0.00  0.00    +0.000 A 
ENDROOT
BRANCH   6   7
ATOM      7  C   UNL     1       2.263   6.219  20.017  0.00  0.00    +0.000 C 
ATOM      8  O   UNL     1       2.743   6.735  19.009  0.00  0.00    +0.000 OA
ATOM      9  N   UNL     1       1.620   6.964  20.968  0.00  0.00    +0.000 N 
ATOM     10  H   UNL     1       1.289   6.519  21.813  0.00  0.00    +0.000 HD
BRANCH   9  11
ATOM     11  C   UNL     1       1.471   8.400  20.849  0.00  0.00    +0.000 C 
BRANCH  11  12
ATOM     12  C   UNL     1       0.053   8.850  21.178  0.00  0.00    +0.000 C 
ATOM     13  O   UNL     1      -0.738   8.205  21.864  0.00  0.00    +0.000 OA
BRANCH  12  14
ATOM     14  O   UNL     1      -0.246  10.078  20.707  0.00  0.00    +0.000 OA
ATOM     15  H   UNL     1       0.136  10.815  21.223  0.00  0.00    +0.000 HD
ENDBRANCH  12  14
ENDBRANCH  11  12
ENDBRANCH   9  11
ENDBRANCH   6   7
BRANCH   1  16
ATOM     16  N   UNL     1       4.376   4.347  18.700  0.00  0.00    +0.000 N 
ATOM     17  C   UNL     1       3.994   4.352  17.344  0.00  0.00    +0.000 C 
ATOM     18  O   UNL     1       2.818   4.204  16.993  0.00  0.00    +0.000 OA
BRANCH  17  19
ATOM     19  C   UNL     1       4.994   4.521  16.254  0.00  0.00    +0.000 A 
ATOM     20  C   UNL     1       5.290   5.819  15.804  0.00  0.00    +0.000 A 
ATOM     21  C   UNL     1       6.141   6.012  14.708  0.00  0.00    +0.000 A 
ATOM     22  C   UNL     1       6.685   4.908  14.056  0.00  0.00    +0.000 A 
ATOM     23 CL   UNL     1       7.637   5.124  12.641  0.00  0.00    +0.000 Cl
ATOM     24  C   UNL     1       6.466   3.625  14.548  0.00  0.00    +0.000 A 
ATOM     25  C   UNL     1       5.663   3.442  15.676  0.00  0.00    +0.000 A 
ENDBRANCH  17  19
BRANCH  16  26
ATOM     26  C   UNL     1       5.749   4.441  19.238  0.00  0.00    +0.000 C 
BRANCH  26  28
ATOM     27  C   UNL     1       7.591   6.055  18.720  0.00  0.00    +0.000 C 
ATOM     28  C   UNL     1       6.323   5.823  19.081  0.00  0.00    +0.000 C 
ENDBRANCH  26  28
ENDBRANCH  16  26
ENDBRANCH   1  16
TORSDOF 8
ENDMDL
MODEL 4
REMARK VINA RESULT:      -6.6      2.074      3.952
REMARK  Name = 
REMARK  8 active torsions:
REMARK  status: ('A' for Active; 'I' for Inactive)
REMARK    1  A    between atoms: C_2  and  C_3
REMARK    2  A    between atoms: C_3  and  N_4
REMARK    3  A    between atoms: N_4  and  C_14
REMARK    4  A    between atoms: C_5  and  C_7
REMARK    5  A    between atoms: C_19  and  C_20
REMARK    6  A    between atoms: N_22  and  C_23
REMARK    7  A    between atoms: C_23  and  C_24
REMARK    8  A    between atoms: C_24  and  O_26
REMARK                            x       y       z     vdW  Elec       q    Type
REMARK                         _______ _______ _______ _____ _____    ______ ____
ROOT
ATOM      1  C   UNL     1       2.641   4.534  18.826  0.00  0.00    +0.000 A 
ATOM      2  C   UNL     1       1.462   3.791  18.611  0.00  0.00    +0.000 A 
ATOM      3  C   UNL     1       1.499   2.413  18.392  0.00  0.00    +0.000 A 
ATOM      4  C   UNL     1       2.717   1.751  18.386  0.00  0.00    +0.000 A 
ATOM      5  C   UNL     1       3.895   2.472  18.584  0.00  0.00    +0.000 A 
ATOM      6  C   UNL     1       3.881   3.867  18.798  0.00  0.00    +0.000 A 
ENDROOT
BRANCH   6   7
ATOM      7  C   UNL     1       5.235   4.491  18.870  0.00  0.00    +0.000 C 
ATOM      8  O   UNL     1       5.466   5.345  19.724  0.00  0.00    +0.000 OA
ATOM      9  N   UNL     1       6.173   4.135  17.939  0.00  0.00    +0.000 N 
ATOM     10  H   UNL     1       5.933   3.473  17.213  0.00  0.00    +0.000 HD
BRANCH   9  11
ATOM     11  C   UNL     1       7.488   4.743  17.901  0.00  0.00    +0.000 C 
BRANCH  11  12
ATOM     12  C   UNL     1       7.586   5.811  16.818  0.00  0.00    +0.000 C 
ATOM     13  O   UNL     1       7.775   7.006  17.038  0.00  0.00    +0.000 OA
BRANCH  12  14
ATOM     14  O   UNL     1       7.520   5.316  15.566  0.00  0.00    +0.000 OA
ATOM     15  H   UNL     1       6.928   5.810  14.964  0.00  0.00    +0.000 HD
ENDBRANCH  12  14
ENDBRANCH  11  12
ENDBRANCH   9  11
ENDBRANCH   6   7
BRANCH   1  16
ATOM     16  N   UNL     1       2.488   5.955  18.959  0.00  0.00    +0.000 N 
ATOM     17  C   UNL     1       2.078   6.449  20.213  0.00  0.00    +0.000 C 
ATOM     18  O   UNL     1       2.056   5.738  21.223  0.00  0.00    +0.000 OA
BRANCH  17  19
ATOM     19  C   UNL     1       1.632   7.860  20.386  0.00  0.00    +0.000 A 
ATOM     20  C   UNL     1       1.362   8.328  21.683  0.00  0.00    +0.000 A 
ATOM     21  C   UNL     1       0.835   9.611  21.878  0.00  0.00    +0.000 A 
ATOM     22  C   UNL     1       0.569  10.420  20.776  0.00  0.00    +0.000 A 
ATOM     23 CL   UNL     1      -0.183  11.951  20.991  0.00  0.00    +0.000 Cl
ATOM     24  C   UNL     1       0.914   9.998  19.496  0.00  0.00    +0.000 A 
ATOM     25  C   UNL     1       1.492   8.739  19.313  0.00  0.00    +0.000 A 
ENDBRANCH  17  19
BRANCH  16  26
ATOM     26  C   UNL     1       2.488   6.683  17.672  0.00  0.00    +0.000 C 
BRANCH  26  28
ATOM     27  C   UNL     1       4.519   6.956  16.234  0.00  0.00    +0.000 C 
ATOM     28  C   UNL     1       3.842   7.255  17.349  0.00  0.00    +0.000 C 
ENDBRANCH  26  28
ENDBRANCH  16  26
ENDBRANCH   1  16
TORSDOF 8
ENDMDL
MODEL 5
REMARK VINA RESULT:      -6.4      1.270      1.317
REMARK  Name = 
REMARK  8 active torsions:
REMARK  status: ('A' for Active; 'I' for Inactive)
REMARK    1  A    between atoms: C_2  and  C_3
REMARK    2  A    between atoms: C_3  and  N_4
REMARK    3  A    between atoms: N_4  and  C_14
REMARK    4  A    between atoms: C_5  and  C_7
REMARK    5  A    between atoms: C_19  and  C_20
REMARK    6  A    between atoms: N_22  and  C_23
REMARK    7  A    between atoms: C_23  and  C_24
REMARK    8  A    between atoms: C_24  and  O_26
REMARK                            x       y       z     vdW  Elec       q    Type
REMARK                         _______ _______ _______ _____ _____    ______ ____
ROOT
ATOM      1  C   UNL     1       4.788   5.109  16.873  0.00  0.00    +0.000 A 
ATOM      2  C   UNL     1       5.471   5.789  15.844  0.00  0.00    +0.000 A 
ATOM      3  C   UNL     1       6.060   5.103  14.781  0.00  0.00    +0.000 A 
ATOM      4  C   UNL     1       5.975   3.720  14.725  0.00  0.00    +0.000 A 
ATOM      5  C   UNL     1       5.315   3.028  15.742  0.00  0.00    +0.000 A 
ATOM      6  C   UNL     1       4.720   3.702  16.830  0.00  0.00    +0.000 A 
ENDROOT
BRANCH   6   7
ATOM      7  C   UNL     1       4.165   2.801  17.882  0.00  0.00    +0.000 C 
ATOM      8  O   UNL     1       3.323   1.957  17.577  0.00  0.00    +0.000 OA
ATOM      9  N   UNL     1       4.567   2.976  19.178  0.00  0.00    +0.000 N 
ATOM     10  H   UNL     1       5.216   3.717  19.405  0.00  0.00    +0.000 HD
BRANCH   9  11
ATOM     11  C   UNL     1       4.026   2.185  20.265  0.00  0.00    +0.000 C 
BRANCH  11  12
ATOM     12  C   UNL     1       2.772   2.819  20.855  0.00  0.00    +0.000 C 
ATOM     13  O   UNL     1       2.675   3.216  22.015  0.00  0.00    +0.000 OA
BRANCH  12  14
ATOM     14  O   UNL     1       1.777   2.981  19.959  0.00  0.00    +0.000 OA
ATOM     15  H   UNL     1       2.050   2.876  19.026  0.00  0.00    +0.000 HD
ENDBRANCH  12  14
ENDBRANCH  11  12
ENDBRANCH   9  11
ENDBRANCH   6   7
BRANCH   1  16
ATOM     16  N   UNL     1       4.294   5.912  17.954  0.00  0.00    +0.000 N 
ATOM     17  C   UNL     1       2.900   6.090  18.047  0.00  0.00    +0.000 C 
ATOM     18  O   UNL     1       2.107   5.422  17.373  0.00  0.00    +0.000 OA
BRANCH  17  19
ATOM     19  C   UNL     1       2.303   7.109  18.955  0.00  0.00    +0.000 A 
ATOM     20  C   UNL     1       2.026   6.749  20.284  0.00  0.00    +0.000 A 
ATOM     21  C   UNL     1       1.364   7.642  21.137  0.00  0.00    +0.000 A 
ATOM     22  C   UNL     1       0.970   8.888  20.656  0.00  0.00    +0.000 A 
ATOM     23 CL   UNL     1       0.057   9.949  21.654  0.00  0.00    +0.000 Cl
ATOM     24  C   UNL     1       1.316   9.284  19.368  0.00  0.00    +0.000 A 
ATOM     25  C   UNL     1       2.027   8.412  18.541  0.00  0.00    +0.000 A 
ENDBRANCH  17  19
BRANCH  16  26
ATOM     26  C   UNL     1       5.339   6.693  18.650  0.00  0.00    +0.000 C 
BRANCH  26  28
ATOM     27  C   UNL     1       7.758   6.071  18.823  0.00  0.00    +0.000 C 
ATOM     28  C   UNL     1       6.475   5.825  19.117  0.00  0.00    +0.000 C 
ENDBRANCH  26  28
ENDBRANCH  16  26
ENDBRANCH   1  16
TORSDOF 8
ENDMDL
MODEL 6
REMARK VINA RESULT:      -6.4      2.405      4.501
REMARK  Name = 
REMARK  8 active torsions:
REMARK  status: ('A' for Active; 'I' for Inactive)
REMARK    1  A    between atoms: C_2  and  C_3
REMARK    2  A    between atoms: C_3  and  N_4
REMARK    3  A    between atoms: N_4  and  C_14
REMARK    4  A    between atoms: C_5  and  C_7
REMARK    5  A    between atoms: C_19  and  C_20
REMARK    6  A    between atoms: N_22  and  C_23
REMARK    7  A    between atoms: C_23  and  C_24
REMARK    8  A    between atoms: C_24  and  O_26
REMARK                            x       y       z     vdW  Elec       q    Type
REMARK                         _______ _______ _______ _____ _____    ______ ____
ROOT
ATOM      1  C   UNL     1       5.155   4.815  16.141  0.00  0.00    +0.000 A 
ATOM      2  C   UNL     1       4.736   4.381  14.867  0.00  0.00    +0.000 A 
ATOM      3  C   UNL     1       5.652   4.107  13.851  0.00  0.00    +0.000 A 
ATOM      4  C   UNL     1       7.010   4.259  14.092  0.00  0.00    +0.000 A 
ATOM      5  C   UNL     1       7.443   4.701  15.343  0.00  0.00    +0.000 A 
ATOM      6  C   UNL     1       6.532   4.992  16.381  0.00  0.00    +0.000 A 
ENDROOT
BRANCH   6   7
ATOM      7  C   UNL     1       7.161   5.565  17.607  0.00  0.00    +0.000 C 
ATOM      8  O   UNL     1       7.159   4.916  18.651  0.00  0.00    +0.000 OA
ATOM      9  N   UNL     1       7.676   6.832  17.551  0.00  0.00    +0.000 N 
ATOM     10  H   UNL     1       7.609   7.362  16.693  0.00  0.00    +0.000 HD
BRANCH   9  11
ATOM     11  C   UNL     1       8.243   7.483  18.714  0.00  0.00    +0.000 C 
BRANCH  11  12
ATOM     12  C   UNL     1       8.454   8.974  18.481  0.00  0.00    +0.000 C 
ATOM     13  O   UNL     1       7.894   9.624  17.601  0.00  0.00    +0.000 OA
BRANCH  12  14
ATOM     14  O   UNL     1       9.269   9.552  19.387  0.00  0.00    +0.000 OA
ATOM     15  H   UNL     1      10.013   8.989  19.681  0.00  0.00    +0.000 HD
ENDBRANCH  12  14
ENDBRANCH  11  12
ENDBRANCH   9  11
ENDBRANCH   6   7
BRANCH   1  16
ATOM     16  N   UNL     1       4.121   5.143  17.080  0.00  0.00    +0.000 N 
ATOM     17  C   UNL     1       3.801   6.505  17.244  0.00  0.00    +0.000 C 
ATOM     18  O   UNL     1       4.224   7.376  16.475  0.00  0.00    +0.000 OA
BRANCH  17  19
ATOM     19  C   UNL     1       2.946   6.975  18.370  0.00  0.00    +0.000 A 
ATOM     20  C   UNL     1       2.302   8.218  18.256  0.00  0.00    +0.000 A 
ATOM     21  C   UNL     1       1.580   8.744  19.335  0.00  0.00    +0.000 A 
ATOM     22  C   UNL     1       1.513   8.032  20.530  0.00  0.00    +0.000 A 
ATOM     23 CL   UNL     1       0.729   8.716  21.899  0.00  0.00    +0.000 Cl
ATOM     24  C   UNL     1       2.075   6.763  20.623  0.00  0.00    +0.000 A 
ATOM     25  C   UNL     1       2.745   6.218  19.525  0.00  0.00    +0.000 A 
ENDBRANCH  17  19
BRANCH  16  26
ATOM     26  C   UNL     1       3.738   4.026  17.969  0.00  0.00    +0.000 C 
BRANCH  26  28
ATOM     27  C   UNL     1       1.858   2.389  18.190  0.00  0.00    +0.000 C 
ATOM     28  C   UNL     1       2.528   3.291  17.462  0.00  0.00    +0.000 C 
ENDBRANCH  26  28
ENDBRANCH  16  26
ENDBRANCH   1  16
TORSDOF 8
ENDMDL
MODEL 7
REMARK VINA RESULT:      -6.3      3.056      6.060
REMARK  Name = 
REMARK  8 active torsions:
REMARK  status: ('A' for Active; 'I' for Inactive)
REMARK    1  A    between atoms: C_2  and  C_3
REMARK    2  A    between atoms: C_3  and  N_4
REMARK    3  A    between atoms: N_4  and  C_14
REMARK    4  A    between atoms: C_5  and  C_7
REMARK    5  A    between atoms: C_19  and  C_20
REMARK    6  A    between atoms: N_22  and  C_23
REMARK    7  A    between atoms: C_23  and  C_24
REMARK    8  A    between atoms: C_24  and  O_26
REMARK                            x       y       z     vdW  Elec       q    Type
REMARK                         _______ _______ _______ _____ _____    ______ ____
ROOT
ATOM      1  C   UNL     1       2.549   6.305  19.065  0.00  0.00    +0.000 A 
ATOM      2  C   UNL     1       2.332   7.667  18.772  0.00  0.00    +0.000 A 
ATOM      3  C   UNL     1       1.676   8.510  19.670  0.00  0.00    +0.000 A 
ATOM      4  C   UNL     1       1.226   8.008  20.881  0.00  0.00    +0.000 A 
ATOM      5  C   UNL     1       1.420   6.659  21.183  0.00  0.00    +0.000 A 
ATOM      6  C   UNL     1       2.074   5.787  20.286  0.00  0.00    +0.000 A 
ENDROOT
BRANCH   6   7
ATOM      7  C   UNL     1       2.086   4.358  20.718  0.00  0.00    +0.000 C 
ATOM      8  O   UNL     1       1.034   3.815  21.050  0.00  0.00    +0.000 OA
ATOM      9  N   UNL     1       3.285   3.703  20.789  0.00  0.00    +0.000 N 
ATOM     10  H   UNL     1       4.139   4.195  20.564  0.00  0.00    +0.000 HD
BRANCH   9  11
ATOM     11  C   UNL     1       3.388   2.337  21.261  0.00  0.00    +0.000 C 
BRANCH  11  12
ATOM     12  C   UNL     1       4.736   1.718  20.913  0.00  0.00    +0.000 C 
ATOM     13  O   UNL     1       5.492   1.197  21.730  0.00  0.00    +0.000 OA
BRANCH  12  14
ATOM     14  O   UNL     1       5.006   1.723  19.591  0.00  0.00    +0.000 OA
ATOM     15  H   UNL     1       5.899   1.402  19.358  0.00  0.00    +0.000 HD
ENDBRANCH  12  14
ENDBRANCH  11  12
ENDBRANCH   9  11
ENDBRANCH   6   7
BRANCH   1  16
ATOM     16  N   UNL     1       3.161   5.517  18.034  0.00  0.00    +0.000 N 
ATOM     17  C   UNL     1       4.500   5.805  17.704  0.00  0.00    +0.000 C 
ATOM     18  O   UNL     1       5.202   6.546  18.401  0.00  0.00    +0.000 OA
BRANCH  17  19
ATOM     19  C   UNL     1       5.140   5.242  16.483  0.00  0.00    +0.000 A 
ATOM     20  C   UNL     1       5.184   6.028  15.320  0.00  0.00    +0.000 A 
ATOM     21  C   UNL     1       5.678   5.495  14.122  0.00  0.00    +0.000 A 
ATOM     22  C   UNL     1       6.115   4.173  14.086  0.00  0.00    +0.000 A 
ATOM     23 CL   UNL     1       6.615   3.470  12.599  0.00  0.00    +0.000 Cl
ATOM     24  C   UNL     1       6.155   3.416  15.252  0.00  0.00    +0.000 A 
ATOM     25  C   UNL     1       5.715   3.971  16.456  0.00  0.00    +0.000 A 
ENDBRANCH  17  19
BRANCH  16  26
ATOM     26  C   UNL     1       2.205   4.709  17.247  0.00  0.00    +0.000 C 
BRANCH  26  28
ATOM     27  C   UNL     1       1.823   2.340  17.960  0.00  0.00    +0.000 C 
ATOM     28  C   UNL     1       2.542   3.243  17.283  0.00  0.00    +0.000 C 
ENDBRANCH  26  28
ENDBRANCH  16  26
ENDBRANCH   1  16
TORSDOF 8
ENDMDL
MODEL 8
REMARK VINA RESULT:      -6.3      1.227      1.685
REMARK  Name = 
REMARK  8 active torsions:
REMARK  status: ('A' for Active; 'I' for Inactive)
REMARK    1  A    between atoms: C_2  and  C_3
REMARK    2  A    between atoms: C_3  and  N_4
REMARK    3  A    between atoms: N_4  and  C_14
REMARK    4  A    between atoms: C_5  and  C_7
REMARK    5  A    between atoms: C_19  and  C_20
REMARK    6  A    between atoms: N_22  and  C_23
REMARK    7  A    between atoms: C_23  and  C_24
REMARK    8  A    between atoms: C_24  and  O_26
REMARK                            x       y       z     vdW  Elec       q    Type
REMARK                         _______ _______ _______ _____ _____    ______ ____
ROOT
ATOM      1  C   UNL     1       4.798   5.102  16.742  0.00  0.00    +0.000 A 
ATOM      2  C   UNL     1       5.449   5.809  15.709  0.00  0.00    +0.000 A 
ATOM      3  C   UNL     1       6.061   5.146  14.645  0.00  0.00    +0.000 A 
ATOM      4  C   UNL     1       6.033   3.761  14.591  0.00  0.00    +0.000 A 
ATOM      5  C   UNL     1       5.406   3.044  15.610  0.00  0.00    +0.000 A 
ATOM      6  C   UNL     1       4.787   3.694  16.700  0.00  0.00    +0.000 A 
ENDROOT
BRANCH   6   7
ATOM      7  C   UNL     1       4.273   2.771  17.755  0.00  0.00    +0.000 C 
ATOM      8  O   UNL     1       3.521   1.850  17.442  0.00  0.00    +0.000 OA
ATOM      9  N   UNL     1       4.609   3.011  19.059  0.00  0.00    +0.000 N 
ATOM     10  H   UNL     1       5.182   3.812  19.290  0.00  0.00    +0.000 HD
BRANCH   9  11
ATOM     11  C   UNL     1       4.098   2.201  20.147  0.00  0.00    +0.000 C 
BRANCH  11  12
ATOM     12  C   UNL     1       2.790   2.755  20.698  0.00  0.00    +0.000 C 
ATOM     13  O   UNL     1       1.854   3.145  20.003  0.00  0.00    +0.000 OA
BRANCH  12  14
ATOM     14  O   UNL     1       2.712   2.714  22.044  0.00  0.00    +0.000 OA
ATOM     15  H   UNL     1       3.117   1.921  22.450  0.00  0.00    +0.000 HD
ENDBRANCH  12  14
ENDBRANCH  11  12
ENDBRANCH   9  11
ENDBRANCH   6   7
BRANCH   1  16
ATOM     16  N   UNL     1       4.275   5.885  17.824  0.00  0.00    +0.000 N 
ATOM     17  C   UNL     1       2.874   5.976  17.943  0.00  0.00    +0.000 C 
ATOM     18  O   UNL     1       2.112   5.251  17.292  0.00  0.00    +0.000 OA
BRANCH  17  19
ATOM     19  C   UNL     1       2.232   6.966  18.851  0.00  0.00    +0.000 A 
ATOM     20  C   UNL     1       1.892   8.230  18.341  0.00  0.00    +0.000 A 
ATOM     21  C   UNL     1       1.388   9.225  19.188  0.00  0.00    +0.000 A 
ATOM     22  C   UNL     1       1.237   8.959  20.547  0.00  0.00    +0.000 A 
ATOM     23 CL   UNL     1       0.730  10.204  21.619  0.00  0.00    +0.000 Cl
ATOM     24  C   UNL     1       1.489   7.685  21.044  0.00  0.00    +0.000 A 
ATOM     25  C   UNL     1       1.937   6.679  20.184  0.00  0.00    +0.000 A 
ENDBRANCH  17  19
BRANCH  16  26
ATOM     26  C   UNL     1       5.282   6.739  18.490  0.00  0.00    +0.000 C 
BRANCH  26  28
ATOM     27  C   UNL     1       7.729   6.233  18.631  0.00  0.00    +0.000 C 
ATOM     28  C   UNL     1       6.466   5.945  18.969  0.00  0.00    +0.000 C 
ENDBRANCH  26  28
ENDBRANCH  16  26
ENDBRANCH   1  16
TORSDOF 8
ENDMDL
MODEL 9
REMARK VINA RESULT:      -6.3      2.312      4.245
REMARK  Name = 
REMARK  8 active torsions:
REMARK  status: ('A' for Active; 'I' for Inactive)
REMARK    1  A    between atoms: C_2  and  C_3
REMARK    2  A    between atoms: C_3  and  N_4
REMARK    3  A    between atoms: N_4  and  C_14
REMARK    4  A    between atoms: C_5  and  C_7
REMARK    5  A    between atoms: C_19  and  C_20
REMARK    6  A    between atoms: N_22  and  C_23
REMARK    7  A    between atoms: C_23  and  C_24
REMARK    8  A    between atoms: C_24  and  O_26
REMARK                            x       y       z     vdW  Elec       q    Type
REMARK                         _______ _______ _______ _____ _____    ______ ____
ROOT
ATOM      1  C   UNL     1       2.597   4.298  18.916  0.00  0.00    +0.000 A 
ATOM      2  C   UNL     1       1.544   3.413  18.606  0.00  0.00    +0.000 A 
ATOM      3  C   UNL     1       1.790   2.109  18.175  0.00  0.00    +0.000 A 
ATOM      4  C   UNL     1       3.097   1.663  18.048  0.00  0.00    +0.000 A 
ATOM      5  C   UNL     1       4.153   2.529  18.337  0.00  0.00    +0.000 A 
ATOM      6  C   UNL     1       3.926   3.854  18.767  0.00  0.00    +0.000 A 
ENDROOT
BRANCH   6   7
ATOM      7  C   UNL     1       5.165   4.673  18.913  0.00  0.00    +0.000 C 
ATOM      8  O   UNL     1       5.150   5.675  19.626  0.00  0.00    +0.000 OA
ATOM      9  N   UNL     1       6.278   4.316  18.200  0.00  0.00    +0.000 N 
ATOM     10  H   UNL     1       6.240   3.520  17.578  0.00  0.00    +0.000 HD
BRANCH   9  11
ATOM     11  C   UNL     1       7.498   5.096  18.238  0.00  0.00    +0.000 C 
BRANCH  11  12
ATOM     12  C   UNL     1       7.454   6.263  17.259  0.00  0.00    +0.000 C 
ATOM     13  O   UNL     1       7.483   6.143  16.036  0.00  0.00    +0.000 OA
BRANCH  12  14
ATOM     14  O   UNL     1       7.301   7.462  17.856  0.00  0.00    +0.000 OA
ATOM     15  H   UNL     1       6.502   7.539  18.415  0.00  0.00    +0.000 HD
ENDBRANCH  12  14
ENDBRANCH  11  12
ENDBRANCH   9  11
ENDBRANCH   6   7
BRANCH   1  16
ATOM     16  N   UNL     1       2.226   5.638  19.270  0.00  0.00    +0.000 N 
ATOM     17  C   UNL     1       1.915   5.890  20.621  0.00  0.00    +0.000 C 
ATOM     18  O   UNL     1       2.153   5.069  21.513  0.00  0.00    +0.000 OA
BRANCH  17  19
ATOM     19  C   UNL     1       1.265   7.161  21.047  0.00  0.00    +0.000 A 
ATOM     20  C   UNL     1       2.069   8.193  21.558  0.00  0.00    +0.000 A 
ATOM     21  C   UNL     1       1.486   9.359  22.071  0.00  0.00    +0.000 A 
ATOM     22  C   UNL     1       0.099   9.486  22.083  0.00  0.00    +0.000 A 
ATOM     23 CL   UNL     1      -0.635  10.858  22.813  0.00  0.00    +0.000 Cl
ATOM     24  C   UNL     1      -0.700   8.507  21.501  0.00  0.00    +0.000 A 
ATOM     25  C   UNL     1      -0.110   7.372  20.939  0.00  0.00    +0.000 A 
ENDBRANCH  17  19
BRANCH  16  26
ATOM     26  C   UNL     1       1.926   6.506  18.111  0.00  0.00    +0.000 C 
BRANCH  26  28
ATOM     27  C   UNL     1       2.337   8.964  17.876  0.00  0.00    +0.000 C 
ATOM     28  C   UNL     1       2.805   7.726  18.078  0.00  0.00    +0.000 C 
ENDBRANCH  26  28
ENDBRANCH  16  26
ENDBRANCH   1  16
TORSDOF 8
ENDMDL
