MODEL 1
REMARK VINA RESULT:      -8.7      0.000      0.000
REMARK  Name = 
REMARK  7 active torsions:
REMARK  status: ('A' for Active; 'I' for Inactive)
REMARK    1  A    between atoms: C_1  and  C_2
REMARK    2  A    between atoms: C_2  and  C_3
REMARK    3  A    between atoms: C_5  and  N_6
REMARK    4  A    between atoms: C_7  and  C_9
REMARK    5  A    between atoms: C_12  and  O_13
REMARK    6  A    between atoms: O_13  and  C_14
REMARK    7  A    between atoms: C_14  and  C_15
REMARK                            x       y       z     vdW  Elec       q    Type
REMARK                         _______ _______ _______ _____ _____    ______ ____
ROOT
ATOM      1  C   UNL     1       6.178   5.667  17.488  0.00  0.00    +0.000 A 
ATOM      2  C   UNL     1       7.041   5.387  18.549  0.00  0.00    +0.000 A 
ATOM      3  C   UNL     1       7.976   6.345  18.947  0.00  0.00    +0.000 A 
ATOM      4  C   UNL     1       7.986   7.571  18.290  0.00  0.00    +0.000 A 
ATOM      5  N   UNL     1       7.157   7.873  17.270  0.00  0.00    +0.000 NA
ATOM      6  C   UNL     1       6.283   6.914  16.875  0.00  0.00    +0.000 A 
ENDROOT
BRANCH   1   8
ATOM      7  N   UNL     1       4.087   4.449  17.725  0.00  0.00    +0.000 N 
ATOM      8  C   UNL     1       5.201   4.701  16.948  0.00  0.00    +0.000 C 
ATOM      9  O   UNL     1       5.392   4.200  15.847  0.00  0.00    +0.000 OA
ATOM     10  H   UNL     1       3.934   5.006  18.554  0.00  0.00    +0.000 HD
BRANCH   7  15
ATOM     11  C   UNL     1       0.288   3.197  20.028  0.00  0.00    +0.000 C 
ATOM     12  C   UNL     1       1.724   3.210  19.484  0.00  0.00    +0.000 C 
ATOM     13  C   UNL     1       2.573   4.067  20.436  0.00  0.00    +0.000 C 
ATOM     14  C   UNL     1       1.698   3.748  18.045  0.00  0.00    +0.000 C 
ATOM     15  C   UNL     1       3.019   3.545  17.295  0.00  0.00    +0.000 C 
ATOM     16  C   UNL     1       3.448   2.080  17.418  0.00  0.00    +0.000 C 
ATOM     17  C   UNL     1       3.427   1.609  18.867  0.00  0.00    +0.000 C 
ATOM     18  O   UNL     1       2.167   1.844  19.490  0.00  0.00    +0.000 OA
ENDBRANCH   7  15
ENDBRANCH   1   8
BRANCH   4  19
ATOM     19  O   UNL     1       8.928   8.500  18.683  0.00  0.00    +0.000 OA
BRANCH  19  20
ATOM     20  C   UNL     1       8.608   9.809  18.199  0.00  0.00    +0.000 C 
BRANCH  20  21
ATOM     21  C   UNL     1       9.602  10.809  18.744  0.00  0.00    +0.000 A 
ATOM     22  C   UNL     1      10.471  11.493  17.879  0.00  0.00    +0.000 A 
ATOM     23  C   UNL     1      11.430  12.372  18.385  0.00  0.00    +0.000 A 
ATOM     24  C   UNL     1      11.526  12.582  19.760  0.00  0.00    +0.000 A 
ATOM     25  C   UNL     1      10.648  11.933  20.626  0.00  0.00    +0.000 A 
ATOM     26  C   UNL     1       9.692  11.050  20.122  0.00  0.00    +0.000 A 
ENDBRANCH  20  21
ENDBRANCH  19  20
ENDBRANCH   4  19
TORSDOF 5
ENDMDL
MODEL 2
REMARK VINA RESULT:      -8.5      0.595      1.374
REMARK  Name = 
REMARK  7 active torsions:
REMARK  status: ('A' for Active; 'I' for Inactive)
REMARK    1  A    between atoms: C_1  and  C_2
REMARK    2  A    between atoms: C_2  and  C_3
REMARK    3  A    between atoms: C_5  and  N_6
REMARK    4  A    between atoms: C_7  and  C_9
REMARK    5  A    between atoms: C_12  and  O_13
REMARK    6  A    between atoms: O_13  and  C_14
REMARK    7  A    between atoms: C_14  and  C_15
REMARK                            x       y       z     vdW  Elec       q    Type
REMARK                         _______ _______ _______ _____ _____    ______ ____
ROOT
ATOM      1  C   UNL     1       6.247   5.584  17.340  0.00  0.00    +0.000 A 
ATOM      2  C   UNL     1       6.243   6.863  16.780  0.00  0.00    +0.000 A 
ATOM      3  C   UNL     1       7.115   7.835  17.276  0.00  0.00    +0.000 A 
ATOM      4  C   UNL     1       7.992   7.476  18.295  0.00  0.00    +0.000 A 
ATOM      5  N   UNL     1       8.026   6.246  18.847  0.00  0.00    +0.000 NA
ATOM      6  C   UNL     1       7.145   5.329  18.375  0.00  0.00    +0.000 A 
ENDROOT
BRANCH   1   8
ATOM      7  N   UNL     1       4.117   4.441  17.607  0.00  0.00    +0.000 N 
ATOM      8  C   UNL     1       5.322   4.508  16.934  0.00  0.00    +0.000 C 
ATOM      9  O   UNL     1       5.632   3.759  16.016  0.00  0.00    +0.000 OA
ATOM     10  H   UNL     1       3.879   5.179  18.254  0.00  0.00    +0.000 HD
BRANCH   7  15
ATOM     11  C   UNL     1       0.348   3.315  20.022  0.00  0.00    +0.000 C 
ATOM     12  C   UNL     1       1.788   3.322  19.487  0.00  0.00    +0.000 C 
ATOM     13  C   UNL     1       2.594   4.317  20.337  0.00  0.00    +0.000 C 
ATOM     14  C   UNL     1       1.755   3.688  17.995  0.00  0.00    +0.000 C 
ATOM     15  C   UNL     1       3.090   3.451  17.280  0.00  0.00    +0.000 C 
ATOM     16  C   UNL     1       3.574   2.029  17.576  0.00  0.00    +0.000 C 
ATOM     17  C   UNL     1       3.558   1.729  19.069  0.00  0.00    +0.000 C 
ATOM     18  O   UNL     1       2.284   1.985  19.654  0.00  0.00    +0.000 OA
ENDBRANCH   7  15
ENDBRANCH   1   8
BRANCH   4  19
ATOM     19  O   UNL     1       8.834   8.452  18.787  0.00  0.00    +0.000 OA
BRANCH  19  20
ATOM     20  C   UNL     1       8.548   9.732  18.210  0.00  0.00    +0.000 C 
BRANCH  20  21
ATOM     21  C   UNL     1       9.516  10.759  18.749  0.00  0.00    +0.000 A 
ATOM     22  C   UNL     1       9.731  10.880  20.132  0.00  0.00    +0.000 A 
ATOM     23  C   UNL     1      10.579  11.867  20.636  0.00  0.00    +0.000 A 
ATOM     24  C   UNL     1      11.229  12.739  19.763  0.00  0.00    +0.000 A 
ATOM     25  C   UNL     1      11.049  12.608  18.387  0.00  0.00    +0.000 A 
ATOM     26  C   UNL     1      10.197  11.625  17.882  0.00  0.00    +0.000 A 
ENDBRANCH  20  21
ENDBRANCH  19  20
ENDBRANCH   4  19
TORSDOF 5
ENDMDL
MODEL 3
REMARK VINA RESULT:      -8.3      1.028      1.587
REMARK  Name = 
REMARK  7 active torsions:
REMARK  status: ('A' for Active; 'I' for Inactive)
REMARK    1  A    between atoms: C_1  and  C_2
REMARK    2  A    between atoms: C_2  and  C_3
REMARK    3  A    between atoms: C_5  and  N_6
REMARK    4  A    between atoms: C_7  and  C_9
REMARK    5  A    between atoms: C_12  and  O_13
REMARK    6  A    between atoms: O_13  and  C_14
REMARK    7  A    between atoms: C_14  and  C_15
REMARK                            x       y       z     vdW  Elec       q    Type
REMARK                         _______ _______ _______ _____ _____    ______ ____
ROOT
ATOM      1  C   UNL     1       6.562   5.651  17.740  0.00  0.00    +0.000 A 
ATOM      2  C   UNL     1       7.598   5.881  18.647  0.00  0.00    +0.000 A 
ATOM      3  C   UNL     1       8.231   7.125  18.670  0.00  0.00    +0.000 A 
ATOM      4  C   UNL     1       7.775   8.114  17.804  0.00  0.00    +0.000 A 
ATOM      5  N   UNL     1       6.769   7.924  16.925  0.00  0.00    +0.000 NA
ATOM      6  C   UNL     1       6.194   6.696  16.895  0.00  0.00    +0.000 A 
ENDROOT
BRANCH   1   8
ATOM      7  N   UNL     1       5.264   3.844  18.721  0.00  0.00    +0.000 N 
ATOM      8  C   UNL     1       5.875   4.354  17.591  0.00  0.00    +0.000 C 
ATOM      9  O   UNL     1       5.842   3.810  16.495  0.00  0.00    +0.000 OA
ATOM     10  H   UNL     1       5.217   4.419  19.551  0.00  0.00    +0.000 HD
BRANCH   7  15
ATOM     11  C   UNL     1       0.691   3.240  18.568  0.00  0.00    +0.000 C 
ATOM     12  C   UNL     1       2.119   3.424  19.102  0.00  0.00    +0.000 C 
ATOM     13  C   UNL     1       2.376   4.933  19.230  0.00  0.00    +0.000 C 
ATOM     14  C   UNL     1       3.094   2.723  18.142  0.00  0.00    +0.000 C 
ATOM     15  C   UNL     1       4.513   2.588  18.707  0.00  0.00    +0.000 C 
ATOM     16  C   UNL     1       4.441   1.969  20.106  0.00  0.00    +0.000 C 
ATOM     17  C   UNL     1       3.439   2.697  20.993  0.00  0.00    +0.000 C 
ATOM     18  O   UNL     1       2.151   2.786  20.388  0.00  0.00    +0.000 OA
ENDBRANCH   7  15
ENDBRANCH   1   8
BRANCH   4  19
ATOM     19  O   UNL     1       8.422   9.332  17.826  0.00  0.00    +0.000 OA
BRANCH  19  20
ATOM     20  C   UNL     1       9.000   9.596  19.109  0.00  0.00    +0.000 C 
BRANCH  20  21
ATOM     21  C   UNL     1       9.889  10.817  19.024  0.00  0.00    +0.000 A 
ATOM     22  C   UNL     1      10.355  11.441  20.192  0.00  0.00    +0.000 A 
ATOM     23  C   UNL     1      11.126  12.602  20.116  0.00  0.00    +0.000 A 
ATOM     24  C   UNL     1      11.446  13.147  18.873  0.00  0.00    +0.000 A 
ATOM     25  C   UNL     1      11.015  12.518  17.707  0.00  0.00    +0.000 A 
ATOM     26  C   UNL     1      10.240  11.359  17.780  0.00  0.00    +0.000 A 
ENDBRANCH  20  21
ENDBRANCH  19  20
ENDBRANCH   4  19
TORSDOF 5
ENDMDL
MODEL 4
REMARK VINA RESULT:      -8.2      5.615      8.320
REMARK  Name = 
REMARK  7 active torsions:
REMARK  status: ('A' for Active; 'I' for Inactive)
REMARK    1  A    between atoms: C_1  and  C_2
REMARK    2  A    between atoms: C_2  and  C_3
REMARK    3  A    between atoms: C_5  and  N_6
REMARK    4  A    between atoms: C_7  and  C_9
REMARK    5  A    between atoms: C_12  and  O_13
REMARK    6  A    between atoms: O_13  and  C_14
REMARK    7  A    between atoms: C_14  and  C_15
REMARK                            x       y       z     vdW  Elec       q    Type
REMARK                         _______ _______ _______ _____ _____    ______ ____
ROOT
ATOM      1  C   UNL     1       2.349   7.548  19.314  0.00  0.00    +0.000 A 
ATOM      2  C   UNL     1       2.338   8.130  18.045  0.00  0.00    +0.000 A 
ATOM      3  C   UNL     1       1.562   9.269  17.816  0.00  0.00    +0.000 A 
ATOM      4  C   UNL     1       0.850   9.808  18.883  0.00  0.00    +0.000 A 
ATOM      5  N   UNL     1       0.851   9.273  20.122  0.00  0.00    +0.000 NA
ATOM      6  C   UNL     1       1.582   8.146  20.311  0.00  0.00    +0.000 A 
ENDROOT
BRANCH   1   8
ATOM      7  N   UNL     1       2.434   5.405  20.460  0.00  0.00    +0.000 N 
ATOM      8  C   UNL     1       3.082   6.309  19.641  0.00  0.00    +0.000 C 
ATOM      9  O   UNL     1       4.191   6.118  19.158  0.00  0.00    +0.000 OA
ATOM     10  H   UNL     1       1.468   5.572  20.703  0.00  0.00    +0.000 HD
BRANCH   7  15
ATOM     11  C   UNL     1       3.223   1.731  17.780  0.00  0.00    +0.000 C 
ATOM     12  C   UNL     1       2.537   2.713  18.742  0.00  0.00    +0.000 C 
ATOM     13  C   UNL     1       1.781   3.744  17.891  0.00  0.00    +0.000 C 
ATOM     14  C   UNL     1       3.609   3.342  19.646  0.00  0.00    +0.000 C 
ATOM     15  C   UNL     1       3.026   4.119  20.832  0.00  0.00    +0.000 C 
ATOM     16  C   UNL     1       2.015   3.233  21.566  0.00  0.00    +0.000 C 
ATOM     17  C   UNL     1       1.001   2.625  20.607  0.00  0.00    +0.000 C 
ATOM     18  O   UNL     1       1.627   1.931  19.531  0.00  0.00    +0.000 OA
ENDBRANCH   7  15
ENDBRANCH   1   8
BRANCH   4  19
ATOM     19  O   UNL     1       0.074  10.921  18.637  0.00  0.00    +0.000 OA
BRANCH  19  20
ATOM     20  C   UNL     1      -1.258  10.752  19.135  0.00  0.00    +0.000 C 
BRANCH  20  21
ATOM     21  C   UNL     1      -2.232  10.722  17.979  0.00  0.00    +0.000 A 
ATOM     22  C   UNL     1      -1.967   9.937  16.845  0.00  0.00    +0.000 A 
ATOM     23  C   UNL     1      -2.834   9.953  15.752  0.00  0.00    +0.000 A 
ATOM     24  C   UNL     1      -3.980  10.746  15.784  0.00  0.00    +0.000 A 
ATOM     25  C   UNL     1      -4.271  11.505  16.917  0.00  0.00    +0.000 A 
ATOM     26  C   UNL     1      -3.401  11.494  18.009  0.00  0.00    +0.000 A 
ENDBRANCH  20  21
ENDBRANCH  19  20
ENDBRANCH   4  19
TORSDOF 5
ENDMDL
MODEL 5
REMARK VINA RESULT:      -8.1      5.715      8.678
REMARK  Name = 
REMARK  7 active torsions:
REMARK  status: ('A' for Active; 'I' for Inactive)
REMARK    1  A    between atoms: C_1  and  C_2
REMARK    2  A    between atoms: C_2  and  C_3
REMARK    3  A    between atoms: C_5  and  N_6
REMARK    4  A    between atoms: C_7  and  C_9
REMARK    5  A    between atoms: C_12  and  O_13
REMARK    6  A    between atoms: O_13  and  C_14
REMARK    7  A    between atoms: C_14  and  C_15
REMARK                            x       y       z     vdW  Elec       q    Type
REMARK                         _______ _______ _______ _____ _____    ______ ____
ROOT
ATOM      1  C   UNL     1       2.100   7.616  19.436  0.00  0.00    +0.000 A 
ATOM      2  C   UNL     1       2.131   8.262  18.198  0.00  0.00    +0.000 A 
ATOM      3  C   UNL     1       1.408   9.444  18.020  0.00  0.00    +0.000 A 
ATOM      4  C   UNL     1       0.709   9.960  19.107  0.00  0.00    +0.000 A 
ATOM      5  N   UNL     1       0.671   9.363  20.316  0.00  0.00    +0.000 NA
ATOM      6  C   UNL     1       1.349   8.197  20.455  0.00  0.00    +0.000 A 
ENDROOT
BRANCH   1   8
ATOM      7  N   UNL     1       3.849   6.013  18.898  0.00  0.00    +0.000 N 
ATOM      8  C   UNL     1       2.773   6.330  19.706  0.00  0.00    +0.000 C 
ATOM      9  O   UNL     1       2.387   5.629  20.633  0.00  0.00    +0.000 OA
ATOM     10  H   UNL     1       4.191   6.707  18.248  0.00  0.00    +0.000 HD
BRANCH   7  15
ATOM     11  C   UNL     1       7.366   4.457  16.347  0.00  0.00    +0.000 C 
ATOM     12  C   UNL     1       5.944   4.696  16.877  0.00  0.00    +0.000 C 
ATOM     13  C   UNL     1       5.394   5.949  16.179  0.00  0.00    +0.000 C 
ATOM     14  C   UNL     1       6.009   4.835  18.406  0.00  0.00    +0.000 C 
ATOM     15  C   UNL     1       4.633   4.791  19.080  0.00  0.00    +0.000 C 
ATOM     16  C   UNL     1       3.868   3.561  18.585  0.00  0.00    +0.000 C 
ATOM     17  C   UNL     1       3.866   3.476  17.064  0.00  0.00    +0.000 C 
ATOM     18  O   UNL     1       5.183   3.533  16.521  0.00  0.00    +0.000 OA
ENDBRANCH   7  15
ENDBRANCH   1   8
BRANCH   4  19
ATOM     19  O   UNL     1      -0.014  11.118  18.910  0.00  0.00    +0.000 OA
BRANCH  19  20
ATOM     20  C   UNL     1      -1.379  10.960  19.315  0.00  0.00    +0.000 C 
BRANCH  20  21
ATOM     21  C   UNL     1      -2.267  10.902  18.094  0.00  0.00    +0.000 A 
ATOM     22  C   UNL     1      -3.469  11.628  18.052  0.00  0.00    +0.000 A 
ATOM     23  C   UNL     1      -4.320  11.530  16.950  0.00  0.00    +0.000 A 
ATOM     24  C   UNL     1      -3.975  10.712  15.875  0.00  0.00    +0.000 A 
ATOM     25  C   UNL     1      -2.770  10.012  15.891  0.00  0.00    +0.000 A 
ATOM     26  C   UNL     1      -1.921  10.105  16.995  0.00  0.00    +0.000 A 
ENDBRANCH  20  21
ENDBRANCH  19  20
ENDBRANCH   4  19
TORSDOF 5
ENDMDL
MODEL 6
REMARK VINA RESULT:      -7.8      5.528      8.410
REMARK  Name = 
REMARK  7 active torsions:
REMARK  status: ('A' for Active; 'I' for Inactive)
REMARK    1  A    between atoms: C_1  and  C_2
REMARK    2  A    between atoms: C_2  and  C_3
REMARK    3  A    between atoms: C_5  and  N_6
REMARK    4  A    between atoms: C_7  and  C_9
REMARK    5  A    between atoms: C_12  and  O_13
REMARK    6  A    between atoms: O_13  and  C_14
REMARK    7  A    between atoms: C_14  and  C_15
REMARK                            x       y       z     vdW  Elec       q    Type
REMARK                         _______ _______ _______ _____ _____    ______ ____
ROOT
ATOM      1  C   UNL     1       2.221   7.319  19.508  0.00  0.00    +0.000 A 
ATOM      2  C   UNL     1       2.222   8.160  18.393  0.00  0.00    +0.000 A 
ATOM      3  C   UNL     1       1.582   9.399  18.464  0.00  0.00    +0.000 A 
ATOM      4  C   UNL     1       0.994   9.770  19.669  0.00  0.00    +0.000 A 
ATOM      5  N   UNL     1       0.988   8.984  20.765  0.00  0.00    +0.000 NA
ATOM      6  C   UNL     1       1.582   7.769  20.661  0.00  0.00    +0.000 A 
ENDROOT
BRANCH   1   8
ATOM      7  N   UNL     1       3.438   5.559  18.353  0.00  0.00    +0.000 N 
ATOM      8  C   UNL     1       2.810   5.966  19.514  0.00  0.00    +0.000 C 
ATOM      9  O   UNL     1       2.754   5.288  20.532  0.00  0.00    +0.000 OA
ATOM     10  H   UNL     1       3.563   6.228  17.606  0.00  0.00    +0.000 HD
BRANCH   7  15
ATOM     11  C   UNL     1       7.952   4.662  18.009  0.00  0.00    +0.000 C 
ATOM     12  C   UNL     1       6.493   4.962  17.633  0.00  0.00    +0.000 C 
ATOM     13  C   UNL     1       6.328   6.489  17.599  0.00  0.00    +0.000 C 
ATOM     14  C   UNL     1       5.574   4.276  18.655  0.00  0.00    +0.000 C 
ATOM     15  C   UNL     1       4.100   4.259  18.233  0.00  0.00    +0.000 C 
ATOM     16  C   UNL     1       3.991   3.708  16.808  0.00  0.00    +0.000 C 
ATOM     17  C   UNL     1       4.946   4.417  15.857  0.00  0.00    +0.000 C 
ATOM     18  O   UNL     1       6.291   4.394  16.330  0.00  0.00    +0.000 OA
ENDBRANCH   7  15
ENDBRANCH   1   8
BRANCH   4  19
ATOM     19  O   UNL     1       0.350  10.990  19.718  0.00  0.00    +0.000 OA
BRANCH  19  20
ATOM     20  C   UNL     1      -0.017  11.441  18.409  0.00  0.00    +0.000 C 
BRANCH  20  21
ATOM     21  C   UNL     1      -1.476  11.135  18.158  0.00  0.00    +0.000 A 
ATOM     22  C   UNL     1      -1.847  10.093  17.293  0.00  0.00    +0.000 A 
ATOM     23  C   UNL     1      -3.192   9.847  17.014  0.00  0.00    +0.000 A 
ATOM     24  C   UNL     1      -4.181  10.634  17.602  0.00  0.00    +0.000 A 
ATOM     25  C   UNL     1      -3.827  11.651  18.487  0.00  0.00    +0.000 A 
ATOM     26  C   UNL     1      -2.482  11.902  18.763  0.00  0.00    +0.000 A 
ENDBRANCH  20  21
ENDBRANCH  19  20
ENDBRANCH   4  19
TORSDOF 5
ENDMDL
MODEL 7
REMARK VINA RESULT:      -7.7      1.148      1.871
REMARK  Name = 
REMARK  7 active torsions:
REMARK  status: ('A' for Active; 'I' for Inactive)
REMARK    1  A    between atoms: C_1  and  C_2
REMARK    2  A    between atoms: C_2  and  C_3
REMARK    3  A    between atoms: C_5  and  N_6
REMARK    4  A    between atoms: C_7  and  C_9
REMARK    5  A    between atoms: C_12  and  O_13
REMARK    6  A    between atoms: O_13  and  C_14
REMARK    7  A    between atoms: C_14  and  C_15
REMARK                            x       y       z     vdW  Elec       q    Type
REMARK                         _______ _______ _______ _____ _____    ______ ____
ROOT
ATOM      1  C   UNL     1       6.888   5.725  17.844  0.00  0.00    +0.000 A 
ATOM      2  C   UNL     1       6.856   6.905  17.099  0.00  0.00    +0.000 A 
ATOM      3  C   UNL     1       7.601   8.008  17.522  0.00  0.00    +0.000 A 
ATOM      4  C   UNL     1       8.388   7.875  18.662  0.00  0.00    +0.000 A 
ATOM      5  N   UNL     1       8.447   6.744  19.395  0.00  0.00    +0.000 NA
ATOM      6  C   UNL     1       7.686   5.698  18.986  0.00  0.00    +0.000 A 
ENDROOT
BRANCH   1   8
ATOM      7  N   UNL     1       5.447   3.907  18.574  0.00  0.00    +0.000 N 
ATOM      8  C   UNL     1       6.088   4.529  17.519  0.00  0.00    +0.000 C 
ATOM      9  O   UNL     1       5.994   4.162  16.354  0.00  0.00    +0.000 OA
ATOM     10  H   UNL     1       5.461   4.351  19.482  0.00  0.00    +0.000 HD
BRANCH   7  15
ATOM     11  C   UNL     1       0.891   3.780  17.850  0.00  0.00    +0.000 C 
ATOM     12  C   UNL     1       2.254   3.789  18.557  0.00  0.00    +0.000 C 
ATOM     13  C   UNL     1       2.634   5.255  18.814  0.00  0.00    +0.000 C 
ATOM     14  C   UNL     1       3.269   3.046  17.674  0.00  0.00    +0.000 C 
ATOM     15  C   UNL     1       4.588   2.737  18.391  0.00  0.00    +0.000 C 
ATOM     16  C   UNL     1       4.287   2.053  19.728  0.00  0.00    +0.000 C 
ATOM     17  C   UNL     1       3.258   2.831  20.537  0.00  0.00    +0.000 C 
ATOM     18  O   UNL     1       2.068   3.083  19.794  0.00  0.00    +0.000 OA
ENDBRANCH   7  15
ENDBRANCH   1   8
BRANCH   4  19
ATOM     19  O   UNL     1       9.104   8.979  19.078  0.00  0.00    +0.000 OA
BRANCH  19  20
ATOM     20  C   UNL     1       8.858  10.111  18.236  0.00  0.00    +0.000 C 
BRANCH  20  21
ATOM     21  C   UNL     1       9.897  11.176  18.502  0.00  0.00    +0.000 A 
ATOM     22  C   UNL     1      10.398  11.374  19.799  0.00  0.00    +0.000 A 
ATOM     23  C   UNL     1      11.314  12.395  20.058  0.00  0.00    +0.000 A 
ATOM     24  C   UNL     1      11.745  13.223  19.023  0.00  0.00    +0.000 A 
ATOM     25  C   UNL     1      11.279  13.015  17.726  0.00  0.00    +0.000 A 
ATOM     26  C   UNL     1      10.360  11.998  17.466  0.00  0.00    +0.000 A 
ENDBRANCH  20  21
ENDBRANCH  19  20
ENDBRANCH   4  19
TORSDOF 5
ENDMDL
MODEL 8
REMARK VINA RESULT:      -7.7      7.094      8.643
REMARK  Name = 
REMARK  7 active torsions:
REMARK  status: ('A' for Active; 'I' for Inactive)
REMARK    1  A    between atoms: C_1  and  C_2
REMARK    2  A    between atoms: C_2  and  C_3
REMARK    3  A    between atoms: C_5  and  N_6
REMARK    4  A    between atoms: C_7  and  C_9
REMARK    5  A    between atoms: C_12  and  O_13
REMARK    6  A    between atoms: O_13  and  C_14
REMARK    7  A    between atoms: C_14  and  C_15
REMARK                            x       y       z     vdW  Elec       q    Type
REMARK                         _______ _______ _______ _____ _____    ______ ____
ROOT
ATOM      1  C   UNL     1       1.525   8.951  19.461  0.00  0.00    +0.000 A 
ATOM      2  C   UNL     1       1.298   8.598  20.793  0.00  0.00    +0.000 A 
ATOM      3  C   UNL     1       0.799   9.551  21.683  0.00  0.00    +0.000 A 
ATOM      4  C   UNL     1       0.506  10.821  21.195  0.00  0.00    +0.000 A 
ATOM      5  N   UNL     1       0.705  11.186  19.911  0.00  0.00    +0.000 NA
ATOM      6  C   UNL     1       1.225  10.255  19.074  0.00  0.00    +0.000 A 
ENDROOT
BRANCH   1   8
ATOM      7  N   UNL     1       2.207   6.707  18.817  0.00  0.00    +0.000 N 
ATOM      8  C   UNL     1       2.110   8.038  18.459  0.00  0.00    +0.000 C 
ATOM      9  O   UNL     1       2.445   8.476  17.366  0.00  0.00    +0.000 OA
ATOM     10  H   UNL     1       1.781   6.402  19.681  0.00  0.00    +0.000 HD
BRANCH   7  15
ATOM     11  C   UNL     1       1.206   2.204  18.682  0.00  0.00    +0.000 C 
ATOM     12  C   UNL     1       1.893   3.534  19.025  0.00  0.00    +0.000 C 
ATOM     13  C   UNL     1       1.176   4.124  20.249  0.00  0.00    +0.000 C 
ATOM     14  C   UNL     1       1.835   4.447  17.790  0.00  0.00    +0.000 C 
ATOM     15  C   UNL     1       2.729   5.687  17.907  0.00  0.00    +0.000 C 
ATOM     16  C   UNL     1       4.141   5.252  18.311  0.00  0.00    +0.000 C 
ATOM     17  C   UNL     1       4.120   4.331  19.524  0.00  0.00    +0.000 C 
ATOM     18  O   UNL     1       3.258   3.212  19.334  0.00  0.00    +0.000 OA
ENDBRANCH   7  15
ENDBRANCH   1   8
BRANCH   4  19
ATOM     19  O   UNL     1       0.032  11.757  22.090  0.00  0.00    +0.000 OA
BRANCH  19  20
ATOM     20  C   UNL     1      -1.121  11.275  22.791  0.00  0.00    +0.000 C 
BRANCH  20  21
ATOM     21  C   UNL     1      -1.926  12.446  23.308  0.00  0.00    +0.000 A 
ATOM     22  C   UNL     1      -3.269  12.277  23.681  0.00  0.00    +0.000 A 
ATOM     23  C   UNL     1      -4.031  13.368  24.102  0.00  0.00    +0.000 A 
ATOM     24  C   UNL     1      -3.457  14.637  24.162  0.00  0.00    +0.000 A 
ATOM     25  C   UNL     1      -2.116  14.811  23.824  0.00  0.00    +0.000 A 
ATOM     26  C   UNL     1      -1.354  13.722  23.398  0.00  0.00    +0.000 A 
ENDBRANCH  20  21
ENDBRANCH  19  20
ENDBRANCH   4  19
TORSDOF 5
ENDMDL
MODEL 9
REMARK VINA RESULT:      -7.7      7.087      8.629
REMARK  Name = 
REMARK  7 active torsions:
REMARK  status: ('A' for Active; 'I' for Inactive)
REMARK    1  A    between atoms: C_1  and  C_2
REMARK    2  A    between atoms: C_2  and  C_3
REMARK    3  A    between atoms: C_5  and  N_6
REMARK    4  A    between atoms: C_7  and  C_9
REMARK    5  A    between atoms: C_12  and  O_13
REMARK    6  A    between atoms: O_13  and  C_14
REMARK    7  A    between atoms: C_14  and  C_15
REMARK                            x       y       z     vdW  Elec       q    Type
REMARK                         _______ _______ _______ _____ _____    ______ ____
ROOT
ATOM      1  C   UNL     1       1.559   8.934  19.556  0.00  0.00    +0.000 A 
ATOM      2  C   UNL     1       1.078  10.217  19.289  0.00  0.00    +0.000 A 
ATOM      3  C   UNL     1       0.537  10.980  20.326  0.00  0.00    +0.000 A 
ATOM      4  C   UNL     1       0.532  10.441  21.609  0.00  0.00    +0.000 A 
ATOM      5  N   UNL     1       1.000   9.209  21.898  0.00  0.00    +0.000 NA
ATOM      6  C   UNL     1       1.487   8.472  20.868  0.00  0.00    +0.000 A 
ENDROOT
BRANCH   1   8
ATOM      7  N   UNL     1       2.237   6.699  18.878  0.00  0.00    +0.000 N 
ATOM      8  C   UNL     1       2.088   8.025  18.520  0.00  0.00    +0.000 C 
ATOM      9  O   UNL     1       2.334   8.461  17.403  0.00  0.00    +0.000 OA
ATOM     10  H   UNL     1       1.881   6.393  19.773  0.00  0.00    +0.000 HD
BRANCH   7  15
ATOM     11  C   UNL     1       1.065   2.241  18.648  0.00  0.00    +0.000 C 
ATOM     12  C   UNL     1       1.804   3.536  19.015  0.00  0.00    +0.000 C 
ATOM     13  C   UNL     1       1.122   4.123  20.260  0.00  0.00    +0.000 C 
ATOM     14  C   UNL     1       1.769   4.480  17.803  0.00  0.00    +0.000 C 
ATOM     15  C   UNL     1       2.711   5.682  17.940  0.00  0.00    +0.000 C 
ATOM     16  C   UNL     1       4.109   5.185  18.319  0.00  0.00    +0.000 C 
ATOM     17  C   UNL     1       4.065   4.236  19.510  0.00  0.00    +0.000 C 
ATOM     18  O   UNL     1       3.159   3.156  19.303  0.00  0.00    +0.000 OA
ENDBRANCH   7  15
ENDBRANCH   1   8
BRANCH   4  19
ATOM     19  O   UNL     1      -0.023  11.199  22.620  0.00  0.00    +0.000 OA
BRANCH  19  20
ATOM     20  C   UNL     1      -1.454  11.150  22.587  0.00  0.00    +0.000 C 
BRANCH  20  21
ATOM     21  C   UNL     1      -2.018  12.393  23.236  0.00  0.00    +0.000 A 
ATOM     22  C   UNL     1      -1.230  13.548  23.369  0.00  0.00    +0.000 A 
ATOM     23  C   UNL     1      -1.729  14.677  24.021  0.00  0.00    +0.000 A 
ATOM     24  C   UNL     1      -3.023  14.666  24.540  0.00  0.00    +0.000 A 
ATOM     25  C   UNL     1      -3.825  13.537  24.387  0.00  0.00    +0.000 A 
ATOM     26  C   UNL     1      -3.326  12.405  23.739  0.00  0.00    +0.000 A 
ENDBRANCH  20  21
ENDBRANCH  19  20
ENDBRANCH   4  19
TORSDOF 5
ENDMDL
