MODEL 1
REMARK VINA RESULT:      -8.5      0.000      0.000
REMARK  Name = 
REMARK  6 active torsions:
REMARK  status: ('A' for Active; 'I' for Inactive)
REMARK    1  A    between atoms: C_2  and  C_11
REMARK    2  A    between atoms: N_3  and  C_4
REMARK    3  A    between atoms: C_4  and  C_5
REMARK    4  A    between atoms: C_14  and  C_15
REMARK    5  A    between atoms: C_15  and  O_16
REMARK    6  A    between atoms: O_16  and  C_17
REMARK                            x       y       z     vdW  Elec       q    Type
REMARK                         _______ _______ _______ _____ _____    ______ ____
ROOT
ATOM      1  C   UNL     1       6.070   6.328  17.811  0.00  0.00    +0.000 A 
ATOM      2  C   UNL     1       7.135   5.716  18.452  0.00  0.00    +0.000 A 
ATOM      3  C   UNL     1       8.170   6.666  18.541  0.00  0.00    +0.000 A 
ATOM      4  C   UNL     1       7.694   7.827  17.967  0.00  0.00    +0.000 A 
ATOM      5  O   UNL     1       6.416   7.622  17.489  0.00  0.00    +0.000 OA
ENDROOT
BRANCH   1   7
ATOM      6  O   UNL     1       4.614   4.823  16.758  0.00  0.00    +0.000 OA
ATOM      7  C   UNL     1       4.760   5.765  17.549  0.00  0.00    +0.000 C 
ATOM      8  N   UNL     1       3.674   6.302  18.211  0.00  0.00    +0.000 N 
ATOM      9  H   UNL     1       3.787   7.186  18.682  0.00  0.00    +0.000 HD
BRANCH   8  10
ATOM     10  C   UNL     1       2.350   5.784  17.910  0.00  0.00    +0.000 C 
BRANCH  10  11
ATOM     11  C   UNL     1       1.921   4.685  18.834  0.00  0.00    +0.000 A 
ATOM     12  C   UNL     1       2.005   4.811  20.223  0.00  0.00    +0.000 A 
ATOM     13  C   UNL     1       1.600   3.756  21.039  0.00  0.00    +0.000 A 
ATOM     14  C   UNL     1       1.135   2.600  20.437  0.00  0.00    +0.000 A 
ATOM     15  N   UNL     1       1.051   2.435  19.100  0.00  0.00    +0.000 NA
ATOM     16  C   UNL     1       1.447   3.475  18.333  0.00  0.00    +0.000 A 
ENDBRANCH  10  11
ENDBRANCH   8  10
ENDBRANCH   1   7
BRANCH   4  17
ATOM     17  C   UNL     1       8.301   9.193  17.856  0.00  0.00    +0.000 C 
BRANCH  17  18
ATOM     18  O   UNL     1       8.907   9.494  19.113  0.00  0.00    +0.000 OA
BRANCH  18  19
ATOM     19  C   UNL     1       9.600  10.675  19.229  0.00  0.00    +0.000 A 
ATOM     20  C   UNL     1       9.912  11.327  20.433  0.00  0.00    +0.000 A 
ATOM     21  C   UNL     1      10.644  12.526  20.435  0.00  0.00    +0.000 A 
ATOM     22  C   UNL     1      11.068  13.053  19.227  0.00  0.00    +0.000 A 
ATOM     23  C   UNL     1      10.766  12.410  18.025  0.00  0.00    +0.000 A 
ATOM     24  C   UNL     1      10.030  11.230  18.014  0.00  0.00    +0.000 A 
ATOM     25  C   UNL     1      11.297  13.188  16.861  0.00  0.00    +0.000 C 
ATOM     26  C   UNL     1      12.332  14.094  17.547  0.00  0.00    +0.000 C 
ATOM     27  C   UNL     1      11.829  14.319  18.981  0.00  0.00    +0.000 C 
ENDBRANCH  18  19
ENDBRANCH  17  18
ENDBRANCH   4  17
TORSDOF 6
ENDMDL
MODEL 2
REMARK VINA RESULT:      -8.2      3.067      9.614
REMARK  Name = 
REMARK  6 active torsions:
REMARK  status: ('A' for Active; 'I' for Inactive)
REMARK    1  A    between atoms: C_2  and  C_11
REMARK    2  A    between atoms: N_3  and  C_4
REMARK    3  A    between atoms: C_4  and  C_5
REMARK    4  A    between atoms: C_14  and  C_15
REMARK    5  A    between atoms: C_15  and  O_16
REMARK    6  A    between atoms: O_16  and  C_17
REMARK                            x       y       z     vdW  Elec       q    Type
REMARK                         _______ _______ _______ _____ _____    ______ ____
ROOT
ATOM      1  C   UNL     1       8.033   8.043  18.124  0.00  0.00    +0.000 A 
ATOM      2  C   UNL     1       8.254   6.986  18.992  0.00  0.00    +0.000 A 
ATOM      3  C   UNL     1       7.669   5.844  18.414  0.00  0.00    +0.000 A 
ATOM      4  C   UNL     1       7.130   6.240  17.207  0.00  0.00    +0.000 A 
ATOM      5  O   UNL     1       7.322   7.596  17.032  0.00  0.00    +0.000 OA
ENDROOT
BRANCH   1   7
ATOM      6  O   UNL     1       8.103  10.305  17.511  0.00  0.00    +0.000 OA
ATOM      7  C   UNL     1       8.505   9.407  18.264  0.00  0.00    +0.000 C 
ATOM      8  N   UNL     1       9.414   9.684  19.266  0.00  0.00    +0.000 N 
ATOM      9  H   UNL     1       9.875   8.913  19.724  0.00  0.00    +0.000 HD
BRANCH   8  10
ATOM     10  C   UNL     1       9.938  11.035  19.375  0.00  0.00    +0.000 C 
BRANCH  10  11
ATOM     11  C   UNL     1       9.257  11.850  20.434  0.00  0.00    +0.000 A 
ATOM     12  C   UNL     1       8.917  11.312  21.678  0.00  0.00    +0.000 A 
ATOM     13  C   UNL     1       8.277  12.109  22.625  0.00  0.00    +0.000 A 
ATOM     14  C   UNL     1       7.986  13.421  22.292  0.00  0.00    +0.000 A 
ATOM     15  N   UNL     1       8.287  13.974  21.098  0.00  0.00    +0.000 NA
ATOM     16  C   UNL     1       8.911  13.178  20.199  0.00  0.00    +0.000 A 
ENDBRANCH  10  11
ENDBRANCH   8  10
ENDBRANCH   1   7
BRANCH   4  17
ATOM     17  C   UNL     1       6.472   5.454  16.114  0.00  0.00    +0.000 C 
BRANCH  17  18
ATOM     18  O   UNL     1       5.139   5.948  15.977  0.00  0.00    +0.000 OA
BRANCH  18  19
ATOM     19  C   UNL     1       4.206   5.555  16.905  0.00  0.00    +0.000 A 
ATOM     20  C   UNL     1       3.574   6.394  17.838  0.00  0.00    +0.000 A 
ATOM     21  C   UNL     1       2.618   5.886  18.733  0.00  0.00    +0.000 A 
ATOM     22  C   UNL     1       2.294   4.541  18.674  0.00  0.00    +0.000 A 
ATOM     23  C   UNL     1       2.915   3.700  17.749  0.00  0.00    +0.000 A 
ATOM     24  C   UNL     1       3.871   4.193  16.869  0.00  0.00    +0.000 A 
ATOM     25  C   UNL     1       2.429   2.292  17.905  0.00  0.00    +0.000 C 
ATOM     26  C   UNL     1       1.131   2.504  18.701  0.00  0.00    +0.000 C 
ATOM     27  C   UNL     1       1.337   3.776  19.536  0.00  0.00    +0.000 C 
ENDBRANCH  18  19
ENDBRANCH  17  18
ENDBRANCH   4  17
TORSDOF 6
ENDMDL
MODEL 3
REMARK VINA RESULT:      -8.1      5.805      9.490
REMARK  Name = 
REMARK  6 active torsions:
REMARK  status: ('A' for Active; 'I' for Inactive)
REMARK    1  A    between atoms: C_2  and  C_11
REMARK    2  A    between atoms: N_3  and  C_4
REMARK    3  A    between atoms: C_4  and  C_5
REMARK    4  A    between atoms: C_14  and  C_15
REMARK    5  A    between atoms: C_15  and  O_16
REMARK    6  A    between atoms: O_16  and  C_17
REMARK                            x       y       z     vdW  Elec       q    Type
REMARK                         _______ _______ _______ _____ _____    ______ ____
ROOT
ATOM      1  C   UNL     1       2.678   6.577  19.061  0.00  0.00    +0.000 A 
ATOM      2  C   UNL     1       2.134   6.712  20.328  0.00  0.00    +0.000 A 
ATOM      3  C   UNL     1       1.589   8.007  20.411  0.00  0.00    +0.000 A 
ATOM      4  C   UNL     1       1.804   8.608  19.188  0.00  0.00    +0.000 A 
ATOM      5  O   UNL     1       2.498   7.749  18.360  0.00  0.00    +0.000 OA
ENDROOT
BRANCH   1   7
ATOM      6  O   UNL     1       2.640   4.364  18.287  0.00  0.00    +0.000 OA
ATOM      7  C   UNL     1       3.295   5.395  18.491  0.00  0.00    +0.000 C 
ATOM      8  N   UNL     1       4.638   5.450  18.171  0.00  0.00    +0.000 N 
ATOM      9  H   UNL     1       5.188   6.214  18.531  0.00  0.00    +0.000 HD
BRANCH   8  10
ATOM     10  C   UNL     1       5.279   4.251  17.656  0.00  0.00    +0.000 C 
BRANCH  10  11
ATOM     11  C   UNL     1       5.922   4.454  16.318  0.00  0.00    +0.000 A 
ATOM     12  C   UNL     1       5.481   3.783  15.174  0.00  0.00    +0.000 A 
ATOM     13  C   UNL     1       6.119   4.000  13.954  0.00  0.00    +0.000 A 
ATOM     14  C   UNL     1       7.189   4.878  13.920  0.00  0.00    +0.000 A 
ATOM     15  N   UNL     1       7.652   5.536  15.003  0.00  0.00    +0.000 NA
ATOM     16  C   UNL     1       7.013   5.308  16.172  0.00  0.00    +0.000 A 
ENDBRANCH  10  11
ENDBRANCH   8  10
ENDBRANCH   1   7
BRANCH   4  17
ATOM     17  C   UNL     1       1.366   9.937  18.652  0.00  0.00    +0.000 C 
BRANCH  17  18
ATOM     18  O   UNL     1       0.308  10.408  19.488  0.00  0.00    +0.000 OA
BRANCH  18  19
ATOM     19  C   UNL     1      -0.897  10.704  18.898  0.00  0.00    +0.000 A 
ATOM     20  C   UNL     1      -1.870  11.575  19.414  0.00  0.00    +0.000 A 
ATOM     21  C   UNL     1      -3.064  11.819  18.716  0.00  0.00    +0.000 A 
ATOM     22  C   UNL     1      -3.264  11.196  17.496  0.00  0.00    +0.000 A 
ATOM     23  C   UNL     1      -2.302  10.330  16.973  0.00  0.00    +0.000 A 
ATOM     24  C   UNL     1      -1.124  10.073  17.665  0.00  0.00    +0.000 A 
ATOM     25  C   UNL     1      -2.762   9.753  15.669  0.00  0.00    +0.000 C 
ATOM     26  C   UNL     1      -3.879  10.735  15.279  0.00  0.00    +0.000 C 
ATOM     27  C   UNL     1      -4.457  11.279  16.594  0.00  0.00    +0.000 C 
ENDBRANCH  18  19
ENDBRANCH  17  18
ENDBRANCH   4  17
TORSDOF 6
ENDMDL
MODEL 4
REMARK VINA RESULT:      -8.1      0.789      1.628
REMARK  Name = 
REMARK  6 active torsions:
REMARK  status: ('A' for Active; 'I' for Inactive)
REMARK    1  A    between atoms: C_2  and  C_11
REMARK    2  A    between atoms: N_3  and  C_4
REMARK    3  A    between atoms: C_4  and  C_5
REMARK    4  A    between atoms: C_14  and  C_15
REMARK    5  A    between atoms: C_15  and  O_16
REMARK    6  A    between atoms: O_16  and  C_17
REMARK                            x       y       z     vdW  Elec       q    Type
REMARK                         _______ _______ _______ _____ _____    ______ ____
ROOT
ATOM      1  C   UNL     1       6.172   6.478  17.660  0.00  0.00    +0.000 A 
ATOM      2  C   UNL     1       7.192   5.910  18.406  0.00  0.00    +0.000 A 
ATOM      3  C   UNL     1       8.207   6.878  18.528  0.00  0.00    +0.000 A 
ATOM      4  C   UNL     1       7.762   8.005  17.868  0.00  0.00    +0.000 A 
ATOM      5  O   UNL     1       6.526   7.761  17.306  0.00  0.00    +0.000 OA
ENDROOT
BRANCH   1   7
ATOM      6  O   UNL     1       4.753   5.185  16.313  0.00  0.00    +0.000 OA
ATOM      7  C   UNL     1       4.892   5.883  17.327  0.00  0.00    +0.000 C 
ATOM      8  N   UNL     1       3.827   6.109  18.176  0.00  0.00    +0.000 N 
ATOM      9  H   UNL     1       3.910   6.837  18.869  0.00  0.00    +0.000 HD
BRANCH   8  10
ATOM     10  C   UNL     1       2.526   5.568  17.819  0.00  0.00    +0.000 C 
BRANCH  10  11
ATOM     11  C   UNL     1       2.089   4.444  18.709  0.00  0.00    +0.000 A 
ATOM     12  C   UNL     1       1.615   4.667  20.005  0.00  0.00    +0.000 A 
ATOM     13  C   UNL     1       1.229   3.586  20.796  0.00  0.00    +0.000 A 
ATOM     14  C   UNL     1       1.340   2.312  20.267  0.00  0.00    +0.000 A 
ATOM     15  N   UNL     1       1.804   2.054  19.026  0.00  0.00    +0.000 NA
ATOM     16  C   UNL     1       2.169   3.121  18.280  0.00  0.00    +0.000 A 
ENDBRANCH  10  11
ENDBRANCH   8  10
ENDBRANCH   1   7
BRANCH   4  17
ATOM     17  C   UNL     1       8.359   9.374  17.740  0.00  0.00    +0.000 C 
BRANCH  17  18
ATOM     18  O   UNL     1       8.982   9.686  18.987  0.00  0.00    +0.000 OA
BRANCH  18  19
ATOM     19  C   UNL     1       9.654  10.880  19.092  0.00  0.00    +0.000 A 
ATOM     20  C   UNL     1      10.528  11.415  18.132  0.00  0.00    +0.000 A 
ATOM     21  C   UNL     1      11.151  12.657  18.336  0.00  0.00    +0.000 A 
ATOM     22  C   UNL     1      10.879  13.359  19.499  0.00  0.00    +0.000 A 
ATOM     23  C   UNL     1      10.010  12.836  20.458  0.00  0.00    +0.000 A 
ATOM     24  C   UNL     1       9.400  11.601  20.269  0.00  0.00    +0.000 A 
ATOM     25  C   UNL     1       9.907  13.756  21.636  0.00  0.00    +0.000 C 
ATOM     26  C   UNL     1      10.445  15.069  21.045  0.00  0.00    +0.000 C 
ATOM     27  C   UNL     1      11.440  14.674  19.944  0.00  0.00    +0.000 C 
ENDBRANCH  18  19
ENDBRANCH  17  18
ENDBRANCH   4  17
TORSDOF 6
ENDMDL
MODEL 5
REMARK VINA RESULT:      -8.0      1.531      1.988
REMARK  Name = 
REMARK  6 active torsions:
REMARK  status: ('A' for Active; 'I' for Inactive)
REMARK    1  A    between atoms: C_2  and  C_11
REMARK    2  A    between atoms: N_3  and  C_4
REMARK    3  A    between atoms: C_4  and  C_5
REMARK    4  A    between atoms: C_14  and  C_15
REMARK    5  A    between atoms: C_15  and  O_16
REMARK    6  A    between atoms: O_16  and  C_17
REMARK                            x       y       z     vdW  Elec       q    Type
REMARK                         _______ _______ _______ _____ _____    ______ ____
ROOT
ATOM      1  C   UNL     1       6.548   5.323  17.986  0.00  0.00    +0.000 A 
ATOM      2  C   UNL     1       7.690   5.203  18.762  0.00  0.00    +0.000 A 
ATOM      3  C   UNL     1       8.370   6.433  18.694  0.00  0.00    +0.000 A 
ATOM      4  C   UNL     1       7.611   7.264  17.895  0.00  0.00    +0.000 A 
ATOM      5  O   UNL     1       6.504   6.583  17.432  0.00  0.00    +0.000 OA
ENDROOT
BRANCH   1   7
ATOM      6  O   UNL     1       4.771   4.353  16.803  0.00  0.00    +0.000 OA
ATOM      7  C   UNL     1       5.503   4.335  17.802  0.00  0.00    +0.000 C 
ATOM      8  N   UNL     1       5.347   3.362  18.770  0.00  0.00    +0.000 N 
ATOM      9  H   UNL     1       5.808   3.488  19.658  0.00  0.00    +0.000 HD
BRANCH   8  10
ATOM     10  C   UNL     1       4.264   2.404  18.624  0.00  0.00    +0.000 C 
BRANCH  10  11
ATOM     11  C   UNL     1       3.101   2.685  19.528  0.00  0.00    +0.000 A 
ATOM     12  C   UNL     1       1.924   3.274  19.058  0.00  0.00    +0.000 A 
ATOM     13  C   UNL     1       0.874   3.522  19.941  0.00  0.00    +0.000 A 
ATOM     14  C   UNL     1       1.041   3.181  21.272  0.00  0.00    +0.000 A 
ATOM     15  N   UNL     1       2.166   2.623  21.767  0.00  0.00    +0.000 NA
ATOM     16  C   UNL     1       3.167   2.391  20.888  0.00  0.00    +0.000 A 
ENDBRANCH  10  11
ENDBRANCH   8  10
ENDBRANCH   1   7
BRANCH   4  17
ATOM     17  C   UNL     1       7.775   8.711  17.541  0.00  0.00    +0.000 C 
BRANCH  17  18
ATOM     18  O   UNL     1       8.351   9.365  18.672  0.00  0.00    +0.000 OA
BRANCH  18  19
ATOM     19  C   UNL     1       8.959  10.581  18.474  0.00  0.00    +0.000 A 
ATOM     20  C   UNL     1       8.389  11.686  17.821  0.00  0.00    +0.000 A 
ATOM     21  C   UNL     1       9.097  12.891  17.690  0.00  0.00    +0.000 A 
ATOM     22  C   UNL     1      10.370  12.981  18.229  0.00  0.00    +0.000 A 
ATOM     23  C   UNL     1      10.944  11.890  18.883  0.00  0.00    +0.000 A 
ATOM     24  C   UNL     1      10.254  10.689  19.004  0.00  0.00    +0.000 A 
ATOM     25  C   UNL     1      12.332  12.218  19.342  0.00  0.00    +0.000 C 
ATOM     26  C   UNL     1      12.313  13.754  19.292  0.00  0.00    +0.000 C 
ATOM     27  C   UNL     1      11.317  14.141  18.189  0.00  0.00    +0.000 C 
ENDBRANCH  18  19
ENDBRANCH  17  18
ENDBRANCH   4  17
TORSDOF 6
ENDMDL
MODEL 6
REMARK VINA RESULT:      -7.9      6.964     10.567
REMARK  Name = 
REMARK  6 active torsions:
REMARK  status: ('A' for Active; 'I' for Inactive)
REMARK    1  A    between atoms: C_2  and  C_11
REMARK    2  A    between atoms: N_3  and  C_4
REMARK    3  A    between atoms: C_4  and  C_5
REMARK    4  A    between atoms: C_14  and  C_15
REMARK    5  A    between atoms: C_15  and  O_16
REMARK    6  A    between atoms: O_16  and  C_17
REMARK                            x       y       z     vdW  Elec       q    Type
REMARK                         _______ _______ _______ _____ _____    ______ ____
ROOT
ATOM      1  C   UNL     1      -0.118  10.572  19.892  0.00  0.00    +0.000 A 
ATOM      2  C   UNL     1      -1.015  10.480  18.840  0.00  0.00    +0.000 A 
ATOM      3  C   UNL     1      -0.357   9.814  17.789  0.00  0.00    +0.000 A 
ATOM      4  C   UNL     1       0.909   9.507  18.243  0.00  0.00    +0.000 A 
ATOM      5  O   UNL     1       1.077   9.994  19.523  0.00  0.00    +0.000 OA
ENDROOT
BRANCH   1   7
ATOM      6  O   UNL     1       0.504  11.086  22.093  0.00  0.00    +0.000 OA
ATOM      7  C   UNL     1      -0.364  11.122  21.211  0.00  0.00    +0.000 C 
ATOM      8  N   UNL     1      -1.595  11.697  21.459  0.00  0.00    +0.000 N 
ATOM      9  H   UNL     1      -2.344  11.532  20.804  0.00  0.00    +0.000 HD
BRANCH   8  10
ATOM     10  C   UNL     1      -1.872  12.196  22.795  0.00  0.00    +0.000 C 
BRANCH  10  11
ATOM     11  C   UNL     1      -3.332  12.424  23.050  0.00  0.00    +0.000 A 
ATOM     12  C   UNL     1      -4.198  12.871  22.048  0.00  0.00    +0.000 A 
ATOM     13  C   UNL     1      -5.545  13.075  22.339  0.00  0.00    +0.000 A 
ATOM     14  C   UNL     1      -5.983  12.835  23.630  0.00  0.00    +0.000 A 
ATOM     15  N   UNL     1      -5.177  12.414  24.627  0.00  0.00    +0.000 NA
ATOM     16  C   UNL     1      -3.875  12.221  24.316  0.00  0.00    +0.000 A 
ENDBRANCH  10  11
ENDBRANCH   8  10
ENDBRANCH   1   7
BRANCH   4  17
ATOM     17  C   UNL     1       2.020   8.724  17.613  0.00  0.00    +0.000 C 
BRANCH  17  18
ATOM     18  O   UNL     1       2.776   8.130  18.669  0.00  0.00    +0.000 OA
BRANCH  18  19
ATOM     19  C   UNL     1       2.373   6.904  19.141  0.00  0.00    +0.000 A 
ATOM     20  C   UNL     1       1.930   6.633  20.446  0.00  0.00    +0.000 A 
ATOM     21  C   UNL     1       1.524   5.341  20.816  0.00  0.00    +0.000 A 
ATOM     22  C   UNL     1       1.553   4.333  19.866  0.00  0.00    +0.000 A 
ATOM     23  C   UNL     1       1.989   4.593  18.566  0.00  0.00    +0.000 A 
ATOM     24  C   UNL     1       2.406   5.867  18.196  0.00  0.00    +0.000 A 
ATOM     25  C   UNL     1       1.967   3.344  17.740  0.00  0.00    +0.000 C 
ATOM     26  C   UNL     1       1.035   2.447  18.571  0.00  0.00    +0.000 C 
ATOM     27  C   UNL     1       1.199   2.888  20.033  0.00  0.00    +0.000 C 
ENDBRANCH  18  19
ENDBRANCH  17  18
ENDBRANCH   4  17
TORSDOF 6
ENDMDL
MODEL 7
REMARK VINA RESULT:      -7.9      3.048      9.749
REMARK  Name = 
REMARK  6 active torsions:
REMARK  status: ('A' for Active; 'I' for Inactive)
REMARK    1  A    between atoms: C_2  and  C_11
REMARK    2  A    between atoms: N_3  and  C_4
REMARK    3  A    between atoms: C_4  and  C_5
REMARK    4  A    between atoms: C_14  and  C_15
REMARK    5  A    between atoms: C_15  and  O_16
REMARK    6  A    between atoms: O_16  and  C_17
REMARK                            x       y       z     vdW  Elec       q    Type
REMARK                         _______ _______ _______ _____ _____    ______ ____
ROOT
ATOM      1  C   UNL     1       7.870   8.262  18.103  0.00  0.00    +0.000 A 
ATOM      2  C   UNL     1       8.285   7.041  18.610  0.00  0.00    +0.000 A 
ATOM      3  C   UNL     1       7.400   6.064  18.117  0.00  0.00    +0.000 A 
ATOM      4  C   UNL     1       6.489   6.720  17.315  0.00  0.00    +0.000 A 
ATOM      5  O   UNL     1       6.751   8.075  17.322  0.00  0.00    +0.000 OA
ENDROOT
BRANCH   1   7
ATOM      6  O   UNL     1       8.324  10.477  17.483  0.00  0.00    +0.000 OA
ATOM      7  C   UNL     1       8.508   9.551  18.284  0.00  0.00    +0.000 C 
ATOM      8  N   UNL     1       9.327   9.725  19.383  0.00  0.00    +0.000 N 
ATOM      9  H   UNL     1       9.621   8.910  19.898  0.00  0.00    +0.000 HD
BRANCH   8  10
ATOM     10  C   UNL     1      10.019  10.994  19.540  0.00  0.00    +0.000 C 
BRANCH  10  11
ATOM     11  C   UNL     1       9.261  11.980  20.377  0.00  0.00    +0.000 A 
ATOM     12  C   UNL     1       8.911  13.245  19.897  0.00  0.00    +0.000 A 
ATOM     13  C   UNL     1       8.214  14.128  20.718  0.00  0.00    +0.000 A 
ATOM     14  C   UNL     1       7.898  13.721  22.003  0.00  0.00    +0.000 A 
ATOM     15  N   UNL     1       8.228  12.514  22.508  0.00  0.00    +0.000 NA
ATOM     16  C   UNL     1       8.902  11.676  21.688  0.00  0.00    +0.000 A 
ENDBRANCH  10  11
ENDBRANCH   8  10
ENDBRANCH   1   7
BRANCH   4  17
ATOM     17  C   UNL     1       5.380   6.199  16.451  0.00  0.00    +0.000 C 
BRANCH  17  18
ATOM     18  O   UNL     1       4.167   6.801  16.906  0.00  0.00    +0.000 OA
BRANCH  18  19
ATOM     19  C   UNL     1       3.421   6.123  17.840  0.00  0.00    +0.000 A 
ATOM     20  C   UNL     1       2.957   6.648  19.057  0.00  0.00    +0.000 A 
ATOM     21  C   UNL     1       2.184   5.867  19.931  0.00  0.00    +0.000 A 
ATOM     22  C   UNL     1       1.871   4.567  19.569  0.00  0.00    +0.000 A 
ATOM     23  C   UNL     1       2.325   4.038  18.360  0.00  0.00    +0.000 A 
ATOM     24  C   UNL     1       3.102   4.800  17.495  0.00  0.00    +0.000 A 
ATOM     25  C   UNL     1       1.892   2.611  18.211  0.00  0.00    +0.000 C 
ATOM     26  C   UNL     1       0.756   2.529  19.244  0.00  0.00    +0.000 C 
ATOM     27  C   UNL     1       1.094   3.548  20.342  0.00  0.00    +0.000 C 
ENDBRANCH  18  19
ENDBRANCH  17  18
ENDBRANCH   4  17
TORSDOF 6
ENDMDL
MODEL 8
REMARK VINA RESULT:      -7.9      5.939      9.763
REMARK  Name = 
REMARK  6 active torsions:
REMARK  status: ('A' for Active; 'I' for Inactive)
REMARK    1  A    between atoms: C_2  and  C_11
REMARK    2  A    between atoms: N_3  and  C_4
REMARK    3  A    between atoms: C_4  and  C_5
REMARK    4  A    between atoms: C_14  and  C_15
REMARK    5  A    between atoms: C_15  and  O_16
REMARK    6  A    between atoms: O_16  and  C_17
REMARK                            x       y       z     vdW  Elec       q    Type
REMARK                         _______ _______ _______ _____ _____    ______ ____
ROOT
ATOM      1  C   UNL     1       2.182   7.022  19.738  0.00  0.00    +0.000 A 
ATOM      2  C   UNL     1       1.705   7.309  21.007  0.00  0.00    +0.000 A 
ATOM      3  C   UNL     1       1.141   8.598  20.958  0.00  0.00    +0.000 A 
ATOM      4  C   UNL     1       1.279   9.043  19.659  0.00  0.00    +0.000 A 
ATOM      5  O   UNL     1       1.943   8.095  18.908  0.00  0.00    +0.000 OA
ENDROOT
BRANCH   1   7
ATOM      6  O   UNL     1       2.149   4.964  18.616  0.00  0.00    +0.000 OA
ATOM      7  C   UNL     1       2.789   5.785  19.287  0.00  0.00    +0.000 C 
ATOM      8  N   UNL     1       4.108   5.546  19.619  0.00  0.00    +0.000 N 
ATOM      9  H   UNL     1       4.538   6.121  20.328  0.00  0.00    +0.000 HD
BRANCH   8  10
ATOM     10  C   UNL     1       4.706   4.282  19.224  0.00  0.00    +0.000 C 
BRANCH  10  11
ATOM     11  C   UNL     1       5.472   4.368  17.938  0.00  0.00    +0.000 A 
ATOM     12  C   UNL     1       4.890   4.055  16.707  0.00  0.00    +0.000 A 
ATOM     13  C   UNL     1       5.647   4.143  15.540  0.00  0.00    +0.000 A 
ATOM     14  C   UNL     1       6.972   4.532  15.644  0.00  0.00    +0.000 A 
ATOM     15  N   UNL     1       7.573   4.832  16.815  0.00  0.00    +0.000 NA
ATOM     16  C   UNL     1       6.814   4.741  17.930  0.00  0.00    +0.000 A 
ENDBRANCH  10  11
ENDBRANCH   8  10
ENDBRANCH   1   7
BRANCH   4  17
ATOM     17  C   UNL     1       0.789  10.289  18.986  0.00  0.00    +0.000 C 
BRANCH  17  18
ATOM     18  O   UNL     1      -0.049   9.887  17.901  0.00  0.00    +0.000 OA
BRANCH  18  19
ATOM     19  C   UNL     1      -1.346  10.340  17.884  0.00  0.00    +0.000 A 
ATOM     20  C   UNL     1      -2.336   9.958  16.965  0.00  0.00    +0.000 A 
ATOM     21  C   UNL     1      -3.639  10.473  17.053  0.00  0.00    +0.000 A 
ATOM     22  C   UNL     1      -3.941  11.359  18.073  0.00  0.00    +0.000 A 
ATOM     23  C   UNL     1      -2.964  11.743  18.994  0.00  0.00    +0.000 A 
ATOM     24  C   UNL     1      -1.668  11.248  18.905  0.00  0.00    +0.000 A 
ATOM     25  C   UNL     1      -3.519  12.733  19.972  0.00  0.00    +0.000 C 
ATOM     26  C   UNL     1      -5.031  12.518  19.797  0.00  0.00    +0.000 C 
ATOM     27  C   UNL     1      -5.239  12.054  18.348  0.00  0.00    +0.000 C 
ENDBRANCH  18  19
ENDBRANCH  17  18
ENDBRANCH   4  17
TORSDOF 6
ENDMDL
MODEL 9
REMARK VINA RESULT:      -7.8      3.021     10.125
REMARK  Name = 
REMARK  6 active torsions:
REMARK  status: ('A' for Active; 'I' for Inactive)
REMARK    1  A    between atoms: C_2  and  C_11
REMARK    2  A    between atoms: N_3  and  C_4
REMARK    3  A    between atoms: C_4  and  C_5
REMARK    4  A    between atoms: C_14  and  C_15
REMARK    5  A    between atoms: C_15  and  O_16
REMARK    6  A    between atoms: O_16  and  C_17
REMARK                            x       y       z     vdW  Elec       q    Type
REMARK                         _______ _______ _______ _____ _____    ______ ____
ROOT
ATOM      1  C   UNL     1       8.094   8.401  18.271  0.00  0.00    +0.000 A 
ATOM      2  C   UNL     1       8.318   7.115  18.734  0.00  0.00    +0.000 A 
ATOM      3  C   UNL     1       7.351   6.284  18.137  0.00  0.00    +0.000 A 
ATOM      4  C   UNL     1       6.585   7.088  17.320  0.00  0.00    +0.000 A 
ATOM      5  O   UNL     1       7.014   8.396  17.416  0.00  0.00    +0.000 OA
ENDROOT
BRANCH   1   7
ATOM      6  O   UNL     1       9.307   9.811  19.699  0.00  0.00    +0.000 OA
ATOM      7  C   UNL     1       8.876   9.588  18.560  0.00  0.00    +0.000 C 
ATOM      8  N   UNL     1       9.137  10.465  17.525  0.00  0.00    +0.000 N 
ATOM      9  H   UNL     1       8.612  10.371  16.670  0.00  0.00    +0.000 HD
BRANCH   8  10
ATOM     10  C   UNL     1       9.869  11.686  17.818  0.00  0.00    +0.000 C 
BRANCH  10  11
ATOM     11  C   UNL     1       8.998  12.906  17.836  0.00  0.00    +0.000 A 
ATOM     12  C   UNL     1       7.659  12.866  17.439  0.00  0.00    +0.000 A 
ATOM     13  C   UNL     1       6.894  14.031  17.467  0.00  0.00    +0.000 A 
ATOM     14  C   UNL     1       7.499  15.205  17.882  0.00  0.00    +0.000 A 
ATOM     15  N   UNL     1       8.792  15.287  18.260  0.00  0.00    +0.000 NA
ATOM     16  C   UNL     1       9.509  14.142  18.227  0.00  0.00    +0.000 A 
ENDBRANCH  10  11
ENDBRANCH   8  10
ENDBRANCH   1   7
BRANCH   4  17
ATOM     17  C   UNL     1       5.478   6.756  16.365  0.00  0.00    +0.000 C 
BRANCH  17  18
ATOM     18  O   UNL     1       4.255   6.790  17.102  0.00  0.00    +0.000 OA
BRANCH  18  19
ATOM     19  C   UNL     1       3.713   5.595  17.508  0.00  0.00    +0.000 A 
ATOM     20  C   UNL     1       4.052   4.328  17.006  0.00  0.00    +0.000 A 
ATOM     21  C   UNL     1       3.445   3.166  17.509  0.00  0.00    +0.000 A 
ATOM     22  C   UNL     1       2.512   3.285  18.525  0.00  0.00    +0.000 A 
ATOM     23  C   UNL     1       2.171   4.540  19.034  0.00  0.00    +0.000 A 
ATOM     24  C   UNL     1       2.757   5.695  18.531  0.00  0.00    +0.000 A 
ATOM     25  C   UNL     1       1.118   4.414  20.093  0.00  0.00    +0.000 C 
ATOM     26  C   UNL     1       1.232   2.925  20.458  0.00  0.00    +0.000 C 
ATOM     27  C   UNL     1       1.721   2.203  19.194  0.00  0.00    +0.000 C 
ENDBRANCH  18  19
ENDBRANCH  17  18
ENDBRANCH   4  17
TORSDOF 6
ENDMDL
