MODEL 1
REMARK VINA RESULT:      -6.9      0.000      0.000
REMARK  Name = 
REMARK  7 active torsions:
REMARK  status: ('A' for Active; 'I' for Inactive)
REMARK    1  A    between atoms: C_1  and  O_2
REMARK    2  A    between atoms: O_2  and  C_3
REMARK    3  A    between atoms: C_6  and  S_7
REMARK    4  A    between atoms: S_7  and  N_10
REMARK    5  A    between atoms: N_10  and  C_11
REMARK    6  A    between atoms: N_10  and  C_12
REMARK    7  A    between atoms: C_12  and  C_13
REMARK                            x       y       z     vdW  Elec       q    Type
REMARK                         _______ _______ _______ _____ _____    ______ ____
ROOT
ATOM      1  S   UNL     1       3.191   2.924  19.205  0.00  0.00    +0.000 S 
ATOM      2  O   UNL     1       2.465   1.968  18.394  0.00  0.00    +0.000 OA
ATOM      3  O   UNL     1       3.812   2.525  20.450  0.00  0.00    +0.000 OA
ENDROOT
BRANCH   1   7
ATOM      4  C   UNL     1       6.371   4.934  16.573  0.00  0.00    +0.000 A 
ATOM      5  C   UNL     1       5.281   4.255  16.005  0.00  0.00    +0.000 A 
ATOM      6  C   UNL     1       4.330   3.611  16.797  0.00  0.00    +0.000 A 
ATOM      7  C   UNL     1       4.472   3.629  18.184  0.00  0.00    +0.000 A 
ATOM      8  C   UNL     1       5.545   4.302  18.772  0.00  0.00    +0.000 A 
ATOM      9  C   UNL     1       6.494   4.961  17.971  0.00  0.00    +0.000 A 
ATOM     10 BR   UNL     1       7.809   5.937  18.933  0.00  0.00    +0.000 Br
BRANCH   4  12
ATOM     11  C   UNL     1       7.141   5.070  14.304  0.00  0.00    +0.000 C 
ATOM     12  O   UNL     1       7.119   5.582  15.629  0.00  0.00    +0.000 OA
ENDBRANCH   4  12
ENDBRANCH   1   7
BRANCH   1  13
ATOM     13  N   UNL     1       2.160   4.244  19.529  0.00  0.00    +0.000 NA
ATOM     14  C   UNL     1       0.834   3.888  20.077  0.00  0.00    +0.000 C 
BRANCH  13  15
ATOM     15  C   UNL     1       2.830   5.410  20.155  0.00  0.00    +0.000 C 
BRANCH  15  16
ATOM     16  C   UNL     1       2.555   6.682  19.405  0.00  0.00    +0.000 A 
ATOM     17  C   UNL     1       2.916   7.021  18.113  0.00  0.00    +0.000 A 
ATOM     18  C   UNL     1       2.438   8.311  17.739  0.00  0.00    +0.000 A 
ATOM     19  C   UNL     1       1.748   8.923  18.761  0.00  0.00    +0.000 A 
ATOM     20  S   UNL     1       1.679   7.948  20.163  0.00  0.00    +0.000 S 
ENDBRANCH  15  16
ENDBRANCH  13  15
ENDBRANCH   1  13
TORSDOF 5
ENDMDL
MODEL 2
REMARK VINA RESULT:      -6.7      1.529      1.963
REMARK  Name = 
REMARK  7 active torsions:
REMARK  status: ('A' for Active; 'I' for Inactive)
REMARK    1  A    between atoms: C_1  and  O_2
REMARK    2  A    between atoms: O_2  and  C_3
REMARK    3  A    between atoms: C_6  and  S_7
REMARK    4  A    between atoms: S_7  and  N_10
REMARK    5  A    between atoms: N_10  and  C_11
REMARK    6  A    between atoms: N_10  and  C_12
REMARK    7  A    between atoms: C_12  and  C_13
REMARK                            x       y       z     vdW  Elec       q    Type
REMARK                         _______ _______ _______ _____ _____    ______ ____
ROOT
ATOM      1  S   UNL     1       3.663   2.802  19.097  0.00  0.00    +0.000 S 
ATOM      2  O   UNL     1       3.425   1.750  18.129  0.00  0.00    +0.000 OA
ATOM      3  O   UNL     1       4.195   2.500  20.409  0.00  0.00    +0.000 OA
ENDROOT
BRANCH   1   7
ATOM      4  C   UNL     1       6.671   5.691  17.177  0.00  0.00    +0.000 A 
ATOM      5  C   UNL     1       6.478   5.661  18.568  0.00  0.00    +0.000 A 
ATOM      6  C   UNL     1       5.540   4.812  19.155  0.00  0.00    +0.000 A 
ATOM      7  C   UNL     1       4.766   3.983  18.344  0.00  0.00    +0.000 A 
ATOM      8  C   UNL     1       4.944   3.991  16.959  0.00  0.00    +0.000 A 
ATOM      9  C   UNL     1       5.899   4.839  16.371  0.00  0.00    +0.000 A 
ATOM     10 BR   UNL     1       6.106   4.628  14.495  0.00  0.00    +0.000 Br
BRANCH   4  12
ATOM     11  C   UNL     1       7.767   7.816  17.377  0.00  0.00    +0.000 C 
ATOM     12  O   UNL     1       7.706   6.511  16.821  0.00  0.00    +0.000 OA
ENDBRANCH   4  12
ENDBRANCH   1   7
BRANCH   1  13
ATOM     13  N   UNL     1       2.213   3.678  19.304  0.00  0.00    +0.000 NA
ATOM     14  C   UNL     1       0.983   2.859  19.343  0.00  0.00    +0.000 C 
BRANCH  13  15
ATOM     15  C   UNL     1       2.294   4.776  20.298  0.00  0.00    +0.000 C 
BRANCH  15  16
ATOM     16  C   UNL     1       2.192   6.126  19.647  0.00  0.00    +0.000 A 
ATOM     17  C   UNL     1       2.446   6.476  18.333  0.00  0.00    +0.000 A 
ATOM     18  C   UNL     1       2.200   7.857  18.083  0.00  0.00    +0.000 A 
ATOM     19  C   UNL     1       1.788   8.522  19.217  0.00  0.00    +0.000 A 
ATOM     20  S   UNL     1       1.701   7.485  20.572  0.00  0.00    +0.000 S 
ENDBRANCH  15  16
ENDBRANCH  13  15
ENDBRANCH   1  13
TORSDOF 5
ENDMDL
MODEL 3
REMARK VINA RESULT:      -6.6      1.765      2.294
REMARK  Name = 
REMARK  7 active torsions:
REMARK  status: ('A' for Active; 'I' for Inactive)
REMARK    1  A    between atoms: C_1  and  O_2
REMARK    2  A    between atoms: O_2  and  C_3
REMARK    3  A    between atoms: C_6  and  S_7
REMARK    4  A    between atoms: S_7  and  N_10
REMARK    5  A    between atoms: N_10  and  C_11
REMARK    6  A    between atoms: N_10  and  C_12
REMARK    7  A    between atoms: C_12  and  C_13
REMARK                            x       y       z     vdW  Elec       q    Type
REMARK                         _______ _______ _______ _____ _____    ______ ____
ROOT
ATOM      1  S   UNL     1       3.713   2.533  19.131  0.00  0.00    +0.000 S 
ATOM      2  O   UNL     1       3.699   1.357  18.285  0.00  0.00    +0.000 OA
ATOM      3  O   UNL     1       4.137   2.452  20.513  0.00  0.00    +0.000 OA
ENDROOT
BRANCH   1   7
ATOM      4  C   UNL     1       6.545   5.534  17.118  0.00  0.00    +0.000 A 
ATOM      5  C   UNL     1       6.326   5.559  18.506  0.00  0.00    +0.000 A 
ATOM      6  C   UNL     1       5.439   4.674  19.120  0.00  0.00    +0.000 A 
ATOM      7  C   UNL     1       4.743   3.752  18.338  0.00  0.00    +0.000 A 
ATOM      8  C   UNL     1       4.949   3.705  16.958  0.00  0.00    +0.000 A 
ATOM      9  C   UNL     1       5.853   4.590  16.344  0.00  0.00    +0.000 A 
ATOM     10 BR   UNL     1       6.113   4.302  14.485  0.00  0.00    +0.000 Br
BRANCH   4  12
ATOM     11  C   UNL     1       7.700   7.606  17.482  0.00  0.00    +0.000 C 
ATOM     12  O   UNL     1       7.526   6.408  16.739  0.00  0.00    +0.000 OA
ENDBRANCH   4  12
ENDBRANCH   1   7
BRANCH   1  13
ATOM     13  N   UNL     1       2.158   3.234  19.097  0.00  0.00    +0.000 NA
ATOM     14  C   UNL     1       1.072   2.339  18.643  0.00  0.00    +0.000 C 
BRANCH  13  15
ATOM     15  C   UNL     1       1.844   4.094  20.265  0.00  0.00    +0.000 C 
BRANCH  15  16
ATOM     16  C   UNL     1       1.918   5.554  19.919  0.00  0.00    +0.000 A 
ATOM     17  C   UNL     1       1.756   6.650  20.748  0.00  0.00    +0.000 A 
ATOM     18  C   UNL     1       1.938   7.883  20.057  0.00  0.00    +0.000 A 
ATOM     19  C   UNL     1       2.210   7.691  18.721  0.00  0.00    +0.000 A 
ATOM     20  S   UNL     1       2.245   6.033  18.305  0.00  0.00    +0.000 S 
ENDBRANCH  15  16
ENDBRANCH  13  15
ENDBRANCH   1  13
TORSDOF 5
ENDMDL
MODEL 4
REMARK VINA RESULT:      -6.2      1.460      1.700
REMARK  Name = 
REMARK  7 active torsions:
REMARK  status: ('A' for Active; 'I' for Inactive)
REMARK    1  A    between atoms: C_1  and  O_2
REMARK    2  A    between atoms: O_2  and  C_3
REMARK    3  A    between atoms: C_6  and  S_7
REMARK    4  A    between atoms: S_7  and  N_10
REMARK    5  A    between atoms: N_10  and  C_11
REMARK    6  A    between atoms: N_10  and  C_12
REMARK    7  A    between atoms: C_12  and  C_13
REMARK                            x       y       z     vdW  Elec       q    Type
REMARK                         _______ _______ _______ _____ _____    ______ ____
ROOT
ATOM      1  S   UNL     1       2.910   3.939  18.419  0.00  0.00    +0.000 S 
ATOM      2  O   UNL     1       2.121   3.754  17.219  0.00  0.00    +0.000 OA
ATOM      3  O   UNL     1       3.280   2.812  19.249  0.00  0.00    +0.000 OA
ENDROOT
BRANCH   1   7
ATOM      4  C   UNL     1       6.727   6.237  17.309  0.00  0.00    +0.000 A 
ATOM      5  C   UNL     1       5.597   6.259  16.475  0.00  0.00    +0.000 A 
ATOM      6  C   UNL     1       4.446   5.534  16.788  0.00  0.00    +0.000 A 
ATOM      7  C   UNL     1       4.421   4.758  17.947  0.00  0.00    +0.000 A 
ATOM      8  C   UNL     1       5.531   4.726  18.794  0.00  0.00    +0.000 A 
ATOM      9  C   UNL     1       6.684   5.467  18.483  0.00  0.00    +0.000 A 
ATOM     10 BR   UNL     1       8.045   5.418  19.806  0.00  0.00    +0.000 Br
BRANCH   4  12
ATOM     11  C   UNL     1       7.831   8.357  17.515  0.00  0.00    +0.000 C 
ATOM     12  O   UNL     1       7.700   7.095  16.876  0.00  0.00    +0.000 OA
ENDBRANCH   4  12
ENDBRANCH   1   7
BRANCH   1  13
ATOM     13  N   UNL     1       2.121   5.084  19.408  0.00  0.00    +0.000 NA
ATOM     14  C   UNL     1       1.352   4.519  20.536  0.00  0.00    +0.000 C 
BRANCH  13  15
ATOM     15  C   UNL     1       2.924   6.294  19.711  0.00  0.00    +0.000 C 
BRANCH  15  16
ATOM     16  C   UNL     1       2.197   7.555  19.338  0.00  0.00    +0.000 A 
ATOM     17  C   UNL     1       2.125   8.182  18.107  0.00  0.00    +0.000 A 
ATOM     18  C   UNL     1       1.302   9.345  18.140  0.00  0.00    +0.000 A 
ATOM     19  C   UNL     1       0.790   9.581  19.396  0.00  0.00    +0.000 A 
ATOM     20  S   UNL     1       1.301   8.407  20.528  0.00  0.00    +0.000 S 
ENDBRANCH  15  16
ENDBRANCH  13  15
ENDBRANCH   1  13
TORSDOF 5
ENDMDL
MODEL 5
REMARK VINA RESULT:      -6.0      1.108      1.381
REMARK  Name = 
REMARK  7 active torsions:
REMARK  status: ('A' for Active; 'I' for Inactive)
REMARK    1  A    between atoms: C_1  and  O_2
REMARK    2  A    between atoms: O_2  and  C_3
REMARK    3  A    between atoms: C_6  and  S_7
REMARK    4  A    between atoms: S_7  and  N_10
REMARK    5  A    between atoms: N_10  and  C_11
REMARK    6  A    between atoms: N_10  and  C_12
REMARK    7  A    between atoms: C_12  and  C_13
REMARK                            x       y       z     vdW  Elec       q    Type
REMARK                         _______ _______ _______ _____ _____    ______ ____
ROOT
ATOM      1  S   UNL     1       2.555   3.602  18.753  0.00  0.00    +0.000 S 
ATOM      2  O   UNL     1       1.530   3.559  17.730  0.00  0.00    +0.000 OA
ATOM      3  O   UNL     1       2.750   2.491  19.659  0.00  0.00    +0.000 OA
ENDROOT
BRANCH   1   7
ATOM      4  C   UNL     1       6.499   4.563  16.609  0.00  0.00    +0.000 A 
ATOM      5  C   UNL     1       5.399   4.043  15.907  0.00  0.00    +0.000 A 
ATOM      6  C   UNL     1       4.209   3.714  16.558  0.00  0.00    +0.000 A 
ATOM      7  C   UNL     1       4.113   3.893  17.938  0.00  0.00    +0.000 A 
ATOM      8  C   UNL     1       5.192   4.415  18.655  0.00  0.00    +0.000 A 
ATOM      9  C   UNL     1       6.385   4.756  17.994  0.00  0.00    +0.000 A 
ATOM     10 BR   UNL     1       7.700   5.574  19.094  0.00  0.00    +0.000 Br
BRANCH   4  12
ATOM     11  C   UNL     1       7.253   5.042  14.381  0.00  0.00    +0.000 C 
ATOM     12  O   UNL     1       7.521   4.914  15.770  0.00  0.00    +0.000 OA
ENDBRANCH   4  12
ENDBRANCH   1   7
BRANCH   1  13
ATOM     13  N   UNL     1       2.318   5.010  19.687  0.00  0.00    +0.000 NA
ATOM     14  C   UNL     1       2.292   4.798  21.150  0.00  0.00    +0.000 C 
BRANCH  13  15
ATOM     15  C   UNL     1       3.075   6.196  19.217  0.00  0.00    +0.000 C 
BRANCH  15  16
ATOM     16  C   UNL     1       2.263   7.456  19.325  0.00  0.00    +0.000 A 
ATOM     17  C   UNL     1       1.591   7.962  20.424  0.00  0.00    +0.000 A 
ATOM     18  C   UNL     1       0.960   9.208  20.145  0.00  0.00    +0.000 A 
ATOM     19  C   UNL     1       1.151   9.603  18.840  0.00  0.00    +0.000 A 
ATOM     20  S   UNL     1       2.084   8.476  17.958  0.00  0.00    +0.000 S 
ENDBRANCH  15  16
ENDBRANCH  13  15
ENDBRANCH   1  13
TORSDOF 5
ENDMDL
MODEL 6
REMARK VINA RESULT:      -6.0      3.188      5.627
REMARK  Name = 
REMARK  7 active torsions:
REMARK  status: ('A' for Active; 'I' for Inactive)
REMARK    1  A    between atoms: C_1  and  O_2
REMARK    2  A    between atoms: O_2  and  C_3
REMARK    3  A    between atoms: C_6  and  S_7
REMARK    4  A    between atoms: S_7  and  N_10
REMARK    5  A    between atoms: N_10  and  C_11
REMARK    6  A    between atoms: N_10  and  C_12
REMARK    7  A    between atoms: C_12  and  C_13
REMARK                            x       y       z     vdW  Elec       q    Type
REMARK                         _______ _______ _______ _____ _____    ______ ____
ROOT
ATOM      1  S   UNL     1       2.411   4.715  19.188  0.00  0.00    +0.000 S 
ATOM      2  O   UNL     1       1.664   4.147  20.291  0.00  0.00    +0.000 OA
ATOM      3  O   UNL     1       2.172   4.287  17.826  0.00  0.00    +0.000 OA
ENDROOT
BRANCH   1   7
ATOM      4  C   UNL     1       1.569   9.228  19.252  0.00  0.00    +0.000 A 
ATOM      5  C   UNL     1       1.922   8.572  18.062  0.00  0.00    +0.000 A 
ATOM      6  C   UNL     1       2.215   7.207  18.041  0.00  0.00    +0.000 A 
ATOM      7  C   UNL     1       2.170   6.481  19.230  0.00  0.00    +0.000 A 
ATOM      8  C   UNL     1       1.815   7.111  20.425  0.00  0.00    +0.000 A 
ATOM      9  C   UNL     1       1.508   8.483  20.440  0.00  0.00    +0.000 A 
ATOM     10 BR   UNL     1       0.917   9.150  22.117  0.00  0.00    +0.000 Br
BRANCH   4  12
ATOM     11  C   UNL     1      -0.114  10.827  18.644  0.00  0.00    +0.000 C 
ATOM     12  O   UNL     1       1.220  10.532  19.033  0.00  0.00    +0.000 OA
ENDBRANCH   4  12
ENDBRANCH   1   7
BRANCH   1  13
ATOM     13  N   UNL     1       4.075   4.527  19.515  0.00  0.00    +0.000 NA
ATOM     14  C   UNL     1       4.598   3.154  19.354  0.00  0.00    +0.000 C 
BRANCH  13  15
ATOM     15  C   UNL     1       4.934   5.615  18.986  0.00  0.00    +0.000 C 
BRANCH  15  16
ATOM     16  C   UNL     1       5.524   5.260  17.650  0.00  0.00    +0.000 A 
ATOM     17  C   UNL     1       4.927   5.292  16.402  0.00  0.00    +0.000 A 
ATOM     18  C   UNL     1       5.825   4.916  15.363  0.00  0.00    +0.000 A 
ATOM     19  C   UNL     1       7.071   4.589  15.849  0.00  0.00    +0.000 A 
ATOM     20  S   UNL     1       7.154   4.733  17.550  0.00  0.00    +0.000 S 
ENDBRANCH  15  16
ENDBRANCH  13  15
ENDBRANCH   1  13
TORSDOF 5
ENDMDL
MODEL 7
REMARK VINA RESULT:      -6.0      3.132      5.329
REMARK  Name = 
REMARK  7 active torsions:
REMARK  status: ('A' for Active; 'I' for Inactive)
REMARK    1  A    between atoms: C_1  and  O_2
REMARK    2  A    between atoms: O_2  and  C_3
REMARK    3  A    between atoms: C_6  and  S_7
REMARK    4  A    between atoms: S_7  and  N_10
REMARK    5  A    between atoms: N_10  and  C_11
REMARK    6  A    between atoms: N_10  and  C_12
REMARK    7  A    between atoms: C_12  and  C_13
REMARK                            x       y       z     vdW  Elec       q    Type
REMARK                         _______ _______ _______ _____ _____    ______ ____
ROOT
ATOM      1  S   UNL     1       2.376   4.387  18.738  0.00  0.00    +0.000 S 
ATOM      2  O   UNL     1       1.776   3.817  19.927  0.00  0.00    +0.000 OA
ATOM      3  O   UNL     1       1.917   4.011  17.417  0.00  0.00    +0.000 OA
ENDROOT
BRANCH   1   7
ATOM      4  C   UNL     1       1.765   8.930  19.005  0.00  0.00    +0.000 A 
ATOM      5  C   UNL     1       2.077   8.309  17.785  0.00  0.00    +0.000 A 
ATOM      6  C   UNL     1       2.301   6.934  17.702  0.00  0.00    +0.000 A 
ATOM      7  C   UNL     1       2.225   6.159  18.859  0.00  0.00    +0.000 A 
ATOM      8  C   UNL     1       1.910   6.754  20.083  0.00  0.00    +0.000 A 
ATOM      9  C   UNL     1       1.674   8.137  20.160  0.00  0.00    +0.000 A 
ATOM     10 BR   UNL     1       1.127   8.759  21.869  0.00  0.00    +0.000 Br
BRANCH   4  12
ATOM     11  C   UNL     1       0.130  10.651  18.656  0.00  0.00    +0.000 C 
ATOM     12  O   UNL     1       1.481  10.258  18.846  0.00  0.00    +0.000 OA
ENDBRANCH   4  12
ENDBRANCH   1   7
BRANCH   1  13
ATOM     13  N   UNL     1       4.060   4.120  18.807  0.00  0.00    +0.000 NA
ATOM     14  C   UNL     1       4.481   2.957  19.617  0.00  0.00    +0.000 C 
BRANCH  13  15
ATOM     15  C   UNL     1       4.766   4.300  17.514  0.00  0.00    +0.000 C 
BRANCH  15  16
ATOM     16  C   UNL     1       5.785   5.402  17.584  0.00  0.00    +0.000 A 
ATOM     17  C   UNL     1       5.720   6.678  17.053  0.00  0.00    +0.000 A 
ATOM     18  C   UNL     1       6.875   7.453  17.363  0.00  0.00    +0.000 A 
ATOM     19  C   UNL     1       7.793   6.740  18.100  0.00  0.00    +0.000 A 
ATOM     20  S   UNL     1       7.265   5.145  18.414  0.00  0.00    +0.000 S 
ENDBRANCH  15  16
ENDBRANCH  13  15
ENDBRANCH   1  13
TORSDOF 5
ENDMDL
MODEL 8
REMARK VINA RESULT:      -5.9      2.793      5.272
REMARK  Name = 
REMARK  7 active torsions:
REMARK  status: ('A' for Active; 'I' for Inactive)
REMARK    1  A    between atoms: C_1  and  O_2
REMARK    2  A    between atoms: O_2  and  C_3
REMARK    3  A    between atoms: C_6  and  S_7
REMARK    4  A    between atoms: S_7  and  N_10
REMARK    5  A    between atoms: N_10  and  C_11
REMARK    6  A    between atoms: N_10  and  C_12
REMARK    7  A    between atoms: C_12  and  C_13
REMARK                            x       y       z     vdW  Elec       q    Type
REMARK                         _______ _______ _______ _____ _____    ______ ____
ROOT
ATOM      1  S   UNL     1       2.904   3.324  18.077  0.00  0.00    +0.000 S 
ATOM      2  O   UNL     1       2.688   2.215  18.984  0.00  0.00    +0.000 OA
ATOM      3  O   UNL     1       2.305   3.335  16.759  0.00  0.00    +0.000 OA
ENDROOT
BRANCH   1   7
ATOM      4  C   UNL     1       1.745   7.183  20.277  0.00  0.00    +0.000 A 
ATOM      5  C   UNL     1       1.756   5.944  20.939  0.00  0.00    +0.000 A 
ATOM      6  C   UNL     1       2.071   4.762  20.268  0.00  0.00    +0.000 A 
ATOM      7  C   UNL     1       2.370   4.808  18.907  0.00  0.00    +0.000 A 
ATOM      8  C   UNL     1       2.372   6.029  18.229  0.00  0.00    +0.000 A 
ATOM      9  C   UNL     1       2.065   7.220  18.911  0.00  0.00    +0.000 A 
ATOM     10 BR   UNL     1       2.245   8.801  17.874  0.00  0.00    +0.000 Br
BRANCH   4  12
ATOM     11  C   UNL     1       0.191   8.717  21.274  0.00  0.00    +0.000 C 
ATOM     12  O   UNL     1       1.515   8.221  21.137  0.00  0.00    +0.000 OA
ENDBRANCH   4  12
ENDBRANCH   1   7
BRANCH   1  13
ATOM     13  N   UNL     1       4.586   3.546  17.893  0.00  0.00    +0.000 NA
ATOM     14  C   UNL     1       5.031   3.882  16.524  0.00  0.00    +0.000 C 
BRANCH  13  15
ATOM     15  C   UNL     1       5.230   4.308  18.991  0.00  0.00    +0.000 C 
BRANCH  15  16
ATOM     16  C   UNL     1       6.062   5.444  18.468  0.00  0.00    +0.000 A 
ATOM     17  C   UNL     1       5.722   6.411  17.538  0.00  0.00    +0.000 A 
ATOM     18  C   UNL     1       6.771   7.350  17.326  0.00  0.00    +0.000 A 
ATOM     19  C   UNL     1       7.885   7.061  18.082  0.00  0.00    +0.000 A 
ATOM     20  S   UNL     1       7.664   5.663  19.040  0.00  0.00    +0.000 S 
ENDBRANCH  15  16
ENDBRANCH  13  15
ENDBRANCH   1  13
TORSDOF 5
ENDMDL
MODEL 9
REMARK VINA RESULT:      -5.8      3.276      4.617
REMARK  Name = 
REMARK  7 active torsions:
REMARK  status: ('A' for Active; 'I' for Inactive)
REMARK    1  A    between atoms: C_1  and  O_2
REMARK    2  A    between atoms: O_2  and  C_3
REMARK    3  A    between atoms: C_6  and  S_7
REMARK    4  A    between atoms: S_7  and  N_10
REMARK    5  A    between atoms: N_10  and  C_11
REMARK    6  A    between atoms: N_10  and  C_12
REMARK    7  A    between atoms: C_12  and  C_13
REMARK                            x       y       z     vdW  Elec       q    Type
REMARK                         _______ _______ _______ _____ _____    ______ ____
ROOT
ATOM      1  S   UNL     1       5.683   6.469  17.384  0.00  0.00    +0.000 S 
ATOM      2  O   UNL     1       6.800   7.386  17.490  0.00  0.00    +0.000 OA
ATOM      3  O   UNL     1       4.324   6.959  17.287  0.00  0.00    +0.000 OA
ENDROOT
BRANCH   1   7
ATOM      4  C   UNL     1       6.277   3.941  13.598  0.00  0.00    +0.000 A 
ATOM      5  C   UNL     1       5.269   3.633  14.526  0.00  0.00    +0.000 A 
ATOM      6  C   UNL     1       5.106   4.375  15.697  0.00  0.00    +0.000 A 
ATOM      7  C   UNL     1       5.970   5.437  15.959  0.00  0.00    +0.000 A 
ATOM      8  C   UNL     1       6.976   5.765  15.047  0.00  0.00    +0.000 A 
ATOM      9  C   UNL     1       7.130   5.024  13.863  0.00  0.00    +0.000 A 
ATOM     10 BR   UNL     1       8.455   5.686  12.674  0.00  0.00    +0.000 Br
BRANCH   4  12
ATOM     11  C   UNL     1       4.953   3.077  11.792  0.00  0.00    +0.000 C 
ATOM     12  O   UNL     1       6.195   3.162  12.476  0.00  0.00    +0.000 OA
ENDBRANCH   4  12
ENDBRANCH   1   7
BRANCH   1  13
ATOM     13  N   UNL     1       5.758   5.379  18.694  0.00  0.00    +0.000 NA
ATOM     14  C   UNL     1       6.981   5.469  19.519  0.00  0.00    +0.000 C 
BRANCH  13  15
ATOM     15  C   UNL     1       4.484   5.221  19.438  0.00  0.00    +0.000 C 
BRANCH  15  16
ATOM     16  C   UNL     1       3.734   3.993  19.004  0.00  0.00    +0.000 A 
ATOM     17  C   UNL     1       4.118   2.666  19.093  0.00  0.00    +0.000 A 
ATOM     18  C   UNL     1       3.114   1.780  18.606  0.00  0.00    +0.000 A 
ATOM     19  C   UNL     1       2.008   2.455  18.142  0.00  0.00    +0.000 A 
ATOM     20  S   UNL     1       2.181   4.149  18.292  0.00  0.00    +0.000 S 
ENDBRANCH  15  16
ENDBRANCH  13  15
ENDBRANCH   1  13
TORSDOF 5
ENDMDL
