MODEL 1
REMARK VINA RESULT:      -8.3      0.000      0.000
REMARK  Name = 
REMARK  7 active torsions:
REMARK  status: ('A' for Active; 'I' for Inactive)
REMARK    1  A    between atoms: C_1  and  C_2
REMARK    2  A    between atoms: C_2  and  C_3
REMARK    3  A    between atoms: C_2  and  N_4
REMARK    4  A    between atoms: C_5  and  C_7
REMARK    5  A    between atoms: C_8  and  C_9
REMARK    6  A    between atoms: C_12  and  C_13
REMARK    7  A    between atoms: C_27  and  C_29
REMARK                            x       y       z     vdW  Elec       q    Type
REMARK                         _______ _______ _______ _____ _____    ______ ____
ROOT
ATOM      1  C   UNL     1       0.471  10.789  18.920  0.00  0.00    +0.000 C 
ATOM      2  C   UNL     1       0.996   9.738  19.914  0.00  0.00    +0.000 C 
ATOM      3  N   UNL     1       0.669   9.778  21.181  0.00  0.00    +0.000 NA
ATOM      4  C   UNL     1      -0.191  10.830  21.583  0.00  0.00    +0.000 A 
ATOM      5  C   UNL     1      -0.919  10.706  22.764  0.00  0.00    +0.000 A 
ATOM      6  C   UNL     1      -1.735  11.751  23.206  0.00  0.00    +0.000 A 
ATOM      7  C   UNL     1      -1.839  12.930  22.465  0.00  0.00    +0.000 A 
ATOM      8  C   UNL     1      -1.135  13.065  21.271  0.00  0.00    +0.000 A 
ATOM      9  C   UNL     1      -0.301  12.026  20.843  0.00  0.00    +0.000 A 
ATOM     10  N   UNL     1       0.430  12.095  19.631  0.00  0.00    +0.000 N 
ATOM     11  C   UNL     1       1.170  13.181  19.152  0.00  0.00    +0.000 C 
ATOM     12  O   UNL     1       1.636  13.178  18.011  0.00  0.00    +0.000 OA
ENDROOT
BRANCH   2  13
ATOM     13  C   UNL     1       1.802   8.588  19.385  0.00  0.00    +0.000 A 
ATOM     14  C   UNL     1       1.963   7.435  20.160  0.00  0.00    +0.000 A 
ATOM     15  C   UNL     1       2.585   6.299  19.619  0.00  0.00    +0.000 A 
ATOM     16  C   UNL     1       3.031   6.290  18.288  0.00  0.00    +0.000 A 
ATOM     17  C   UNL     1       2.896   7.457  17.528  0.00  0.00    +0.000 A 
ATOM     18  C   UNL     1       2.310   8.597  18.078  0.00  0.00    +0.000 A 
BRANCH  16  19
ATOM     19  C   UNL     1       3.612   5.055  17.644  0.00  0.00    +0.000 C 
ATOM     20  F   UNL     1       4.327   4.275  18.500  0.00  0.00    +0.000 F 
ATOM     21  F   UNL     1       2.652   4.246  17.114  0.00  0.00    +0.000 F 
ATOM     22  F   UNL     1       4.454   5.352  16.615  0.00  0.00    +0.000 F 
ENDBRANCH  16  19
ENDBRANCH   2  13
BRANCH  11  23
ATOM     23  C   UNL     1       1.459  14.386  20.009  0.00  0.00    +0.000 A 
ATOM     24  C   UNL     1       2.309  14.361  21.124  0.00  0.00    +0.000 A 
ATOM     25  C   UNL     1       2.423  15.474  21.964  0.00  0.00    +0.000 A 
ATOM     26  C   UNL     1       1.773  16.661  21.640  0.00  0.00    +0.000 A 
ATOM     27  C   UNL     1       1.021  16.739  20.470  0.00  0.00    +0.000 A 
ATOM     28  C   UNL     1       0.859  15.607  19.661  0.00  0.00    +0.000 A 
ENDBRANCH  11  23
BRANCH   1  30
ATOM     29  N   UNL     1      -1.394  10.929  17.251  0.00  0.00    +0.000 N 
ATOM     30  C   UNL     1      -0.921  10.339  18.404  0.00  0.00    +0.000 C 
ATOM     31  O   UNL     1      -1.547   9.423  18.933  0.00  0.00    +0.000 OA
ATOM     32  H   UNL     1      -0.938  11.777  16.934  0.00  0.00    +0.000 HD
BRANCH  29  34
ATOM     33  C   UNL     1      -3.762  11.570  17.439  0.00  0.00    +0.000 C 
ATOM     34  C   UNL     1      -2.746  10.627  16.797  0.00  0.00    +0.000 C 
ATOM     35  C   UNL     1      -2.824  10.663  15.280  0.00  0.00    +0.000 C 
ENDBRANCH  29  34
ENDBRANCH   1  30
TORSDOF 5
ENDMDL
MODEL 2
REMARK VINA RESULT:      -8.2      0.145      1.039
REMARK  Name = 
REMARK  7 active torsions:
REMARK  status: ('A' for Active; 'I' for Inactive)
REMARK    1  A    between atoms: C_1  and  C_2
REMARK    2  A    between atoms: C_2  and  C_3
REMARK    3  A    between atoms: C_2  and  N_4
REMARK    4  A    between atoms: C_5  and  C_7
REMARK    5  A    between atoms: C_8  and  C_9
REMARK    6  A    between atoms: C_12  and  C_13
REMARK    7  A    between atoms: C_27  and  C_29
REMARK                            x       y       z     vdW  Elec       q    Type
REMARK                         _______ _______ _______ _____ _____    ______ ____
ROOT
ATOM      1  C   UNL     1       0.458  10.836  18.964  0.00  0.00    +0.000 C 
ATOM      2  C   UNL     1       0.980   9.776  19.950  0.00  0.00    +0.000 C 
ATOM      3  N   UNL     1       0.649   9.805  21.216  0.00  0.00    +0.000 NA
ATOM      4  C   UNL     1      -0.212  10.853  21.625  0.00  0.00    +0.000 A 
ATOM      5  C   UNL     1      -0.943  10.718  22.803  0.00  0.00    +0.000 A 
ATOM      6  C   UNL     1      -1.760  11.759  23.252  0.00  0.00    +0.000 A 
ATOM      7  C   UNL     1      -1.862  12.945  22.522  0.00  0.00    +0.000 A 
ATOM      8  C   UNL     1      -1.154  13.091  21.331  0.00  0.00    +0.000 A 
ATOM      9  C   UNL     1      -0.320  12.056  20.896  0.00  0.00    +0.000 A 
ATOM     10  N   UNL     1       0.415  12.136  19.688  0.00  0.00    +0.000 N 
ATOM     11  C   UNL     1       1.157  13.225  19.221  0.00  0.00    +0.000 C 
ATOM     12  O   UNL     1       1.626  13.233  18.081  0.00  0.00    +0.000 OA
ENDROOT
BRANCH   2  13
ATOM     13  C   UNL     1       1.788   8.630  19.413  0.00  0.00    +0.000 A 
ATOM     14  C   UNL     1       1.932   7.464  20.171  0.00  0.00    +0.000 A 
ATOM     15  C   UNL     1       2.556   6.334  19.620  0.00  0.00    +0.000 A 
ATOM     16  C   UNL     1       3.020   6.345  18.295  0.00  0.00    +0.000 A 
ATOM     17  C   UNL     1       2.902   7.525  17.553  0.00  0.00    +0.000 A 
ATOM     18  C   UNL     1       2.314   8.659  18.115  0.00  0.00    +0.000 A 
BRANCH  16  19
ATOM     19  C   UNL     1       3.604   5.118  17.638  0.00  0.00    +0.000 C 
ATOM     20  F   UNL     1       2.670   4.208  17.248  0.00  0.00    +0.000 F 
ATOM     21  F   UNL     1       4.320   5.421  16.519  0.00  0.00    +0.000 F 
ATOM     22  F   UNL     1       4.462   4.448  18.457  0.00  0.00    +0.000 F 
ENDBRANCH  16  19
ENDBRANCH   2  13
BRANCH  11  23
ATOM     23  C   UNL     1       1.443  14.423  20.090  0.00  0.00    +0.000 A 
ATOM     24  C   UNL     1       0.852  15.680  19.899  0.00  0.00    +0.000 A 
ATOM     25  C   UNL     1       1.266  16.789  20.645  0.00  0.00    +0.000 A 
ATOM     26  C   UNL     1       2.198  16.632  21.666  0.00  0.00    +0.000 A 
ATOM     27  C   UNL     1       2.706  15.366  21.949  0.00  0.00    +0.000 A 
ATOM     28  C   UNL     1       2.336  14.268  21.162  0.00  0.00    +0.000 A 
ENDBRANCH  11  23
BRANCH   1  30
ATOM     29  N   UNL     1      -1.426  11.031  17.323  0.00  0.00    +0.000 N 
ATOM     30  C   UNL     1      -0.932  10.391  18.440  0.00  0.00    +0.000 C 
ATOM     31  O   UNL     1      -1.538   9.441  18.929  0.00  0.00    +0.000 OA
ATOM     32  H   UNL     1      -0.985  11.900  17.044  0.00  0.00    +0.000 HD
BRANCH  29  34
ATOM     33  C   UNL     1      -3.800  11.633  17.557  0.00  0.00    +0.000 C 
ATOM     34  C   UNL     1      -2.778  10.731  16.867  0.00  0.00    +0.000 C 
ATOM     35  C   UNL     1      -2.870  10.832  15.353  0.00  0.00    +0.000 C 
ENDBRANCH  29  34
ENDBRANCH   1  30
TORSDOF 5
ENDMDL
MODEL 3
REMARK VINA RESULT:      -8.2      0.470      1.449
REMARK  Name = 
REMARK  7 active torsions:
REMARK  status: ('A' for Active; 'I' for Inactive)
REMARK    1  A    between atoms: C_1  and  C_2
REMARK    2  A    between atoms: C_2  and  C_3
REMARK    3  A    between atoms: C_2  and  N_4
REMARK    4  A    between atoms: C_5  and  C_7
REMARK    5  A    between atoms: C_8  and  C_9
REMARK    6  A    between atoms: C_12  and  C_13
REMARK    7  A    between atoms: C_27  and  C_29
REMARK                            x       y       z     vdW  Elec       q    Type
REMARK                         _______ _______ _______ _____ _____    ______ ____
ROOT
ATOM      1  C   UNL     1       0.483  10.728  18.843  0.00  0.00    +0.000 C 
ATOM      2  C   UNL     1       1.018   9.629  19.778  0.00  0.00    +0.000 C 
ATOM      3  N   UNL     1       0.732   9.625  21.055  0.00  0.00    +0.000 NA
ATOM      4  C   UNL     1      -0.094  10.675  21.526  0.00  0.00    +0.000 A 
ATOM      5  C   UNL     1      -0.786  10.517  22.724  0.00  0.00    +0.000 A 
ATOM      6  C   UNL     1      -1.567  11.558  23.233  0.00  0.00    +0.000 A 
ATOM      7  C   UNL     1      -1.672  12.768  22.543  0.00  0.00    +0.000 A 
ATOM      8  C   UNL     1      -1.003  12.937  21.333  0.00  0.00    +0.000 A 
ATOM      9  C   UNL     1      -0.204  11.902  20.837  0.00  0.00    +0.000 A 
ATOM     10  N   UNL     1       0.490  12.005  19.606  0.00  0.00    +0.000 N 
ATOM     11  C   UNL     1       1.236  13.095  19.147  0.00  0.00    +0.000 C 
ATOM     12  O   UNL     1       1.665  13.130  17.992  0.00  0.00    +0.000 OA
ENDROOT
BRANCH   2  13
ATOM     13  C   UNL     1       1.785   8.486  19.178  0.00  0.00    +0.000 A 
ATOM     14  C   UNL     1       2.356   8.620  17.909  0.00  0.00    +0.000 A 
ATOM     15  C   UNL     1       3.198   7.618  17.403  0.00  0.00    +0.000 A 
ATOM     16  C   UNL     1       3.503   6.481  18.168  0.00  0.00    +0.000 A 
ATOM     17  C   UNL     1       2.903   6.338  19.424  0.00  0.00    +0.000 A 
ATOM     18  C   UNL     1       2.037   7.317  19.911  0.00  0.00    +0.000 A 
BRANCH  16  19
ATOM     19  C   UNL     1       4.482   5.434  17.697  0.00  0.00    +0.000 C 
ATOM     20  F   UNL     1       4.764   5.505  16.367  0.00  0.00    +0.000 F 
ATOM     21  F   UNL     1       5.682   5.521  18.338  0.00  0.00    +0.000 F 
ATOM     22  F   UNL     1       4.036   4.166  17.918  0.00  0.00    +0.000 F 
ENDBRANCH  16  19
ENDBRANCH   2  13
BRANCH  11  23
ATOM     23  C   UNL     1       1.575  14.260  20.041  0.00  0.00    +0.000 A 
ATOM     24  C   UNL     1       0.982  15.526  19.925  0.00  0.00    +0.000 A 
ATOM     25  C   UNL     1       1.442  16.606  20.687  0.00  0.00    +0.000 A 
ATOM     26  C   UNL     1       2.425  16.409  21.651  0.00  0.00    +0.000 A 
ATOM     27  C   UNL     1       2.939  15.131  21.863  0.00  0.00    +0.000 A 
ATOM     28  C   UNL     1       2.522  14.063  21.058  0.00  0.00    +0.000 A 
ENDBRANCH  11  23
BRANCH   1  30
ATOM     29  N   UNL     1      -1.440  10.986  17.257  0.00  0.00    +0.000 N 
ATOM     30  C   UNL     1      -0.933  10.324  18.355  0.00  0.00    +0.000 C 
ATOM     31  O   UNL     1      -1.551   9.387  18.854  0.00  0.00    +0.000 OA
ATOM     32  H   UNL     1      -0.984  11.845  16.972  0.00  0.00    +0.000 HD
BRANCH  29  34
ATOM     33  C   UNL     1      -3.786  11.674  17.535  0.00  0.00    +0.000 C 
ATOM     34  C   UNL     1      -2.812  10.726  16.838  0.00  0.00    +0.000 C 
ATOM     35  C   UNL     1      -2.936  10.804  15.325  0.00  0.00    +0.000 C 
ENDBRANCH  29  34
ENDBRANCH   1  30
TORSDOF 5
ENDMDL
MODEL 4
REMARK VINA RESULT:      -7.9      1.174      1.503
REMARK  Name = 
REMARK  7 active torsions:
REMARK  status: ('A' for Active; 'I' for Inactive)
REMARK    1  A    between atoms: C_1  and  C_2
REMARK    2  A    between atoms: C_2  and  C_3
REMARK    3  A    between atoms: C_2  and  N_4
REMARK    4  A    between atoms: C_5  and  C_7
REMARK    5  A    between atoms: C_8  and  C_9
REMARK    6  A    between atoms: C_12  and  C_13
REMARK    7  A    between atoms: C_27  and  C_29
REMARK                            x       y       z     vdW  Elec       q    Type
REMARK                         _______ _______ _______ _____ _____    ______ ____
ROOT
ATOM      1  C   UNL     1      -0.411  11.539  19.169  0.00  0.00    +0.000 C 
ATOM      2  C   UNL     1       0.203  10.557  20.182  0.00  0.00    +0.000 C 
ATOM      3  N   UNL     1      -0.130  10.589  21.447  0.00  0.00    +0.000 NA
ATOM      4  C   UNL     1      -1.082  11.565  21.830  0.00  0.00    +0.000 A 
ATOM      5  C   UNL     1      -1.800  11.396  23.012  0.00  0.00    +0.000 A 
ATOM      6  C   UNL     1      -2.708  12.370  23.435  0.00  0.00    +0.000 A 
ATOM      7  C   UNL     1      -2.916  13.522  22.674  0.00  0.00    +0.000 A 
ATOM      8  C   UNL     1      -2.223  13.700  21.478  0.00  0.00    +0.000 A 
ATOM      9  C   UNL     1      -1.298  12.733  21.069  0.00  0.00    +0.000 A 
ATOM     10  N   UNL     1      -0.572  12.847  19.858  0.00  0.00    +0.000 N 
ATOM     11  C   UNL     1       0.069  13.987  19.362  0.00  0.00    +0.000 C 
ATOM     12  O   UNL     1       0.536  14.007  18.221  0.00  0.00    +0.000 OA
ENDROOT
BRANCH   2  13
ATOM     13  C   UNL     1       1.112   9.475  19.674  0.00  0.00    +0.000 A 
ATOM     14  C   UNL     1       1.403   8.372  20.483  0.00  0.00    +0.000 A 
ATOM     15  C   UNL     1       2.126   7.286  19.967  0.00  0.00    +0.000 A 
ATOM     16  C   UNL     1       2.546   7.274  18.628  0.00  0.00    +0.000 A 
ATOM     17  C   UNL     1       2.281   8.394  17.832  0.00  0.00    +0.000 A 
ATOM     18  C   UNL     1       1.593   9.489  18.357  0.00  0.00    +0.000 A 
BRANCH  16  19
ATOM     19  C   UNL     1       3.237   6.082  18.012  0.00  0.00    +0.000 C 
ATOM     20  F   UNL     1       4.033   6.396  16.953  0.00  0.00    +0.000 F 
ATOM     21  F   UNL     1       4.038   5.432  18.902  0.00  0.00    +0.000 F 
ATOM     22  F   UNL     1       2.356   5.148  17.555  0.00  0.00    +0.000 F 
ENDBRANCH  16  19
ENDBRANCH   2  13
BRANCH  11  23
ATOM     23  C   UNL     1       0.245  15.228  20.198  0.00  0.00    +0.000 A 
ATOM     24  C   UNL     1       1.097  15.302  21.310  0.00  0.00    +0.000 A 
ATOM     25  C   UNL     1       1.108  16.434  22.132  0.00  0.00    +0.000 A 
ATOM     26  C   UNL     1       0.348  17.549  21.791  0.00  0.00    +0.000 A 
ATOM     27  C   UNL     1      -0.412  17.536  20.624  0.00  0.00    +0.000 A 
ATOM     28  C   UNL     1      -0.469  16.381  19.834  0.00  0.00    +0.000 A 
ENDBRANCH  11  23
BRANCH   1  30
ATOM     29  N   UNL     1      -2.703  11.847  18.203  0.00  0.00    +0.000 N 
ATOM     30  C   UNL     1      -1.755  10.956  18.659  0.00  0.00    +0.000 C 
ATOM     31  O   UNL     1      -1.946   9.746  18.565  0.00  0.00    +0.000 OA
ATOM     32  H   UNL     1      -2.581  12.826  18.436  0.00  0.00    +0.000 HD
BRANCH  29  34
ATOM     33  C   UNL     1      -5.122  12.163  18.516  0.00  0.00    +0.000 C 
ATOM     34  C   UNL     1      -4.023  11.356  17.828  0.00  0.00    +0.000 C 
ATOM     35  C   UNL     1      -4.188  11.356  16.317  0.00  0.00    +0.000 C 
ENDBRANCH  29  34
ENDBRANCH   1  30
TORSDOF 5
ENDMDL
MODEL 5
REMARK VINA RESULT:      -7.9      0.545      1.044
REMARK  Name = 
REMARK  7 active torsions:
REMARK  status: ('A' for Active; 'I' for Inactive)
REMARK    1  A    between atoms: C_1  and  C_2
REMARK    2  A    between atoms: C_2  and  C_3
REMARK    3  A    between atoms: C_2  and  N_4
REMARK    4  A    between atoms: C_5  and  C_7
REMARK    5  A    between atoms: C_8  and  C_9
REMARK    6  A    between atoms: C_12  and  C_13
REMARK    7  A    between atoms: C_27  and  C_29
REMARK                            x       y       z     vdW  Elec       q    Type
REMARK                         _______ _______ _______ _____ _____    ______ ____
ROOT
ATOM      1  C   UNL     1       0.639  10.955  18.981  0.00  0.00    +0.000 C 
ATOM      2  C   UNL     1       0.994   9.863  20.004  0.00  0.00    +0.000 C 
ATOM      3  N   UNL     1       0.629   9.960  21.257  0.00  0.00    +0.000 NA
ATOM      4  C   UNL     1      -0.109  11.115  21.616  0.00  0.00    +0.000 A 
ATOM      5  C   UNL     1      -0.889  11.098  22.770  0.00  0.00    +0.000 A 
ATOM      6  C   UNL     1      -1.586  12.241  23.170  0.00  0.00    +0.000 A 
ATOM      7  C   UNL     1      -1.517  13.413  22.415  0.00  0.00    +0.000 A 
ATOM      8  C   UNL     1      -0.759  13.444  21.247  0.00  0.00    +0.000 A 
ATOM      9  C   UNL     1      -0.045  12.305  20.861  0.00  0.00    +0.000 A 
ATOM     10  N   UNL     1       0.733  12.266  19.677  0.00  0.00    +0.000 N 
ATOM     11  C   UNL     1       1.619  13.246  19.217  0.00  0.00    +0.000 C 
ATOM     12  O   UNL     1       2.122  13.170  18.094  0.00  0.00    +0.000 OA
ENDROOT
BRANCH   2  13
ATOM     13  C   UNL     1       1.672   8.614  19.517  0.00  0.00    +0.000 A 
ATOM     14  C   UNL     1       1.749   7.493  20.349  0.00  0.00    +0.000 A 
ATOM     15  C   UNL     1       2.244   6.277  19.855  0.00  0.00    +0.000 A 
ATOM     16  C   UNL     1       2.644   6.156  18.514  0.00  0.00    +0.000 A 
ATOM     17  C   UNL     1       2.595   7.289  17.696  0.00  0.00    +0.000 A 
ATOM     18  C   UNL     1       2.137   8.508  18.199  0.00  0.00    +0.000 A 
BRANCH  16  19
ATOM     19  C   UNL     1       3.086   4.840  17.923  0.00  0.00    +0.000 C 
ATOM     20  F   UNL     1       2.069   4.113  17.383  0.00  0.00    +0.000 F 
ATOM     21  F   UNL     1       4.001   5.001  16.927  0.00  0.00    +0.000 F 
ATOM     22  F   UNL     1       3.679   4.029  18.843  0.00  0.00    +0.000 F 
ENDBRANCH  16  19
ENDBRANCH   2  13
BRANCH  11  23
ATOM     23  C   UNL     1       2.022  14.420  20.072  0.00  0.00    +0.000 A 
ATOM     24  C   UNL     1       2.873  14.316  21.182  0.00  0.00    +0.000 A 
ATOM     25  C   UNL     1       3.094  15.412  22.022  0.00  0.00    +0.000 A 
ATOM     26  C   UNL     1       2.554  16.654  21.702  0.00  0.00    +0.000 A 
ATOM     27  C   UNL     1       1.805  16.802  20.537  0.00  0.00    +0.000 A 
ATOM     28  C   UNL     1       1.534  15.690  19.729  0.00  0.00    +0.000 A 
ENDBRANCH  11  23
BRANCH   1  30
ATOM     29  N   UNL     1      -1.218  11.462  17.376  0.00  0.00    +0.000 N 
ATOM     30  C   UNL     1      -0.778  10.672  18.416  0.00  0.00    +0.000 C 
ATOM     31  O   UNL     1      -1.454   9.722  18.803  0.00  0.00    +0.000 OA
ATOM     32  H   UNL     1      -0.714  12.321  17.190  0.00  0.00    +0.000 HD
BRANCH  29  34
ATOM     33  C   UNL     1      -2.771   9.975  16.180  0.00  0.00    +0.000 C 
ATOM     34  C   UNL     1      -2.586  11.312  16.896  0.00  0.00    +0.000 C 
ATOM     35  C   UNL     1      -3.578  11.482  18.035  0.00  0.00    +0.000 C 
ENDBRANCH  29  34
ENDBRANCH   1  30
TORSDOF 5
ENDMDL
MODEL 6
REMARK VINA RESULT:      -7.9      0.945      1.472
REMARK  Name = 
REMARK  7 active torsions:
REMARK  status: ('A' for Active; 'I' for Inactive)
REMARK    1  A    between atoms: C_1  and  C_2
REMARK    2  A    between atoms: C_2  and  C_3
REMARK    3  A    between atoms: C_2  and  N_4
REMARK    4  A    between atoms: C_5  and  C_7
REMARK    5  A    between atoms: C_8  and  C_9
REMARK    6  A    between atoms: C_12  and  C_13
REMARK    7  A    between atoms: C_27  and  C_29
REMARK                            x       y       z     vdW  Elec       q    Type
REMARK                         _______ _______ _______ _____ _____    ______ ____
ROOT
ATOM      1  C   UNL     1      -0.151  11.265  19.033  0.00  0.00    +0.000 C 
ATOM      2  C   UNL     1       0.455  10.190  19.952  0.00  0.00    +0.000 C 
ATOM      3  N   UNL     1       0.214  10.181  21.238  0.00  0.00    +0.000 NA
ATOM      4  C   UNL     1      -0.633  11.204  21.734  0.00  0.00    +0.000 A 
ATOM      5  C   UNL     1      -1.278  11.026  22.956  0.00  0.00    +0.000 A 
ATOM      6  C   UNL     1      -2.078  12.041  23.488  0.00  0.00    +0.000 A 
ATOM      7  C   UNL     1      -2.249  13.243  22.798  0.00  0.00    +0.000 A 
ATOM      8  C   UNL     1      -1.629  13.431  21.564  0.00  0.00    +0.000 A 
ATOM      9  C   UNL     1      -0.811  12.422  21.046  0.00  0.00    +0.000 A 
ATOM     10  N   UNL     1      -0.164  12.545  19.791  0.00  0.00    +0.000 N 
ATOM     11  C   UNL     1       0.527  13.659  19.303  0.00  0.00    +0.000 C 
ATOM     12  O   UNL     1       0.914  13.703  18.133  0.00  0.00    +0.000 OA
ENDROOT
BRANCH   2  13
ATOM     13  C   UNL     1       1.241   9.072  19.330  0.00  0.00    +0.000 A 
ATOM     14  C   UNL     1       1.724   9.202  18.024  0.00  0.00    +0.000 A 
ATOM     15  C   UNL     1       2.584   8.232  17.488  0.00  0.00    +0.000 A 
ATOM     16  C   UNL     1       2.995   7.132  18.257  0.00  0.00    +0.000 A 
ATOM     17  C   UNL     1       2.483   6.990  19.551  0.00  0.00    +0.000 A 
ATOM     18  C   UNL     1       1.599   7.937  20.071  0.00  0.00    +0.000 A 
BRANCH  16  19
ATOM     19  C   UNL     1       3.996   6.124  17.748  0.00  0.00    +0.000 C 
ATOM     20  F   UNL     1       4.633   6.511  16.609  0.00  0.00    +0.000 F 
ATOM     21  F   UNL     1       4.979   5.865  18.656  0.00  0.00    +0.000 F 
ATOM     22  F   UNL     1       3.425   4.919  17.467  0.00  0.00    +0.000 F 
ENDBRANCH  16  19
ENDBRANCH   2  13
BRANCH  11  23
ATOM     23  C   UNL     1       0.854  14.839  20.180  0.00  0.00    +0.000 A 
ATOM     24  C   UNL     1       1.786  14.794  21.228  0.00  0.00    +0.000 A 
ATOM     25  C   UNL     1       1.940  15.878  22.098  0.00  0.00    +0.000 A 
ATOM     26  C   UNL     1       1.244  17.060  21.867  0.00  0.00    +0.000 A 
ATOM     27  C   UNL     1       0.405  17.163  20.760  0.00  0.00    +0.000 A 
ATOM     28  C   UNL     1       0.205  16.057  19.924  0.00  0.00    +0.000 A 
ENDBRANCH  11  23
BRANCH   1  30
ATOM     29  N   UNL     1      -2.501  11.790  18.338  0.00  0.00    +0.000 N 
ATOM     30  C   UNL     1      -1.568  10.808  18.595  0.00  0.00    +0.000 C 
ATOM     31  O   UNL     1      -1.835   9.628  18.385  0.00  0.00    +0.000 OA
ATOM     32  H   UNL     1      -2.303  12.728  18.667  0.00  0.00    +0.000 HD
BRANCH  29  34
ATOM     33  C   UNL     1      -4.862  12.215  18.885  0.00  0.00    +0.000 C 
ATOM     34  C   UNL     1      -3.876  11.407  18.042  0.00  0.00    +0.000 C 
ATOM     35  C   UNL     1      -4.164  11.543  16.556  0.00  0.00    +0.000 C 
ENDBRANCH  29  34
ENDBRANCH   1  30
TORSDOF 5
ENDMDL
MODEL 7
REMARK VINA RESULT:      -7.9      1.028      1.555
REMARK  Name = 
REMARK  7 active torsions:
REMARK  status: ('A' for Active; 'I' for Inactive)
REMARK    1  A    between atoms: C_1  and  C_2
REMARK    2  A    between atoms: C_2  and  C_3
REMARK    3  A    between atoms: C_2  and  N_4
REMARK    4  A    between atoms: C_5  and  C_7
REMARK    5  A    between atoms: C_8  and  C_9
REMARK    6  A    between atoms: C_12  and  C_13
REMARK    7  A    between atoms: C_27  and  C_29
REMARK                            x       y       z     vdW  Elec       q    Type
REMARK                         _______ _______ _______ _____ _____    ______ ____
ROOT
ATOM      1  C   UNL     1      -0.259  11.446  19.190  0.00  0.00    +0.000 C 
ATOM      2  C   UNL     1       0.328  10.431  20.186  0.00  0.00    +0.000 C 
ATOM      3  N   UNL     1      -0.002  10.452  21.453  0.00  0.00    +0.000 NA
ATOM      4  C   UNL     1      -0.925  11.449  21.852  0.00  0.00    +0.000 A 
ATOM      5  C   UNL     1      -1.646  11.281  23.033  0.00  0.00    +0.000 A 
ATOM      6  C   UNL     1      -2.525  12.274  23.473  0.00  0.00    +0.000 A 
ATOM      7  C   UNL     1      -2.701  13.444  22.731  0.00  0.00    +0.000 A 
ATOM      8  C   UNL     1      -2.006  13.621  21.537  0.00  0.00    +0.000 A 
ATOM      9  C   UNL     1      -1.109  12.635  21.111  0.00  0.00    +0.000 A 
ATOM     10  N   UNL     1      -0.382  12.748  19.900  0.00  0.00    +0.000 N 
ATOM     11  C   UNL     1       0.290  13.877  19.421  0.00  0.00    +0.000 C 
ATOM     12  O   UNL     1       0.756  13.902  18.280  0.00  0.00    +0.000 OA
ENDROOT
BRANCH   2  13
ATOM     13  C   UNL     1       1.205   9.332  19.659  0.00  0.00    +0.000 A 
ATOM     14  C   UNL     1       1.504   8.231  20.468  0.00  0.00    +0.000 A 
ATOM     15  C   UNL     1       2.195   7.131  19.938  0.00  0.00    +0.000 A 
ATOM     16  C   UNL     1       2.575   7.104  18.587  0.00  0.00    +0.000 A 
ATOM     17  C   UNL     1       2.302   8.222  17.791  0.00  0.00    +0.000 A 
ATOM     18  C   UNL     1       1.647   9.331  18.329  0.00  0.00    +0.000 A 
BRANCH  16  19
ATOM     19  C   UNL     1       3.229   5.897  17.960  0.00  0.00    +0.000 C 
ATOM     20  F   UNL     1       2.344   4.976  17.487  0.00  0.00    +0.000 F 
ATOM     21  F   UNL     1       4.023   6.229  16.903  0.00  0.00    +0.000 F 
ATOM     22  F   UNL     1       4.035   5.229  18.832  0.00  0.00    +0.000 F 
ENDBRANCH  16  19
ENDBRANCH   2  13
BRANCH  11  23
ATOM     23  C   UNL     1       0.502  15.099  20.277  0.00  0.00    +0.000 A 
ATOM     24  C   UNL     1      -0.162  16.317  20.071  0.00  0.00    +0.000 A 
ATOM     25  C   UNL     1       0.184  17.456  20.805  0.00  0.00    +0.000 A 
ATOM     26  C   UNL     1       1.121  17.366  21.830  0.00  0.00    +0.000 A 
ATOM     27  C   UNL     1       1.702  16.135  22.128  0.00  0.00    +0.000 A 
ATOM     28  C   UNL     1       1.399  15.009  21.353  0.00  0.00    +0.000 A 
ENDBRANCH  11  23
BRANCH   1  30
ATOM     29  N   UNL     1      -2.576  11.838  18.319  0.00  0.00    +0.000 N 
ATOM     30  C   UNL     1      -1.620  10.910  18.673  0.00  0.00    +0.000 C 
ATOM     31  O   UNL     1      -1.819   9.712  18.487  0.00  0.00    +0.000 OA
ATOM     32  H   UNL     1      -2.444  12.794  18.628  0.00  0.00    +0.000 HD
BRANCH  29  34
ATOM     33  C   UNL     1      -4.985  12.148  18.711  0.00  0.00    +0.000 C 
ATOM     34  C   UNL     1      -3.909  11.381  17.944  0.00  0.00    +0.000 C 
ATOM     35  C   UNL     1      -4.109  11.484  16.440  0.00  0.00    +0.000 C 
ENDBRANCH  29  34
ENDBRANCH   1  30
TORSDOF 5
ENDMDL
MODEL 8
REMARK VINA RESULT:      -7.8      1.462      2.070
REMARK  Name = 
REMARK  7 active torsions:
REMARK  status: ('A' for Active; 'I' for Inactive)
REMARK    1  A    between atoms: C_1  and  C_2
REMARK    2  A    between atoms: C_2  and  C_3
REMARK    3  A    between atoms: C_2  and  N_4
REMARK    4  A    between atoms: C_5  and  C_7
REMARK    5  A    between atoms: C_8  and  C_9
REMARK    6  A    between atoms: C_12  and  C_13
REMARK    7  A    between atoms: C_27  and  C_29
REMARK                            x       y       z     vdW  Elec       q    Type
REMARK                         _______ _______ _______ _____ _____    ______ ____
ROOT
ATOM      1  C   UNL     1       0.922  12.025  19.227  0.00  0.00    +0.000 C 
ATOM      2  C   UNL     1       0.893  10.805  20.163  0.00  0.00    +0.000 C 
ATOM      3  N   UNL     1       0.423  10.894  21.382  0.00  0.00    +0.000 NA
ATOM      4  C   UNL     1      -0.057  12.164  21.787  0.00  0.00    +0.000 A 
ATOM      5  C   UNL     1      -0.944  12.251  22.858  0.00  0.00    +0.000 A 
ATOM      6  C   UNL     1      -1.391  13.497  23.307  0.00  0.00    +0.000 A 
ATOM      7  C   UNL     1      -0.964  14.670  22.682  0.00  0.00    +0.000 A 
ATOM      8  C   UNL     1      -0.094  14.602  21.596  0.00  0.00    +0.000 A 
ATOM      9  C   UNL     1       0.370  13.355  21.164  0.00  0.00    +0.000 A 
ATOM     10  N   UNL     1       1.245  13.217  20.058  0.00  0.00    +0.000 N 
ATOM     11  C   UNL     1       2.382  13.982  19.780  0.00  0.00    +0.000 C 
ATOM     12  O   UNL     1       2.975  13.870  18.704  0.00  0.00    +0.000 OA
ENDROOT
BRANCH   2  13
ATOM     13  C   UNL     1       1.307   9.469  19.617  0.00  0.00    +0.000 A 
ATOM     14  C   UNL     1       1.627   9.339  18.262  0.00  0.00    +0.000 A 
ATOM     15  C   UNL     1       2.158   8.136  17.772  0.00  0.00    +0.000 A 
ATOM     16  C   UNL     1       2.401   7.055  18.633  0.00  0.00    +0.000 A 
ATOM     17  C   UNL     1       2.047   7.179  19.981  0.00  0.00    +0.000 A 
ATOM     18  C   UNL     1       1.486   8.363  20.460  0.00  0.00    +0.000 A 
BRANCH  16  19
ATOM     19  C   UNL     1       3.062   5.784  18.161  0.00  0.00    +0.000 C 
ATOM     20  F   UNL     1       2.221   4.939  17.502  0.00  0.00    +0.000 F 
ATOM     21  F   UNL     1       4.095   6.024  17.305  0.00  0.00    +0.000 F 
ATOM     22  F   UNL     1       3.592   5.060  19.186  0.00  0.00    +0.000 F 
ENDBRANCH  16  19
ENDBRANCH   2  13
BRANCH  11  23
ATOM     23  C   UNL     1       2.952  14.952  20.781  0.00  0.00    +0.000 A 
ATOM     24  C   UNL     1       3.727  14.565  21.885  0.00  0.00    +0.000 A 
ATOM     25  C   UNL     1       4.105  15.495  22.858  0.00  0.00    +0.000 A 
ATOM     26  C   UNL     1       3.807  16.843  22.686  0.00  0.00    +0.000 A 
ATOM     27  C   UNL     1       3.143  17.262  21.535  0.00  0.00    +0.000 A 
ATOM     28  C   UNL     1       2.712  16.322  20.590  0.00  0.00    +0.000 A 
ENDBRANCH  11  23
BRANCH   1  30
ATOM     29  N   UNL     1      -1.389  11.168  18.777  0.00  0.00    +0.000 N 
ATOM     30  C   UNL     1      -0.449  12.141  18.511  0.00  0.00    +0.000 C 
ATOM     31  O   UNL     1      -0.738  13.108  17.810  0.00  0.00    +0.000 OA
ATOM     32  H   UNL     1      -1.072  10.316  19.224  0.00  0.00    +0.000 HD
BRANCH  29  34
ATOM     33  C   UNL     1      -3.027   9.753  17.608  0.00  0.00    +0.000 C 
ATOM     34  C   UNL     1      -2.645  11.169  18.037  0.00  0.00    +0.000 C 
ATOM     35  C   UNL     1      -3.748  11.828  18.849  0.00  0.00    +0.000 C 
ENDBRANCH  29  34
ENDBRANCH   1  30
TORSDOF 5
ENDMDL
MODEL 9
REMARK VINA RESULT:      -7.8      1.426      2.114
REMARK  Name = 
REMARK  7 active torsions:
REMARK  status: ('A' for Active; 'I' for Inactive)
REMARK    1  A    between atoms: C_1  and  C_2
REMARK    2  A    between atoms: C_2  and  C_3
REMARK    3  A    between atoms: C_2  and  N_4
REMARK    4  A    between atoms: C_5  and  C_7
REMARK    5  A    between atoms: C_8  and  C_9
REMARK    6  A    between atoms: C_12  and  C_13
REMARK    7  A    between atoms: C_27  and  C_29
REMARK                            x       y       z     vdW  Elec       q    Type
REMARK                         _______ _______ _______ _____ _____    ______ ____
ROOT
ATOM      1  C   UNL     1       0.909  12.017  19.231  0.00  0.00    +0.000 C 
ATOM      2  C   UNL     1       0.886  10.775  20.138  0.00  0.00    +0.000 C 
ATOM      3  N   UNL     1       0.404  10.830  21.354  0.00  0.00    +0.000 NA
ATOM      4  C   UNL     1      -0.094  12.085  21.784  0.00  0.00    +0.000 A 
ATOM      5  C   UNL     1      -0.991  12.137  22.849  0.00  0.00    +0.000 A 
ATOM      6  C   UNL     1      -1.457  13.367  23.322  0.00  0.00    +0.000 A 
ATOM      7  C   UNL     1      -1.038  14.559  22.729  0.00  0.00    +0.000 A 
ATOM      8  C   UNL     1      -0.157  14.527  21.650  0.00  0.00    +0.000 A 
ATOM      9  C   UNL     1       0.325  13.295  21.193  0.00  0.00    +0.000 A 
ATOM     10  N   UNL     1       1.211  13.193  20.092  0.00  0.00    +0.000 N 
ATOM     11  C   UNL     1       2.341  13.977  19.842  0.00  0.00    +0.000 C 
ATOM     12  O   UNL     1       2.946  13.897  18.770  0.00  0.00    +0.000 OA
ENDROOT
BRANCH   2  13
ATOM     13  C   UNL     1       1.320   9.457  19.565  0.00  0.00    +0.000 A 
ATOM     14  C   UNL     1       1.681   9.369  18.217  0.00  0.00    +0.000 A 
ATOM     15  C   UNL     1       2.229   8.182  17.707  0.00  0.00    +0.000 A 
ATOM     16  C   UNL     1       2.450   7.076  18.542  0.00  0.00    +0.000 A 
ATOM     17  C   UNL     1       2.056   7.159  19.882  0.00  0.00    +0.000 A 
ATOM     18  C   UNL     1       1.477   8.327  20.379  0.00  0.00    +0.000 A 
BRANCH  16  19
ATOM     19  C   UNL     1       3.129   5.821  18.052  0.00  0.00    +0.000 C 
ATOM     20  F   UNL     1       3.877   5.195  19.002  0.00  0.00    +0.000 F 
ATOM     21  F   UNL     1       2.240   4.891  17.604  0.00  0.00    +0.000 F 
ATOM     22  F   UNL     1       3.973   6.059  17.008  0.00  0.00    +0.000 F 
ENDBRANCH  16  19
ENDBRANCH   2  13
BRANCH  11  23
ATOM     23  C   UNL     1       2.892  14.930  20.872  0.00  0.00    +0.000 A 
ATOM     24  C   UNL     1       2.600  16.302  20.894  0.00  0.00    +0.000 A 
ATOM     25  C   UNL     1       3.254  17.160  21.785  0.00  0.00    +0.000 A 
ATOM     26  C   UNL     1       4.127  16.641  22.736  0.00  0.00    +0.000 A 
ATOM     27  C   UNL     1       4.335  15.266  22.806  0.00  0.00    +0.000 A 
ATOM     28  C   UNL     1       3.726  14.414  21.875  0.00  0.00    +0.000 A 
ENDBRANCH  11  23
BRANCH   1  30
ATOM     29  N   UNL     1      -1.395  11.156  18.755  0.00  0.00    +0.000 N 
ATOM     30  C   UNL     1      -0.457  12.134  18.506  0.00  0.00    +0.000 C 
ATOM     31  O   UNL     1      -0.744  13.106  17.811  0.00  0.00    +0.000 OA
ATOM     32  H   UNL     1      -1.079  10.301  19.198  0.00  0.00    +0.000 HD
BRANCH  29  34
ATOM     33  C   UNL     1      -3.024   9.744  17.570  0.00  0.00    +0.000 C 
ATOM     34  C   UNL     1      -2.646  11.158  18.006  0.00  0.00    +0.000 C 
ATOM     35  C   UNL     1      -3.755  11.815  18.811  0.00  0.00    +0.000 C 
ENDBRANCH  29  34
ENDBRANCH   1  30
TORSDOF 5
ENDMDL
