MODEL 1
REMARK VINA RESULT:      -9.6      0.000      0.000
REMARK  Name = 
REMARK  5 active torsions:
REMARK  status: ('A' for Active; 'I' for Inactive)
REMARK    1  A    between atoms: C_2  and  C_19
REMARK    2  A    between atoms: N_3  and  C_4
REMARK    3  A    between atoms: C_8  and  C_9
REMARK    4  A    between atoms: C_9  and  C_11
REMARK    5  A    between atoms: C_20  and  O_21
REMARK                            x       y       z     vdW  Elec       q    Type
REMARK                         _______ _______ _______ _____ _____    ______ ____
ROOT
ATOM      1  O   UNL     1       9.625  10.128  19.549  0.00  0.00    +0.000 OA
ATOM      2  C   UNL     1       9.075  10.578  18.558  0.00  0.00    +0.000 C 
ATOM      3  N   UNL     1       8.228   9.904  17.689  0.00  0.00    +0.000 N 
ATOM      4  H   UNL     1       8.038  10.323  16.777  0.00  0.00    +0.000 HD
ENDROOT
BRANCH   2   5
ATOM      5  C   UNL     1       9.442  11.971  18.162  0.00  0.00    +0.000 C 
ATOM      6  C   UNL     1      10.611  12.622  18.301  0.00  0.00    +0.000 C 
ATOM      7  C   UNL     1      10.762  14.031  17.859  0.00  0.00    +0.000 A 
ATOM      8  C   UNL     1      11.973  14.516  17.361  0.00  0.00    +0.000 A 
ATOM      9  C   UNL     1      12.091  15.856  16.976  0.00  0.00    +0.000 A 
ATOM     10  C   UNL     1      11.009  16.729  17.104  0.00  0.00    +0.000 A 
ATOM     11  C   UNL     1       9.780  16.259  17.558  0.00  0.00    +0.000 A 
ATOM     12  C   UNL     1       9.672  14.914  17.908  0.00  0.00    +0.000 A 
ATOM     13  S   UNL     1       8.103  14.186  18.226  0.00  0.00    +0.000 S 
ATOM     14  O   UNL     1       7.102  14.857  17.432  0.00  0.00    +0.000 OA
ATOM     15  O   UNL     1       7.962  13.999  19.657  0.00  0.00    +0.000 OA
ATOM     16  N   UNL     1       8.389  12.694  17.505  0.00  0.00    +0.000 N 
ATOM     17  H   UNL     1       7.541  12.156  17.299  0.00  0.00    +0.000 HD
BRANCH   6  18
ATOM     18  O   UNL     1      11.750  12.094  18.881  0.00  0.00    +0.000 OA
ATOM     19  H   UNL     1      12.150  12.748  19.478  0.00  0.00    +0.000 HD
ENDBRANCH   6  18
ENDBRANCH   2   5
BRANCH   3  20
ATOM     20  C   UNL     1       7.821   8.563  17.867  0.00  0.00    +0.000 A 
ATOM     21  C   UNL     1       8.487   7.713  18.748  0.00  0.00    +0.000 A 
ATOM     22  C   UNL     1       8.093   6.393  18.919  0.00  0.00    +0.000 A 
ATOM     23  C   UNL     1       7.037   5.882  18.174  0.00  0.00    +0.000 A 
ATOM     24  C   UNL     1       6.368   6.706  17.258  0.00  0.00    +0.000 A 
ATOM     25  C   UNL     1       6.737   8.058  17.135  0.00  0.00    +0.000 A 
BRANCH  24  26
ATOM     26  C   UNL     1       5.264   6.118  16.447  0.00  0.00    +0.000 C 
ATOM     27  O   UNL     1       5.228   6.319  15.236  0.00  0.00    +0.000 OA
BRANCH  26  28
ATOM     28  C   UNL     1       4.193   5.289  17.066  0.00  0.00    +0.000 A 
ATOM     29  C   UNL     1       4.166   3.916  16.786  0.00  0.00    +0.000 A 
ATOM     30  C   UNL     1       3.158   3.111  17.326  0.00  0.00    +0.000 A 
ATOM     31  C   UNL     1       2.181   3.678  18.142  0.00  0.00    +0.000 A 
ATOM     32 CL   UNL     1       0.930   2.692  18.789  0.00  0.00    +0.000 Cl
ATOM     33  C   UNL     1       2.202   5.043  18.427  0.00  0.00    +0.000 A 
ATOM     34  C   UNL     1       3.199   5.852  17.876  0.00  0.00    +0.000 A 
ENDBRANCH  26  28
ENDBRANCH  24  26
ENDBRANCH   3  20
TORSDOF 5
ENDMDL
MODEL 2
REMARK VINA RESULT:      -9.6      7.060      8.716
REMARK  Name = 
REMARK  5 active torsions:
REMARK  status: ('A' for Active; 'I' for Inactive)
REMARK    1  A    between atoms: C_2  and  C_19
REMARK    2  A    between atoms: N_3  and  C_4
REMARK    3  A    between atoms: C_8  and  C_9
REMARK    4  A    between atoms: C_9  and  C_11
REMARK    5  A    between atoms: C_20  and  O_21
REMARK                            x       y       z     vdW  Elec       q    Type
REMARK                         _______ _______ _______ _____ _____    ______ ____
ROOT
ATOM      1  O   UNL     1       1.878   8.374  18.571  0.00  0.00    +0.000 OA
ATOM      2  C   UNL     1       1.518   8.348  19.736  0.00  0.00    +0.000 C 
ATOM      3  N   UNL     1       1.617   7.283  20.621  0.00  0.00    +0.000 N 
ATOM      4  H   UNL     1       1.061   7.312  21.478  0.00  0.00    +0.000 HD
ENDROOT
BRANCH   2   5
ATOM      5  C   UNL     1       0.780   9.545  20.238  0.00  0.00    +0.000 C 
ATOM      6  C   UNL     1      -0.109   9.646  21.242  0.00  0.00    +0.000 C 
ATOM      7  C   UNL     1      -0.758  10.941  21.567  0.00  0.00    +0.000 A 
ATOM      8  C   UNL     1      -1.110  11.275  22.876  0.00  0.00    +0.000 A 
ATOM      9  C   UNL     1      -1.743  12.493  23.147  0.00  0.00    +0.000 A 
ATOM     10  C   UNL     1      -2.049  13.380  22.112  0.00  0.00    +0.000 A 
ATOM     11  C   UNL     1      -1.669  13.087  20.805  0.00  0.00    +0.000 A 
ATOM     12  C   UNL     1      -1.013  11.883  20.558  0.00  0.00    +0.000 A 
ATOM     13  S   UNL     1      -0.265  11.565  18.999  0.00  0.00    +0.000 S 
ATOM     14  O   UNL     1       0.175  12.814  18.423  0.00  0.00    +0.000 OA
ATOM     15  O   UNL     1      -1.094  10.624  18.272  0.00  0.00    +0.000 OA
ATOM     16  N   UNL     1       1.107  10.768  19.558  0.00  0.00    +0.000 N 
ATOM     17  H   UNL     1       1.867  10.706  18.873  0.00  0.00    +0.000 HD
BRANCH   6  18
ATOM     18  O   UNL     1      -0.536   8.594  22.033  0.00  0.00    +0.000 OA
ATOM     19  H   UNL     1       0.232   8.133  22.411  0.00  0.00    +0.000 HD
ENDBRANCH   6  18
ENDBRANCH   2   5
BRANCH   3  20
ATOM     20  C   UNL     1       2.225   6.048  20.303  0.00  0.00    +0.000 A 
ATOM     21  C   UNL     1       1.589   4.836  20.563  0.00  0.00    +0.000 A 
ATOM     22  C   UNL     1       2.189   3.621  20.257  0.00  0.00    +0.000 A 
ATOM     23  C   UNL     1       3.468   3.597  19.715  0.00  0.00    +0.000 A 
ATOM     24  C   UNL     1       4.144   4.800  19.471  0.00  0.00    +0.000 A 
ATOM     25  C   UNL     1       3.505   6.027  19.730  0.00  0.00    +0.000 A 
BRANCH  24  26
ATOM     26  C   UNL     1       5.531   4.739  18.925  0.00  0.00    +0.000 C 
ATOM     27  O   UNL     1       6.487   4.844  19.686  0.00  0.00    +0.000 OA
BRANCH  26  28
ATOM     28  C   UNL     1       5.791   4.555  17.470  0.00  0.00    +0.000 A 
ATOM     29  C   UNL     1       7.097   4.742  16.998  0.00  0.00    +0.000 A 
ATOM     30  C   UNL     1       7.375   4.607  15.635  0.00  0.00    +0.000 A 
ATOM     31  C   UNL     1       6.349   4.286  14.747  0.00  0.00    +0.000 A 
ATOM     32 CL   UNL     1       6.687   4.140  13.067  0.00  0.00    +0.000 Cl
ATOM     33  C   UNL     1       5.048   4.097  15.209  0.00  0.00    +0.000 A 
ATOM     34  C   UNL     1       4.765   4.246  16.569  0.00  0.00    +0.000 A 
ENDBRANCH  26  28
ENDBRANCH  24  26
ENDBRANCH   3  20
TORSDOF 5
ENDMDL
MODEL 3
REMARK VINA RESULT:      -9.4      7.053      9.967
REMARK  Name = 
REMARK  5 active torsions:
REMARK  status: ('A' for Active; 'I' for Inactive)
REMARK    1  A    between atoms: C_2  and  C_19
REMARK    2  A    between atoms: N_3  and  C_4
REMARK    3  A    between atoms: C_8  and  C_9
REMARK    4  A    between atoms: C_9  and  C_11
REMARK    5  A    between atoms: C_20  and  O_21
REMARK                            x       y       z     vdW  Elec       q    Type
REMARK                         _______ _______ _______ _____ _____    ______ ____
ROOT
ATOM      1  O   UNL     1       1.491   5.902  20.635  0.00  0.00    +0.000 OA
ATOM      2  C   UNL     1       2.154   6.623  19.908  0.00  0.00    +0.000 C 
ATOM      3  N   UNL     1       2.066   8.004  19.787  0.00  0.00    +0.000 N 
ATOM      4  H   UNL     1       2.500   8.447  18.975  0.00  0.00    +0.000 HD
ENDROOT
BRANCH   2   5
ATOM      5  C   UNL     1       3.079   5.943  18.952  0.00  0.00    +0.000 C 
ATOM      6  C   UNL     1       3.706   6.436  17.869  0.00  0.00    +0.000 C 
ATOM      7  C   UNL     1       4.573   5.575  17.025  0.00  0.00    +0.000 A 
ATOM      8  C   UNL     1       5.699   6.083  16.375  0.00  0.00    +0.000 A 
ATOM      9  C   UNL     1       6.482   5.252  15.566  0.00  0.00    +0.000 A 
ATOM     10  C   UNL     1       6.137   3.911  15.383  0.00  0.00    +0.000 A 
ATOM     11  C   UNL     1       5.044   3.372  16.054  0.00  0.00    +0.000 A 
ATOM     12  C   UNL     1       4.293   4.208  16.879  0.00  0.00    +0.000 A 
ATOM     13  S   UNL     1       3.076   3.549  17.964  0.00  0.00    +0.000 S 
ATOM     14  O   UNL     1       3.473   2.222  18.370  0.00  0.00    +0.000 OA
ATOM     15  O   UNL     1       1.764   3.833  17.414  0.00  0.00    +0.000 OA
ATOM     16  N   UNL     1       3.353   4.570  19.271  0.00  0.00    +0.000 N 
ATOM     17  H   UNL     1       2.965   4.234  20.159  0.00  0.00    +0.000 HD
BRANCH   6  18
ATOM     18  O   UNL     1       3.594   7.736  17.409  0.00  0.00    +0.000 OA
ATOM     19  H   UNL     1       3.445   8.339  18.157  0.00  0.00    +0.000 HD
ENDBRANCH   6  18
ENDBRANCH   2   5
BRANCH   3  20
ATOM     20  C   UNL     1       1.202   8.808  20.562  0.00  0.00    +0.000 A 
ATOM     21  C   UNL     1       1.153   8.694  21.950  0.00  0.00    +0.000 A 
ATOM     22  C   UNL     1       0.299   9.479  22.713  0.00  0.00    +0.000 A 
ATOM     23  C   UNL     1      -0.560  10.376  22.090  0.00  0.00    +0.000 A 
ATOM     24  C   UNL     1      -0.554  10.491  20.693  0.00  0.00    +0.000 A 
ATOM     25  C   UNL     1       0.356   9.733  19.933  0.00  0.00    +0.000 A 
BRANCH  24  26
ATOM     26  C   UNL     1      -1.514  11.435  20.053  0.00  0.00    +0.000 C 
ATOM     27  O   UNL     1      -1.786  12.494  20.611  0.00  0.00    +0.000 OA
BRANCH  26  28
ATOM     28  C   UNL     1      -2.162  11.128  18.748  0.00  0.00    +0.000 A 
ATOM     29  C   UNL     1      -1.510  10.251  17.870  0.00  0.00    +0.000 A 
ATOM     30  C   UNL     1      -2.072   9.961  16.624  0.00  0.00    +0.000 A 
ATOM     31  C   UNL     1      -3.282  10.547  16.256  0.00  0.00    +0.000 A 
ATOM     32 CL   UNL     1      -3.964  10.207  14.715  0.00  0.00    +0.000 Cl
ATOM     33  C   UNL     1      -3.938  11.420  17.124  0.00  0.00    +0.000 A 
ATOM     34  C   UNL     1      -3.370  11.723  18.365  0.00  0.00    +0.000 A 
ENDBRANCH  26  28
ENDBRANCH  24  26
ENDBRANCH   3  20
TORSDOF 5
ENDMDL
MODEL 4
REMARK VINA RESULT:      -9.3      6.753      7.909
REMARK  Name = 
REMARK  5 active torsions:
REMARK  status: ('A' for Active; 'I' for Inactive)
REMARK    1  A    between atoms: C_2  and  C_19
REMARK    2  A    between atoms: N_3  and  C_4
REMARK    3  A    between atoms: C_8  and  C_9
REMARK    4  A    between atoms: C_9  and  C_11
REMARK    5  A    between atoms: C_20  and  O_21
REMARK                            x       y       z     vdW  Elec       q    Type
REMARK                         _______ _______ _______ _____ _____    ______ ____
ROOT
ATOM      1  O   UNL     1       1.843   8.336  17.708  0.00  0.00    +0.000 OA
ATOM      2  C   UNL     1       1.650   8.596  18.884  0.00  0.00    +0.000 C 
ATOM      3  N   UNL     1       1.846   7.758  19.973  0.00  0.00    +0.000 N 
ATOM      4  H   UNL     1       1.417   8.013  20.864  0.00  0.00    +0.000 HD
ENDROOT
BRANCH   2   5
ATOM      5  C   UNL     1       1.018   9.916  19.184  0.00  0.00    +0.000 C 
ATOM      6  C   UNL     1       1.338  11.142  18.733  0.00  0.00    +0.000 C 
ATOM      7  C   UNL     1       0.591  12.344  19.181  0.00  0.00    +0.000 A 
ATOM      8  C   UNL     1       0.396  13.441  18.338  0.00  0.00    +0.000 A 
ATOM      9  C   UNL     1      -0.291  14.570  18.797  0.00  0.00    +0.000 A 
ATOM     10  C   UNL     1      -0.771  14.624  20.108  0.00  0.00    +0.000 A 
ATOM     11  C   UNL     1      -0.626  13.527  20.952  0.00  0.00    +0.000 A 
ATOM     12  C   UNL     1       0.035  12.399  20.468  0.00  0.00    +0.000 A 
ATOM     13  S   UNL     1       0.020  10.888  21.367  0.00  0.00    +0.000 S 
ATOM     14  O   UNL     1      -1.210  10.797  22.117  0.00  0.00    +0.000 OA
ATOM     15  O   UNL     1       1.320  10.704  21.982  0.00  0.00    +0.000 OA
ATOM     16  N   UNL     1      -0.119   9.841  20.058  0.00  0.00    +0.000 N 
ATOM     17  H   UNL     1      -0.428   8.895  20.306  0.00  0.00    +0.000 HD
BRANCH   6  18
ATOM     18  O   UNL     1       2.379  11.422  17.867  0.00  0.00    +0.000 OA
ATOM     19  H   UNL     1       2.751  12.298  18.070  0.00  0.00    +0.000 HD
ENDBRANCH   6  18
ENDBRANCH   2   5
BRANCH   3  20
ATOM     20  C   UNL     1       2.375   6.451  19.876  0.00  0.00    +0.000 A 
ATOM     21  C   UNL     1       1.673   5.345  20.351  0.00  0.00    +0.000 A 
ATOM     22  C   UNL     1       2.193   4.062  20.263  0.00  0.00    +0.000 A 
ATOM     23  C   UNL     1       3.459   3.863  19.725  0.00  0.00    +0.000 A 
ATOM     24  C   UNL     1       4.201   4.960  19.266  0.00  0.00    +0.000 A 
ATOM     25  C   UNL     1       3.641   6.250  19.307  0.00  0.00    +0.000 A 
BRANCH  24  26
ATOM     26  C   UNL     1       5.572   4.717  18.729  0.00  0.00    +0.000 C 
ATOM     27  O   UNL     1       6.524   4.666  19.502  0.00  0.00    +0.000 OA
BRANCH  26  28
ATOM     28  C   UNL     1       5.822   4.537  17.273  0.00  0.00    +0.000 A 
ATOM     29  C   UNL     1       7.099   4.828  16.774  0.00  0.00    +0.000 A 
ATOM     30  C   UNL     1       7.363   4.699  15.408  0.00  0.00    +0.000 A 
ATOM     31  C   UNL     1       6.353   4.281  14.543  0.00  0.00    +0.000 A 
ATOM     32 CL   UNL     1       6.672   4.142  12.859  0.00  0.00    +0.000 Cl
ATOM     33  C   UNL     1       5.080   3.988  15.031  0.00  0.00    +0.000 A 
ATOM     34  C   UNL     1       4.809   4.131  16.395  0.00  0.00    +0.000 A 
ENDBRANCH  26  28
ENDBRANCH  24  26
ENDBRANCH   3  20
TORSDOF 5
ENDMDL
MODEL 5
REMARK VINA RESULT:      -9.2      7.291     10.580
REMARK  Name = 
REMARK  5 active torsions:
REMARK  status: ('A' for Active; 'I' for Inactive)
REMARK    1  A    between atoms: C_2  and  C_19
REMARK    2  A    between atoms: N_3  and  C_4
REMARK    3  A    between atoms: C_8  and  C_9
REMARK    4  A    between atoms: C_9  and  C_11
REMARK    5  A    between atoms: C_20  and  O_21
REMARK                            x       y       z     vdW  Elec       q    Type
REMARK                         _______ _______ _______ _____ _____    ______ ____
ROOT
ATOM      1  O   UNL     1       0.880   6.661  21.201  0.00  0.00    +0.000 OA
ATOM      2  C   UNL     1       1.579   7.370  20.496  0.00  0.00    +0.000 C 
ATOM      3  N   UNL     1       1.524   8.752  20.379  0.00  0.00    +0.000 N 
ATOM      4  H   UNL     1       1.990   9.189  19.582  0.00  0.00    +0.000 HD
ENDROOT
BRANCH   2   5
ATOM      5  C   UNL     1       2.517   6.674  19.565  0.00  0.00    +0.000 C 
ATOM      6  C   UNL     1       2.895   7.011  18.319  0.00  0.00    +0.000 C 
ATOM      7  C   UNL     1       3.829   6.157  17.542  0.00  0.00    +0.000 A 
ATOM      8  C   UNL     1       4.735   6.704  16.631  0.00  0.00    +0.000 A 
ATOM      9  C   UNL     1       5.585   5.872  15.896  0.00  0.00    +0.000 A 
ATOM     10  C   UNL     1       5.524   4.484  16.046  0.00  0.00    +0.000 A 
ATOM     11  C   UNL     1       4.659   3.919  16.978  0.00  0.00    +0.000 A 
ATOM     12  C   UNL     1       3.841   4.766  17.724  0.00  0.00    +0.000 A 
ATOM     13  S   UNL     1       2.928   4.160  19.099  0.00  0.00    +0.000 S 
ATOM     14  O   UNL     1       3.650   3.062  19.698  0.00  0.00    +0.000 OA
ATOM     15  O   UNL     1       1.533   4.055  18.718  0.00  0.00    +0.000 OA
ATOM     16  N   UNL     1       3.120   5.490  20.110  0.00  0.00    +0.000 N 
ATOM     17  H   UNL     1       2.918   5.302  21.098  0.00  0.00    +0.000 HD
BRANCH   6  18
ATOM     18  O   UNL     1       2.450   8.123  17.628  0.00  0.00    +0.000 OA
ATOM     19  H   UNL     1       2.428   8.894  18.220  0.00  0.00    +0.000 HD
ENDBRANCH   6  18
ENDBRANCH   2   5
BRANCH   3  20
ATOM     20  C   UNL     1       0.655   9.572  21.132  0.00  0.00    +0.000 A 
ATOM     21  C   UNL     1       0.382   9.304  22.472  0.00  0.00    +0.000 A 
ATOM     22  C   UNL     1      -0.478  10.104  23.212  0.00  0.00    +0.000 A 
ATOM     23  C   UNL     1      -1.118  11.179  22.606  0.00  0.00    +0.000 A 
ATOM     24  C   UNL     1      -0.886  11.455  21.251  0.00  0.00    +0.000 A 
ATOM     25  C   UNL     1       0.032  10.672  20.526  0.00  0.00    +0.000 A 
BRANCH  24  26
ATOM     26  C   UNL     1      -1.618  12.591  20.621  0.00  0.00    +0.000 C 
ATOM     27  O   UNL     1      -1.121  13.714  20.635  0.00  0.00    +0.000 OA
BRANCH  26  28
ATOM     28  C   UNL     1      -2.945  12.404  19.974  0.00  0.00    +0.000 A 
ATOM     29  C   UNL     1      -2.998  11.738  18.742  0.00  0.00    +0.000 A 
ATOM     30  C   UNL     1      -4.223  11.570  18.089  0.00  0.00    +0.000 A 
ATOM     31  C   UNL     1      -5.390  12.066  18.667  0.00  0.00    +0.000 A 
ATOM     32 CL   UNL     1      -6.894  11.877  17.855  0.00  0.00    +0.000 Cl
ATOM     33  C   UNL     1      -5.346  12.728  19.894  0.00  0.00    +0.000 A 
ATOM     34  C   UNL     1      -4.121  12.911  20.540  0.00  0.00    +0.000 A 
ENDBRANCH  26  28
ENDBRANCH  24  26
ENDBRANCH   3  20
TORSDOF 5
ENDMDL
MODEL 6
REMARK VINA RESULT:      -9.2      5.654      8.798
REMARK  Name = 
REMARK  5 active torsions:
REMARK  status: ('A' for Active; 'I' for Inactive)
REMARK    1  A    between atoms: C_2  and  C_19
REMARK    2  A    between atoms: N_3  and  C_4
REMARK    3  A    between atoms: C_8  and  C_9
REMARK    4  A    between atoms: C_9  and  C_11
REMARK    5  A    between atoms: C_20  and  O_21
REMARK                            x       y       z     vdW  Elec       q    Type
REMARK                         _______ _______ _______ _____ _____    ______ ____
ROOT
ATOM      1  O   UNL     1       2.164   8.861  17.282  0.00  0.00    +0.000 OA
ATOM      2  C   UNL     1       1.802   8.504  18.391  0.00  0.00    +0.000 C 
ATOM      3  N   UNL     1       1.948   7.244  18.956  0.00  0.00    +0.000 N 
ATOM      4  H   UNL     1       1.390   7.015  19.780  0.00  0.00    +0.000 HD
ENDROOT
BRANCH   2   5
ATOM      5  C   UNL     1       1.008   9.486  19.187  0.00  0.00    +0.000 C 
ATOM      6  C   UNL     1       0.468   9.360  20.413  0.00  0.00    +0.000 C 
ATOM      7  C   UNL     1      -0.319  10.461  21.022  0.00  0.00    +0.000 A 
ATOM      8  C   UNL     1      -0.320  10.683  22.401  0.00  0.00    +0.000 A 
ATOM      9  C   UNL     1      -1.091  11.714  22.949  0.00  0.00    +0.000 A 
ATOM     10  C   UNL     1      -1.885  12.519  22.128  0.00  0.00    +0.000 A 
ATOM     11  C   UNL     1      -1.867  12.343  20.748  0.00  0.00    +0.000 A 
ATOM     12  C   UNL     1      -1.070  11.331  20.217  0.00  0.00    +0.000 A 
ATOM     13  S   UNL     1      -0.782  11.222  18.486  0.00  0.00    +0.000 S 
ATOM     14  O   UNL     1      -0.824  12.547  17.916  0.00  0.00    +0.000 OA
ATOM     15  O   UNL     1      -1.565  10.123  17.956  0.00  0.00    +0.000 OA
ATOM     16  N   UNL     1       0.835  10.761  18.549  0.00  0.00    +0.000 N 
ATOM     17  H   UNL     1       1.345  10.891  17.668  0.00  0.00    +0.000 HD
BRANCH   6  18
ATOM     18  O   UNL     1       0.545   8.226  21.201  0.00  0.00    +0.000 OA
ATOM     19  H   UNL     1      -0.129   7.583  20.921  0.00  0.00    +0.000 HD
ENDBRANCH   6  18
ENDBRANCH   2   5
BRANCH   3  20
ATOM     20  C   UNL     1       2.614   6.170  18.324  0.00  0.00    +0.000 A 
ATOM     21  C   UNL     1       1.944   4.995  17.988  0.00  0.00    +0.000 A 
ATOM     22  C   UNL     1       2.598   3.936  17.374  0.00  0.00    +0.000 A 
ATOM     23  C   UNL     1       3.962   4.020  17.117  0.00  0.00    +0.000 A 
ATOM     24  C   UNL     1       4.668   5.177  17.471  0.00  0.00    +0.000 A 
ATOM     25  C   UNL     1       3.984   6.267  18.040  0.00  0.00    +0.000 A 
BRANCH  24  26
ATOM     26  C   UNL     1       6.137   5.220  17.216  0.00  0.00    +0.000 C 
ATOM     27  O   UNL     1       6.678   4.285  16.633  0.00  0.00    +0.000 OA
BRANCH  26  28
ATOM     28  C   UNL     1       6.974   6.370  17.655  0.00  0.00    +0.000 A 
ATOM     29  C   UNL     1       7.781   6.213  18.790  0.00  0.00    +0.000 A 
ATOM     30  C   UNL     1       8.559   7.280  19.250  0.00  0.00    +0.000 A 
ATOM     31  C   UNL     1       8.529   8.499  18.576  0.00  0.00    +0.000 A 
ATOM     32 CL   UNL     1       9.470   9.818  19.153  0.00  0.00    +0.000 Cl
ATOM     33  C   UNL     1       7.730   8.663  17.445  0.00  0.00    +0.000 A 
ATOM     34  C   UNL     1       6.940   7.603  16.993  0.00  0.00    +0.000 A 
ENDBRANCH  26  28
ENDBRANCH  24  26
ENDBRANCH   3  20
TORSDOF 5
ENDMDL
MODEL 7
REMARK VINA RESULT:      -9.1      7.170     10.286
REMARK  Name = 
REMARK  5 active torsions:
REMARK  status: ('A' for Active; 'I' for Inactive)
REMARK    1  A    between atoms: C_2  and  C_19
REMARK    2  A    between atoms: N_3  and  C_4
REMARK    3  A    between atoms: C_8  and  C_9
REMARK    4  A    between atoms: C_9  and  C_11
REMARK    5  A    between atoms: C_20  and  O_21
REMARK                            x       y       z     vdW  Elec       q    Type
REMARK                         _______ _______ _______ _____ _____    ______ ____
ROOT
ATOM      1  O   UNL     1       1.439   5.965  20.585  0.00  0.00    +0.000 OA
ATOM      2  C   UNL     1       2.115   6.682  19.866  0.00  0.00    +0.000 C 
ATOM      3  N   UNL     1       2.042   8.064  19.749  0.00  0.00    +0.000 N 
ATOM      4  H   UNL     1       2.486   8.506  18.943  0.00  0.00    +0.000 HD
ENDROOT
BRANCH   2   5
ATOM      5  C   UNL     1       3.040   5.996  18.915  0.00  0.00    +0.000 C 
ATOM      6  C   UNL     1       3.646   6.474  17.813  0.00  0.00    +0.000 C 
ATOM      7  C   UNL     1       4.518   5.609  16.979  0.00  0.00    +0.000 A 
ATOM      8  C   UNL     1       5.626   6.122  16.303  0.00  0.00    +0.000 A 
ATOM      9  C   UNL     1       6.415   5.287  15.504  0.00  0.00    +0.000 A 
ATOM     10  C   UNL     1       6.092   3.936  15.356  0.00  0.00    +0.000 A 
ATOM     11  C   UNL     1       5.017   3.393  16.054  0.00  0.00    +0.000 A 
ATOM     12  C   UNL     1       4.261   4.234  16.869  0.00  0.00    +0.000 A 
ATOM     13  S   UNL     1       3.069   3.580  17.984  0.00  0.00    +0.000 S 
ATOM     14  O   UNL     1       3.495   2.270  18.415  0.00  0.00    +0.000 OA
ATOM     15  O   UNL     1       1.746   3.828  17.444  0.00  0.00    +0.000 OA
ATOM     16  N   UNL     1       3.344   4.636  19.263  0.00  0.00    +0.000 N 
ATOM     17  H   UNL     1       2.973   4.314  20.163  0.00  0.00    +0.000 HD
BRANCH   6  18
ATOM     18  O   UNL     1       3.505   7.761  17.324  0.00  0.00    +0.000 OA
ATOM     19  H   UNL     1       3.592   8.401  18.051  0.00  0.00    +0.000 HD
ENDBRANCH   6  18
ENDBRANCH   2   5
BRANCH   3  20
ATOM     20  C   UNL     1       1.180   8.874  20.521  0.00  0.00    +0.000 A 
ATOM     21  C   UNL     1       0.850   8.541  21.833  0.00  0.00    +0.000 A 
ATOM     22  C   UNL     1      -0.003   9.332  22.591  0.00  0.00    +0.000 A 
ATOM     23  C   UNL     1      -0.579  10.465  22.028  0.00  0.00    +0.000 A 
ATOM     24  C   UNL     1      -0.290  10.808  20.700  0.00  0.00    +0.000 A 
ATOM     25  C   UNL     1       0.621  10.032  19.960  0.00  0.00    +0.000 A 
BRANCH  24  26
ATOM     26  C   UNL     1      -0.954  12.008  20.115  0.00  0.00    +0.000 C 
ATOM     27  O   UNL     1      -0.332  13.062  20.025  0.00  0.00    +0.000 OA
BRANCH  26  28
ATOM     28  C   UNL     1      -2.363  11.966  19.634  0.00  0.00    +0.000 A 
ATOM     29  C   UNL     1      -2.656  11.205  18.494  0.00  0.00    +0.000 A 
ATOM     30  C   UNL     1      -3.961  11.165  17.995  0.00  0.00    +0.000 A 
ATOM     31  C   UNL     1      -4.970  11.883  18.635  0.00  0.00    +0.000 A 
ATOM     32 CL   UNL     1      -6.571  11.850  18.010  0.00  0.00    +0.000 Cl
ATOM     33  C   UNL     1      -4.687  12.641  19.772  0.00  0.00    +0.000 A 
ATOM     34  C   UNL     1      -3.380  12.695  20.263  0.00  0.00    +0.000 A 
ENDBRANCH  26  28
ENDBRANCH  24  26
ENDBRANCH   3  20
TORSDOF 5
ENDMDL
MODEL 8
REMARK VINA RESULT:      -9.0      7.077      8.819
REMARK  Name = 
REMARK  5 active torsions:
REMARK  status: ('A' for Active; 'I' for Inactive)
REMARK    1  A    between atoms: C_2  and  C_19
REMARK    2  A    between atoms: N_3  and  C_4
REMARK    3  A    between atoms: C_8  and  C_9
REMARK    4  A    between atoms: C_9  and  C_11
REMARK    5  A    between atoms: C_20  and  O_21
REMARK                            x       y       z     vdW  Elec       q    Type
REMARK                         _______ _______ _______ _____ _____    ______ ____
ROOT
ATOM      1  O   UNL     1       2.191   8.215  18.689  0.00  0.00    +0.000 OA
ATOM      2  C   UNL     1       1.446   8.038  19.638  0.00  0.00    +0.000 C 
ATOM      3  N   UNL     1       1.353   6.902  20.432  0.00  0.00    +0.000 N 
ATOM      4  H   UNL     1       0.531   6.793  21.027  0.00  0.00    +0.000 HD
ENDROOT
BRANCH   2   5
ATOM      5  C   UNL     1       0.438   9.106  19.909  0.00  0.00    +0.000 C 
ATOM      6  C   UNL     1      -0.163   9.953  19.055  0.00  0.00    +0.000 C 
ATOM      7  C   UNL     1      -1.130  10.972  19.538  0.00  0.00    +0.000 A 
ATOM      8  C   UNL     1      -2.215  11.378  18.759  0.00  0.00    +0.000 A 
ATOM      9  C   UNL     1      -3.095  12.359  19.230  0.00  0.00    +0.000 A 
ATOM     10  C   UNL     1      -2.886  12.959  20.474  0.00  0.00    +0.000 A 
ATOM     11  C   UNL     1      -1.836  12.541  21.286  0.00  0.00    +0.000 A 
ATOM     12  C   UNL     1      -0.988  11.541  20.812  0.00  0.00    +0.000 A 
ATOM     13  S   UNL     1       0.184  10.773  21.875  0.00  0.00    +0.000 S 
ATOM     14  O   UNL     1      -0.332  10.770  23.223  0.00  0.00    +0.000 OA
ATOM     15  O   UNL     1       1.503  11.277  21.549  0.00  0.00    +0.000 OA
ATOM     16  N   UNL     1       0.037   9.204  21.285  0.00  0.00    +0.000 N 
ATOM     17  H   UNL     1       0.411   8.482  21.910  0.00  0.00    +0.000 HD
BRANCH   6  18
ATOM     18  O   UNL     1       0.064  10.001  17.692  0.00  0.00    +0.000 OA
ATOM     19  H   UNL     1       0.967  10.319  17.519  0.00  0.00    +0.000 HD
ENDBRANCH   6  18
ENDBRANCH   2   5
BRANCH   3  20
ATOM     20  C   UNL     1       2.181   5.767  20.282  0.00  0.00    +0.000 A 
ATOM     21  C   UNL     1       1.796   4.518  20.765  0.00  0.00    +0.000 A 
ATOM     22  C   UNL     1       2.611   3.403  20.625  0.00  0.00    +0.000 A 
ATOM     23  C   UNL     1       3.860   3.528  20.026  0.00  0.00    +0.000 A 
ATOM     24  C   UNL     1       4.286   4.778  19.558  0.00  0.00    +0.000 A 
ATOM     25  C   UNL     1       3.428   5.890  19.653  0.00  0.00    +0.000 A 
BRANCH  24  26
ATOM     26  C   UNL     1       5.646   4.887  18.956  0.00  0.00    +0.000 C 
ATOM     27  O   UNL     1       6.604   5.171  19.669  0.00  0.00    +0.000 OA
BRANCH  26  28
ATOM     28  C   UNL     1       5.878   4.661  17.502  0.00  0.00    +0.000 A 
ATOM     29  C   UNL     1       7.156   4.912  16.985  0.00  0.00    +0.000 A 
ATOM     30  C   UNL     1       7.405   4.740  15.620  0.00  0.00    +0.000 A 
ATOM     31  C   UNL     1       6.378   4.319  14.776  0.00  0.00    +0.000 A 
ATOM     32 CL   UNL     1       6.679   4.128  13.094  0.00  0.00    +0.000 Cl
ATOM     33  C   UNL     1       5.104   4.066  15.284  0.00  0.00    +0.000 A 
ATOM     34  C   UNL     1       4.850   4.252  16.645  0.00  0.00    +0.000 A 
ENDBRANCH  26  28
ENDBRANCH  24  26
ENDBRANCH   3  20
TORSDOF 5
ENDMDL
MODEL 9
REMARK VINA RESULT:      -9.0      7.553     10.899
REMARK  Name = 
REMARK  5 active torsions:
REMARK  status: ('A' for Active; 'I' for Inactive)
REMARK    1  A    between atoms: C_2  and  C_19
REMARK    2  A    between atoms: N_3  and  C_4
REMARK    3  A    between atoms: C_8  and  C_9
REMARK    4  A    between atoms: C_9  and  C_11
REMARK    5  A    between atoms: C_20  and  O_21
REMARK                            x       y       z     vdW  Elec       q    Type
REMARK                         _______ _______ _______ _____ _____    ______ ____
ROOT
ATOM      1  O   UNL     1       1.460   7.621  20.793  0.00  0.00    +0.000 OA
ATOM      2  C   UNL     1       1.814   7.957  19.676  0.00  0.00    +0.000 C 
ATOM      3  N   UNL     1       1.334   9.023  18.927  0.00  0.00    +0.000 N 
ATOM      4  H   UNL     1       1.537   9.043  17.927  0.00  0.00    +0.000 HD
ENDROOT
BRANCH   2   5
ATOM      5  C   UNL     1       2.783   7.057  18.980  0.00  0.00    +0.000 C 
ATOM      6  C   UNL     1       3.343   7.178  17.763  0.00  0.00    +0.000 C 
ATOM      7  C   UNL     1       4.273   6.145  17.240  0.00  0.00    +0.000 A 
ATOM      8  C   UNL     1       5.335   6.477  16.396  0.00  0.00    +0.000 A 
ATOM      9  C   UNL     1       6.180   5.478  15.899  0.00  0.00    +0.000 A 
ATOM     10  C   UNL     1       5.960   4.137  16.223  0.00  0.00    +0.000 A 
ATOM     11  C   UNL     1       4.934   3.788  17.096  0.00  0.00    +0.000 A 
ATOM     12  C   UNL     1       4.121   4.799  17.605  0.00  0.00    +0.000 A 
ATOM     13  S   UNL     1       2.990   4.477  18.912  0.00  0.00    +0.000 S 
ATOM     14  O   UNL     1       3.517   3.421  19.744  0.00  0.00    +0.000 OA
ATOM     15  O   UNL     1       1.649   4.436  18.363  0.00  0.00    +0.000 OA
ATOM     16  N   UNL     1       3.192   5.919  19.754  0.00  0.00    +0.000 N 
ATOM     17  H   UNL     1       2.852   5.893  20.722  0.00  0.00    +0.000 HD
BRANCH   6  18
ATOM     18  O   UNL     1       3.101   8.212  16.877  0.00  0.00    +0.000 OA
ATOM     19  H   UNL     1       3.914   8.423  16.386  0.00  0.00    +0.000 HD
ENDBRANCH   6  18
ENDBRANCH   2   5
BRANCH   3  20
ATOM     20  C   UNL     1       0.369   9.942  19.396  0.00  0.00    +0.000 A 
ATOM     21  C   UNL     1      -0.392  10.710  18.517  0.00  0.00    +0.000 A 
ATOM     22  C   UNL     1      -1.335  11.619  18.975  0.00  0.00    +0.000 A 
ATOM     23  C   UNL     1      -1.509  11.807  20.341  0.00  0.00    +0.000 A 
ATOM     24  C   UNL     1      -0.736  11.071  21.250  0.00  0.00    +0.000 A 
ATOM     25  C   UNL     1       0.176  10.110  20.775  0.00  0.00    +0.000 A 
BRANCH  24  26
ATOM     26  C   UNL     1      -0.920  11.324  22.708  0.00  0.00    +0.000 C 
ATOM     27  O   UNL     1      -0.382  10.582  23.525  0.00  0.00    +0.000 OA
BRANCH  26  28
ATOM     28  C   UNL     1      -1.746  12.457  23.208  0.00  0.00    +0.000 A 
ATOM     29  C   UNL     1      -1.134  13.708  23.367  0.00  0.00    +0.000 A 
ATOM     30  C   UNL     1      -1.870  14.790  23.861  0.00  0.00    +0.000 A 
ATOM     31  C   UNL     1      -3.212  14.619  24.196  0.00  0.00    +0.000 A 
ATOM     32 CL   UNL     1      -4.112  15.943  24.824  0.00  0.00    +0.000 Cl
ATOM     33  C   UNL     1      -3.828  13.378  24.040  0.00  0.00    +0.000 A 
ATOM     34  C   UNL     1      -3.091  12.292  23.560  0.00  0.00    +0.000 A 
ENDBRANCH  26  28
ENDBRANCH  24  26
ENDBRANCH   3  20
TORSDOF 5
ENDMDL
