MODEL 1
REMARK VINA RESULT:      -7.3      0.000      0.000
REMARK  Name = 
REMARK  5 active torsions:
REMARK  status: ('A' for Active; 'I' for Inactive)
REMARK    1  A    between atoms: C_1  and  C_2
REMARK    2  A    between atoms: N_8  and  C_9
REMARK    3  A    between atoms: C_9  and  C_10
REMARK    4  A    between atoms: C_19  and  C_20
REMARK    5  A    between atoms: C_20  and  O_21
REMARK                            x       y       z     vdW  Elec       q    Type
REMARK                         _______ _______ _______ _____ _____    ______ ____
ROOT
ATOM      1  C   UNL     1       5.657   4.027  14.008  0.00  0.00    +0.000 C 
ATOM      2  C   UNL     1       5.937   3.773  15.481  0.00  0.00    +0.000 C 
ATOM      3  C   UNL     1       7.150   4.554  15.986  0.00  0.00    +0.000 C 
ATOM      4  C   UNL     1       6.920   4.610  17.485  0.00  0.00    +0.000 C 
ATOM      5  N   UNL     1       5.479   4.721  17.624  0.00  0.00    +0.000 N 
ATOM      6  C   UNL     1       4.961   5.326  18.748  0.00  0.00    +0.000 C 
ATOM      7  O   UNL     1       5.663   5.649  19.702  0.00  0.00    +0.000 OA
ATOM      8  N   UNL     1       3.607   5.482  18.753  0.00  0.00    +0.000 N 
ATOM      9  C   UNL     1       4.788   4.217  16.420  0.00  0.00    +0.000 C 
ATOM     10  H   UNL     1       3.124   5.483  17.865  0.00  0.00    +0.000 HD
ENDROOT
BRANCH   8  11
ATOM     11  C   UNL     1       2.888   6.019  19.885  0.00  0.00    +0.000 C 
BRANCH  11  12
ATOM     12  C   UNL     1       2.224   7.332  19.567  0.00  0.00    +0.000 A 
ATOM     13  C   UNL     1       2.286   7.877  18.267  0.00  0.00    +0.000 A 
ATOM     14  C   UNL     1       1.654   9.086  17.958  0.00  0.00    +0.000 A 
ATOM     15  C   UNL     1       0.959   9.738  18.962  0.00  0.00    +0.000 A 
ATOM     16  C   UNL     1       0.906   9.216  20.258  0.00  0.00    +0.000 A 
ATOM     17  C   UNL     1       1.540   8.025  20.579  0.00  0.00    +0.000 A 
ATOM     18  C   UNL     1       0.154  10.130  21.171  0.00  0.00    +0.000 C 
ATOM     19  C   UNL     1      -0.629  10.979  20.159  0.00  0.00    +0.000 C 
ATOM     20  C   UNL     1       0.228  11.041  18.884  0.00  0.00    +0.000 C 
ENDBRANCH  11  12
ENDBRANCH   8  11
BRANCH   9  21
ATOM     21  C   UNL     1       3.855   3.015  16.682  0.00  0.00    +0.000 C 
BRANCH  21  22
ATOM     22  O   UNL     1       2.501   3.398  16.874  0.00  0.00    +0.000 OA
ATOM     23  H   UNL     1       2.069   3.305  16.001  0.00  0.00    +0.000 HD
ENDBRANCH  21  22
ENDBRANCH   9  21
TORSDOF 4
ENDMDL
MODEL 2
REMARK VINA RESULT:      -7.3      3.031      7.320
REMARK  Name = 
REMARK  5 active torsions:
REMARK  status: ('A' for Active; 'I' for Inactive)
REMARK    1  A    between atoms: C_1  and  C_2
REMARK    2  A    between atoms: N_8  and  C_9
REMARK    3  A    between atoms: C_9  and  C_10
REMARK    4  A    between atoms: C_19  and  C_20
REMARK    5  A    between atoms: C_20  and  O_21
REMARK                            x       y       z     vdW  Elec       q    Type
REMARK                         _______ _______ _______ _____ _____    ______ ____
ROOT
ATOM      1  C   UNL     1       1.733   2.552  21.896  0.00  0.00    +0.000 C 
ATOM      2  C   UNL     1       1.691   3.347  20.600  0.00  0.00    +0.000 C 
ATOM      3  C   UNL     1       1.294   4.805  20.824  0.00  0.00    +0.000 C 
ATOM      4  C   UNL     1       1.839   5.501  19.590  0.00  0.00    +0.000 C 
ATOM      5  N   UNL     1       3.070   4.792  19.291  0.00  0.00    +0.000 N 
ATOM      6  C   UNL     1       4.074   5.451  18.617  0.00  0.00    +0.000 C 
ATOM      7  O   UNL     1       3.915   6.570  18.134  0.00  0.00    +0.000 OA
ATOM      8  N   UNL     1       5.233   4.750  18.467  0.00  0.00    +0.000 N 
ATOM      9  C   UNL     1       3.060   3.438  19.880  0.00  0.00    +0.000 C 
ATOM     10  H   UNL     1       5.418   3.993  19.111  0.00  0.00    +0.000 HD
ENDROOT
BRANCH   8  11
ATOM     11  C   UNL     1       6.358   5.254  17.714  0.00  0.00    +0.000 C 
BRANCH  11  12
ATOM     12  C   UNL     1       6.346   4.783  16.285  0.00  0.00    +0.000 A 
ATOM     13  C   UNL     1       5.424   3.805  15.855  0.00  0.00    +0.000 A 
ATOM     14  C   UNL     1       5.393   3.376  14.524  0.00  0.00    +0.000 A 
ATOM     15  C   UNL     1       6.289   3.939  13.632  0.00  0.00    +0.000 A 
ATOM     16  C   UNL     1       7.219   4.896  14.051  0.00  0.00    +0.000 A 
ATOM     17  C   UNL     1       7.267   5.319  15.371  0.00  0.00    +0.000 A 
ATOM     18  C   UNL     1       8.112   5.302  12.923  0.00  0.00    +0.000 C 
ATOM     19  C   UNL     1       7.286   4.845  11.713  0.00  0.00    +0.000 C 
ATOM     20  C   UNL     1       6.463   3.633  12.178  0.00  0.00    +0.000 C 
ENDBRANCH  11  12
ENDBRANCH   8  11
BRANCH   9  21
ATOM     21  C   UNL     1       3.165   2.297  18.846  0.00  0.00    +0.000 C 
BRANCH  21  22
ATOM     22  O   UNL     1       4.480   1.772  18.732  0.00  0.00    +0.000 OA
ATOM     23  H   UNL     1       4.879   1.854  19.623  0.00  0.00    +0.000 HD
ENDBRANCH  21  22
ENDBRANCH   9  21
TORSDOF 4
ENDMDL
MODEL 3
REMARK VINA RESULT:      -7.0      2.146      3.378
REMARK  Name = 
REMARK  5 active torsions:
REMARK  status: ('A' for Active; 'I' for Inactive)
REMARK    1  A    between atoms: C_1  and  C_2
REMARK    2  A    between atoms: N_8  and  C_9
REMARK    3  A    between atoms: C_9  and  C_10
REMARK    4  A    between atoms: C_19  and  C_20
REMARK    5  A    between atoms: C_20  and  O_21
REMARK                            x       y       z     vdW  Elec       q    Type
REMARK                         _______ _______ _______ _____ _____    ______ ____
ROOT
ATOM      1  C   UNL     1       1.834   1.896  18.701  0.00  0.00    +0.000 C 
ATOM      2  C   UNL     1       2.810   3.016  19.028  0.00  0.00    +0.000 C 
ATOM      3  C   UNL     1       4.004   3.044  18.075  0.00  0.00    +0.000 C 
ATOM      4  C   UNL     1       4.508   4.470  18.200  0.00  0.00    +0.000 C 
ATOM      5  N   UNL     1       3.304   5.262  18.384  0.00  0.00    +0.000 N 
ATOM      6  C   UNL     1       3.307   6.583  17.996  0.00  0.00    +0.000 C 
ATOM      7  O   UNL     1       4.330   7.157  17.630  0.00  0.00    +0.000 OA
ATOM      8  N   UNL     1       2.111   7.226  18.108  0.00  0.00    +0.000 N 
ATOM      9  C   UNL     1       2.197   4.433  18.902  0.00  0.00    +0.000 C 
ATOM     10  H   UNL     1       1.269   6.666  18.120  0.00  0.00    +0.000 HD
ENDROOT
BRANCH   8  11
ATOM     11  C   UNL     1       1.952   8.633  17.824  0.00  0.00    +0.000 C 
BRANCH  11  12
ATOM     12  C   UNL     1       1.198   9.352  18.910  0.00  0.00    +0.000 A 
ATOM     13  C   UNL     1       0.389  10.469  18.610  0.00  0.00    +0.000 A 
ATOM     14  C   UNL     1      -0.331  11.131  19.610  0.00  0.00    +0.000 A 
ATOM     15  C   UNL     1      -0.235  10.661  20.908  0.00  0.00    +0.000 A 
ATOM     16  C   UNL     1       0.578   9.566  21.220  0.00  0.00    +0.000 A 
ATOM     17  C   UNL     1       1.307   8.911  20.238  0.00  0.00    +0.000 A 
ATOM     18  C   UNL     1       0.563   9.293  22.689  0.00  0.00    +0.000 C 
ATOM     19  C   UNL     1      -0.714  10.031  23.114  0.00  0.00    +0.000 C 
ATOM     20  C   UNL     1      -0.885  11.207  22.140  0.00  0.00    +0.000 C 
ENDBRANCH  11  12
ENDBRANCH   8  11
BRANCH   9  21
ATOM     21  C   UNL     1       1.664   4.878  20.282  0.00  0.00    +0.000 C 
BRANCH  21  22
ATOM     22  O   UNL     1       2.617   5.622  21.029  0.00  0.00    +0.000 OA
ATOM     23  H   UNL     1       3.040   4.982  21.637  0.00  0.00    +0.000 HD
ENDBRANCH  21  22
ENDBRANCH   9  21
TORSDOF 4
ENDMDL
MODEL 4
REMARK VINA RESULT:      -6.9      3.606      7.823
REMARK  Name = 
REMARK  5 active torsions:
REMARK  status: ('A' for Active; 'I' for Inactive)
REMARK    1  A    between atoms: C_1  and  C_2
REMARK    2  A    between atoms: N_8  and  C_9
REMARK    3  A    between atoms: C_9  and  C_10
REMARK    4  A    between atoms: C_19  and  C_20
REMARK    5  A    between atoms: C_20  and  O_21
REMARK                            x       y       z     vdW  Elec       q    Type
REMARK                         _______ _______ _______ _____ _____    ______ ____
ROOT
ATOM      1  C   UNL     1      -2.859  11.837  18.573  0.00  0.00    +0.000 C 
ATOM      2  C   UNL     1      -1.640  11.994  19.470  0.00  0.00    +0.000 C 
ATOM      3  C   UNL     1      -2.019  12.204  20.935  0.00  0.00    +0.000 C 
ATOM      4  C   UNL     1      -0.763  11.785  21.677  0.00  0.00    +0.000 C 
ATOM      5  N   UNL     1      -0.228  10.689  20.887  0.00  0.00    +0.000 N 
ATOM      6  C   UNL     1       0.551   9.738  21.506  0.00  0.00    +0.000 C 
ATOM      7  O   UNL     1       0.929   9.854  22.669  0.00  0.00    +0.000 OA
ATOM      8  N   UNL     1       0.928   8.691  20.719  0.00  0.00    +0.000 N 
ATOM      9  C   UNL     1      -0.721  10.747  19.497  0.00  0.00    +0.000 C 
ATOM     10  H   UNL     1       0.372   8.488  19.900  0.00  0.00    +0.000 HD
ENDROOT
BRANCH   8  11
ATOM     11  C   UNL     1       1.813   7.647  21.180  0.00  0.00    +0.000 C 
BRANCH  11  12
ATOM     12  C   UNL     1       1.957   6.536  20.175  0.00  0.00    +0.000 A 
ATOM     13  C   UNL     1       2.569   6.768  18.925  0.00  0.00    +0.000 A 
ATOM     14  C   UNL     1       2.725   5.736  17.994  0.00  0.00    +0.000 A 
ATOM     15  C   UNL     1       2.267   4.474  18.329  0.00  0.00    +0.000 A 
ATOM     16  C   UNL     1       1.642   4.237  19.558  0.00  0.00    +0.000 A 
ATOM     17  C   UNL     1       1.470   5.256  20.484  0.00  0.00    +0.000 A 
ATOM     18  C   UNL     1       1.182   2.818  19.657  0.00  0.00    +0.000 C 
ATOM     19  C   UNL     1       2.036   2.154  18.569  0.00  0.00    +0.000 C 
ATOM     20  C   UNL     1       2.300   3.228  17.502  0.00  0.00    +0.000 C 
ENDBRANCH  11  12
ENDBRANCH   8  11
BRANCH   9  21
ATOM     21  C   UNL     1       0.389  10.914  18.437  0.00  0.00    +0.000 C 
BRANCH  21  22
ATOM     22  O   UNL     1       0.733   9.692  17.799  0.00  0.00    +0.000 OA
ATOM     23  H   UNL     1       0.628   9.852  16.839  0.00  0.00    +0.000 HD
ENDBRANCH  21  22
ENDBRANCH   9  21
TORSDOF 4
ENDMDL
MODEL 5
REMARK VINA RESULT:      -6.8      3.674      8.130
REMARK  Name = 
REMARK  5 active torsions:
REMARK  status: ('A' for Active; 'I' for Inactive)
REMARK    1  A    between atoms: C_1  and  C_2
REMARK    2  A    between atoms: N_8  and  C_9
REMARK    3  A    between atoms: C_9  and  C_10
REMARK    4  A    between atoms: C_19  and  C_20
REMARK    5  A    between atoms: C_20  and  O_21
REMARK                            x       y       z     vdW  Elec       q    Type
REMARK                         _______ _______ _______ _____ _____    ______ ____
ROOT
ATOM      1  C   UNL     1      -0.626  12.969  22.455  0.00  0.00    +0.000 C 
ATOM      2  C   UNL     1      -1.107  11.907  21.479  0.00  0.00    +0.000 C 
ATOM      3  C   UNL     1      -1.539  12.500  20.138  0.00  0.00    +0.000 C 
ATOM      4  C   UNL     1      -1.436  11.318  19.192  0.00  0.00    +0.000 C 
ATOM      5  N   UNL     1      -0.291  10.568  19.677  0.00  0.00    +0.000 N 
ATOM      6  C   UNL     1       0.416   9.781  18.795  0.00  0.00    +0.000 C 
ATOM      7  O   UNL     1       0.034   9.579  17.645  0.00  0.00    +0.000 OA
ATOM      8  N   UNL     1       1.534   9.193  19.306  0.00  0.00    +0.000 N 
ATOM      9  C   UNL     1      -0.020  10.872  21.097  0.00  0.00    +0.000 C 
ATOM     10  H   UNL     1       1.959   9.608  20.123  0.00  0.00    +0.000 HD
ENDROOT
BRANCH   8  11
ATOM     11  C   UNL     1       2.346   8.271  18.547  0.00  0.00    +0.000 C 
BRANCH  11  12
ATOM     12  C   UNL     1       2.156   6.845  18.988  0.00  0.00    +0.000 A 
ATOM     13  C   UNL     1       1.847   6.540  20.331  0.00  0.00    +0.000 A 
ATOM     14  C   UNL     1       1.648   5.219  20.745  0.00  0.00    +0.000 A 
ATOM     15  C   UNL     1       1.758   4.212  19.802  0.00  0.00    +0.000 A 
ATOM     16  C   UNL     1       2.083   4.501  18.473  0.00  0.00    +0.000 A 
ATOM     17  C   UNL     1       2.295   5.807  18.054  0.00  0.00    +0.000 A 
ATOM     18  C   UNL     1       2.205   3.247  17.668  0.00  0.00    +0.000 C 
ATOM     19  C   UNL     1       1.443   2.252  18.555  0.00  0.00    +0.000 C 
ATOM     20  C   UNL     1       1.614   2.736  20.003  0.00  0.00    +0.000 C 
ENDBRANCH  11  12
ENDBRANCH   8  11
BRANCH   9  21
ATOM     21  C   UNL     1      -0.129   9.653  22.038  0.00  0.00    +0.000 C 
BRANCH  21  22
ATOM     22  O   UNL     1       0.589   9.826  23.252  0.00  0.00    +0.000 OA
ATOM     23  H   UNL     1       0.162   9.232  23.903  0.00  0.00    +0.000 HD
ENDBRANCH  21  22
ENDBRANCH   9  21
TORSDOF 4
ENDMDL
MODEL 6
REMARK VINA RESULT:      -6.8      2.327      3.920
REMARK  Name = 
REMARK  5 active torsions:
REMARK  status: ('A' for Active; 'I' for Inactive)
REMARK    1  A    between atoms: C_1  and  C_2
REMARK    2  A    between atoms: N_8  and  C_9
REMARK    3  A    between atoms: C_9  and  C_10
REMARK    4  A    between atoms: C_19  and  C_20
REMARK    5  A    between atoms: C_20  and  O_21
REMARK                            x       y       z     vdW  Elec       q    Type
REMARK                         _______ _______ _______ _____ _____    ______ ____
ROOT
ATOM      1  C   UNL     1       0.931   2.349  19.081  0.00  0.00    +0.000 C 
ATOM      2  C   UNL     1       2.208   3.167  18.958  0.00  0.00    +0.000 C 
ATOM      3  C   UNL     1       2.862   3.022  17.585  0.00  0.00    +0.000 C 
ATOM      4  C   UNL     1       3.722   4.268  17.483  0.00  0.00    +0.000 C 
ATOM      5  N   UNL     1       2.953   5.293  18.166  0.00  0.00    +0.000 N 
ATOM      6  C   UNL     1       3.136   6.612  17.815  0.00  0.00    +0.000 C 
ATOM      7  O   UNL     1       4.025   6.968  17.046  0.00  0.00    +0.000 OA
ATOM      8  N   UNL     1       2.304   7.499  18.429  0.00  0.00    +0.000 N 
ATOM      9  C   UNL     1       1.987   4.693  19.108  0.00  0.00    +0.000 C 
ATOM     10  H   UNL     1       1.430   7.154  18.801  0.00  0.00    +0.000 HD
ENDROOT
BRANCH   8  11
ATOM     11  C   UNL     1       2.412   8.928  18.242  0.00  0.00    +0.000 C 
BRANCH  11  12
ATOM     12  C   UNL     1       1.106   9.635  18.482  0.00  0.00    +0.000 A 
ATOM     13  C   UNL     1       0.924  10.448  19.622  0.00  0.00    +0.000 A 
ATOM     14  C   UNL     1      -0.280  11.125  19.843  0.00  0.00    +0.000 A 
ATOM     15  C   UNL     1      -1.293  10.983  18.912  0.00  0.00    +0.000 A 
ATOM     16  C   UNL     1      -1.131  10.165  17.788  0.00  0.00    +0.000 A 
ATOM     17  C   UNL     1       0.054   9.479  17.566  0.00  0.00    +0.000 A 
ATOM     18  C   UNL     1      -2.382  10.125  16.972  0.00  0.00    +0.000 C 
ATOM     19  C   UNL     1      -3.106  11.381  17.479  0.00  0.00    +0.000 C 
ATOM     20  C   UNL     1      -2.664  11.582  18.937  0.00  0.00    +0.000 C 
ENDBRANCH  11  12
ENDBRANCH   8  11
BRANCH   9  21
ATOM     21  C   UNL     1       2.209   5.093  20.583  0.00  0.00    +0.000 C 
BRANCH  21  22
ATOM     22  O   UNL     1       1.601   6.334  20.916  0.00  0.00    +0.000 OA
ATOM     23  H   UNL     1       0.658   6.132  21.090  0.00  0.00    +0.000 HD
ENDBRANCH  21  22
ENDBRANCH   9  21
TORSDOF 4
ENDMDL
MODEL 7
REMARK VINA RESULT:      -6.8      1.916      3.227
REMARK  Name = 
REMARK  5 active torsions:
REMARK  status: ('A' for Active; 'I' for Inactive)
REMARK    1  A    between atoms: C_1  and  C_2
REMARK    2  A    between atoms: N_8  and  C_9
REMARK    3  A    between atoms: C_9  and  C_10
REMARK    4  A    between atoms: C_19  and  C_20
REMARK    5  A    between atoms: C_20  and  O_21
REMARK                            x       y       z     vdW  Elec       q    Type
REMARK                         _______ _______ _______ _____ _____    ______ ____
ROOT
ATOM      1  C   UNL     1       2.755   1.919  18.263  0.00  0.00    +0.000 C 
ATOM      2  C   UNL     1       3.668   3.121  18.442  0.00  0.00    +0.000 C 
ATOM      3  C   UNL     1       4.494   3.417  17.191  0.00  0.00    +0.000 C 
ATOM      4  C   UNL     1       4.868   4.878  17.366  0.00  0.00    +0.000 C 
ATOM      5  N   UNL     1       3.711   5.470  18.013  0.00  0.00    +0.000 N 
ATOM      6  C   UNL     1       3.462   6.813  17.838  0.00  0.00    +0.000 C 
ATOM      7  O   UNL     1       4.256   7.559  17.271  0.00  0.00    +0.000 OA
ATOM      8  N   UNL     1       2.304   7.268  18.393  0.00  0.00    +0.000 N 
ATOM      9  C   UNL     1       2.910   4.445  18.712  0.00  0.00    +0.000 C 
ATOM     10  H   UNL     1       1.568   6.599  18.575  0.00  0.00    +0.000 HD
ENDROOT
BRANCH   8  11
ATOM     11  C   UNL     1       1.926   8.662  18.378  0.00  0.00    +0.000 C 
BRANCH  11  12
ATOM     12  C   UNL     1       1.215   9.075  19.638  0.00  0.00    +0.000 A 
ATOM     13  C   UNL     1       1.366   8.332  20.828  0.00  0.00    +0.000 A 
ATOM     14  C   UNL     1       0.725   8.721  22.010  0.00  0.00    +0.000 A 
ATOM     15  C   UNL     1      -0.062   9.859  21.986  0.00  0.00    +0.000 A 
ATOM     16  C   UNL     1      -0.233  10.592  20.807  0.00  0.00    +0.000 A 
ATOM     17  C   UNL     1       0.387  10.209  19.627  0.00  0.00    +0.000 A 
ATOM     18  C   UNL     1      -1.173  11.735  21.021  0.00  0.00    +0.000 C 
ATOM     19  C   UNL     1      -1.136  11.864  22.550  0.00  0.00    +0.000 C 
ATOM     20  C   UNL     1      -0.857  10.458  23.103  0.00  0.00    +0.000 C 
ENDBRANCH  11  12
ENDBRANCH   8  11
BRANCH   9  21
ATOM     21  C   UNL     1       2.796   4.661  20.237  0.00  0.00    +0.000 C 
BRANCH  21  22
ATOM     22  O   UNL     1       1.477   4.987  20.652  0.00  0.00    +0.000 OA
ATOM     23  H   UNL     1       1.032   5.358  19.863  0.00  0.00    +0.000 HD
ENDBRANCH  21  22
ENDBRANCH   9  21
TORSDOF 4
ENDMDL
MODEL 8
REMARK VINA RESULT:      -6.7      0.715      1.587
REMARK  Name = 
REMARK  5 active torsions:
REMARK  status: ('A' for Active; 'I' for Inactive)
REMARK    1  A    between atoms: C_1  and  C_2
REMARK    2  A    between atoms: N_8  and  C_9
REMARK    3  A    between atoms: C_9  and  C_10
REMARK    4  A    between atoms: C_19  and  C_20
REMARK    5  A    between atoms: C_20  and  O_21
REMARK                            x       y       z     vdW  Elec       q    Type
REMARK                         _______ _______ _______ _____ _____    ______ ____
ROOT
ATOM      1  C   UNL     1       5.565   4.254  14.090  0.00  0.00    +0.000 C 
ATOM      2  C   UNL     1       5.899   3.880  15.527  0.00  0.00    +0.000 C 
ATOM      3  C   UNL     1       7.045   4.716  16.094  0.00  0.00    +0.000 C 
ATOM      4  C   UNL     1       6.843   4.600  17.594  0.00  0.00    +0.000 C 
ATOM      5  N   UNL     1       5.401   4.562  17.760  0.00  0.00    +0.000 N 
ATOM      6  C   UNL     1       4.853   4.999  18.946  0.00  0.00    +0.000 C 
ATOM      7  O   UNL     1       5.543   5.289  19.920  0.00  0.00    +0.000 OA
ATOM      8  N   UNL     1       3.491   5.027  18.983  0.00  0.00    +0.000 N 
ATOM      9  C   UNL     1       4.734   4.119  16.520  0.00  0.00    +0.000 C 
ATOM     10  H   UNL     1       2.992   5.072  18.105  0.00  0.00    +0.000 HD
ENDROOT
BRANCH   8  11
ATOM     11  C   UNL     1       2.750   5.379  20.172  0.00  0.00    +0.000 C 
BRANCH  11  12
ATOM     12  C   UNL     1       2.144   6.754  20.080  0.00  0.00    +0.000 A 
ATOM     13  C   UNL     1       1.381   7.279  21.145  0.00  0.00    +0.000 A 
ATOM     14  C   UNL     1       0.832   8.563  21.077  0.00  0.00    +0.000 A 
ATOM     15  C   UNL     1       1.058   9.314  19.937  0.00  0.00    +0.000 A 
ATOM     16  C   UNL     1       1.797   8.797  18.868  0.00  0.00    +0.000 A 
ATOM     17  C   UNL     1       2.336   7.519  18.919  0.00  0.00    +0.000 A 
ATOM     18  C   UNL     1       1.847   9.769  17.733  0.00  0.00    +0.000 C 
ATOM     19  C   UNL     1       1.478  11.076  18.449  0.00  0.00    +0.000 C 
ATOM     20  C   UNL     1       0.563  10.690  19.622  0.00  0.00    +0.000 C 
ENDBRANCH  11  12
ENDBRANCH   8  11
BRANCH   9  21
ATOM     21  C   UNL     1       3.921   2.815  16.668  0.00  0.00    +0.000 C 
BRANCH  21  22
ATOM     22  O   UNL     1       2.549   3.048  16.954  0.00  0.00    +0.000 OA
ATOM     23  H   UNL     1       2.095   3.073  16.086  0.00  0.00    +0.000 HD
ENDBRANCH  21  22
ENDBRANCH   9  21
TORSDOF 4
ENDMDL
MODEL 9
REMARK VINA RESULT:      -6.7      2.662      7.321
REMARK  Name = 
REMARK  5 active torsions:
REMARK  status: ('A' for Active; 'I' for Inactive)
REMARK    1  A    between atoms: C_1  and  C_2
REMARK    2  A    between atoms: N_8  and  C_9
REMARK    3  A    between atoms: C_9  and  C_10
REMARK    4  A    between atoms: C_19  and  C_20
REMARK    5  A    between atoms: C_20  and  O_21
REMARK                            x       y       z     vdW  Elec       q    Type
REMARK                         _______ _______ _______ _____ _____    ______ ____
ROOT
ATOM      1  C   UNL     1      -1.252  12.051  18.065  0.00  0.00    +0.000 C 
ATOM      2  C   UNL     1      -0.209  11.788  19.140  0.00  0.00    +0.000 C 
ATOM      3  C   UNL     1      -0.804  11.815  20.547  0.00  0.00    +0.000 C 
ATOM      4  C   UNL     1       0.200  11.017  21.359  0.00  0.00    +0.000 C 
ATOM      5  N   UNL     1       0.663   9.988  20.445  0.00  0.00    +0.000 N 
ATOM      6  C   UNL     1       1.133   8.800  20.959  0.00  0.00    +0.000 C 
ATOM      7  O   UNL     1       1.307   8.629  22.163  0.00  0.00    +0.000 OA
ATOM      8  N   UNL     1       1.452   7.850  20.034  0.00  0.00    +0.000 N 
ATOM      9  C   UNL     1       0.450  10.389  19.040  0.00  0.00    +0.000 C 
ATOM     10  H   UNL     1       1.026   7.915  19.120  0.00  0.00    +0.000 HD
ENDROOT
BRANCH   8  11
ATOM     11  C   UNL     1       2.035   6.578  20.392  0.00  0.00    +0.000 C 
BRANCH  11  12
ATOM     12  C   UNL     1       2.773   5.946  19.242  0.00  0.00    +0.000 A 
ATOM     13  C   UNL     1       2.506   4.614  18.858  0.00  0.00    +0.000 A 
ATOM     14  C   UNL     1       3.172   4.026  17.778  0.00  0.00    +0.000 A 
ATOM     15  C   UNL     1       4.101   4.784  17.088  0.00  0.00    +0.000 A 
ATOM     16  C   UNL     1       4.387   6.098  17.471  0.00  0.00    +0.000 A 
ATOM     17  C   UNL     1       3.742   6.688  18.549  0.00  0.00    +0.000 A 
ATOM     18  C   UNL     1       5.465   6.681  16.615  0.00  0.00    +0.000 C 
ATOM     19  C   UNL     1       5.420   5.741  15.403  0.00  0.00    +0.000 C 
ATOM     20  C   UNL     1       4.949   4.374  15.925  0.00  0.00    +0.000 C 
ENDBRANCH  11  12
ENDBRANCH   8  11
BRANCH   9  21
ATOM     21  C   UNL     1       1.746  10.499  18.209  0.00  0.00    +0.000 C 
BRANCH  21  22
ATOM     22  O   UNL     1       1.910   9.423  17.295  0.00  0.00    +0.000 OA
ATOM     23  H   UNL     1       2.803   9.533  16.909  0.00  0.00    +0.000 HD
ENDBRANCH  21  22
ENDBRANCH   9  21
TORSDOF 4
ENDMDL
