MODEL 1
REMARK VINA RESULT:      -7.7      0.000      0.000
REMARK  Name = 
REMARK  5 active torsions:
REMARK  status: ('A' for Active; 'I' for Inactive)
REMARK    1  A    between atoms: C_2  and  O_3
REMARK    2  A    between atoms: C_2  and  C_13
REMARK    3  A    between atoms: O_3  and  C_4
REMARK    4  A    between atoms: C_4  and  C_5
REMARK    5  A    between atoms: C_5  and  N_6
REMARK                            x       y       z     vdW  Elec       q    Type
REMARK                         _______ _______ _______ _____ _____    ______ ____
ROOT
ATOM      1  O   UNL     1       4.264   6.507  17.858  0.00  0.00    +0.000 OA
ATOM      2  C   UNL     1       3.092   6.258  18.113  0.00  0.00    +0.000 C 
ENDROOT
BRANCH   2   3
ATOM      3  C   UNL     1       2.625   4.967  18.802  0.00  0.00    +0.000 C 
ATOM      4  C   UNL     1       3.874   4.100  19.094  0.00  0.00    +0.000 C 
ATOM      5  C   UNL     1       3.473   2.763  19.740  0.00  0.00    +0.000 C 
ATOM      6  C   UNL     1       2.728   3.040  21.055  0.00  0.00    +0.000 C 
ATOM      7  C   UNL     1       1.464   3.873  20.779  0.00  0.00    +0.000 C 
ATOM      8  C   UNL     1       1.867   5.212  20.129  0.00  0.00    +0.000 C 
ATOM      9  C   UNL     1       0.547   3.094  19.821  0.00  0.00    +0.000 C 
ATOM     10  C   UNL     1       1.282   2.825  18.498  0.00  0.00    +0.000 C 
ATOM     11  C   UNL     1       1.688   4.169  17.860  0.00  0.00    +0.000 C 
ATOM     12  C   UNL     1       2.544   1.996  18.785  0.00  0.00    +0.000 C 
ENDBRANCH   2   3
BRANCH   2  13
ATOM     13  O   UNL     1       2.070   7.143  17.928  0.00  0.00    +0.000 OA
BRANCH  13  14
ATOM     14  C   UNL     1       2.395   8.534  18.160  0.00  0.00    +0.000 C 
BRANCH  14  15
ATOM     15  C   UNL     1       1.153   9.448  18.133  0.00  0.00    +0.000 C 
BRANCH  15  16
ATOM     16  N   UNL     1       0.511   9.693  19.454  0.00  0.00    +0.000 NA
ATOM     17  C   UNL     1       1.110   8.896  20.531  0.00  0.00    +0.000 C 
ATOM     18  C   UNL     1       0.087   8.574  21.626  0.00  0.00    +0.000 C 
ATOM     19  C   UNL     1      -0.158   9.683  22.644  0.00  0.00    +0.000 C 
ATOM     20  C   UNL     1      -0.637  10.996  22.038  0.00  0.00    +0.000 C 
ATOM     21  C   UNL     1       0.428  11.649  21.170  0.00  0.00    +0.000 C 
ATOM     22  C   UNL     1       0.490  11.144  19.722  0.00  0.00    +0.000 C 
ENDBRANCH  15  16
ENDBRANCH  14  15
ENDBRANCH  13  14
ENDBRANCH   2  13
TORSDOF 5
ENDMDL
MODEL 2
REMARK VINA RESULT:      -7.6      0.157      1.611
REMARK  Name = 
REMARK  5 active torsions:
REMARK  status: ('A' for Active; 'I' for Inactive)
REMARK    1  A    between atoms: C_2  and  O_3
REMARK    2  A    between atoms: C_2  and  C_13
REMARK    3  A    between atoms: O_3  and  C_4
REMARK    4  A    between atoms: C_4  and  C_5
REMARK    5  A    between atoms: C_5  and  N_6
REMARK                            x       y       z     vdW  Elec       q    Type
REMARK                         _______ _______ _______ _____ _____    ______ ____
ROOT
ATOM      1  O   UNL     1       4.341   6.405  18.030  0.00  0.00    +0.000 OA
ATOM      2  C   UNL     1       3.155   6.147  18.208  0.00  0.00    +0.000 C 
ENDROOT
BRANCH   2   3
ATOM      3  C   UNL     1       2.651   4.828  18.812  0.00  0.00    +0.000 C 
ATOM      4  C   UNL     1       1.906   5.157  20.128  0.00  0.00    +0.000 C 
ATOM      5  C   UNL     1       1.418   3.870  20.815  0.00  0.00    +0.000 C 
ATOM      6  C   UNL     1       0.470   3.119  19.867  0.00  0.00    +0.000 C 
ATOM      7  C   UNL     1       1.205   2.754  18.566  0.00  0.00    +0.000 C 
ATOM      8  C   UNL     1       1.696   4.045  17.880  0.00  0.00    +0.000 C 
ATOM      9  C   UNL     1       2.411   1.862  18.903  0.00  0.00    +0.000 C 
ATOM     10  C   UNL     1       3.371   2.613  19.840  0.00  0.00    +0.000 C 
ATOM     11  C   UNL     1       3.850   3.904  19.149  0.00  0.00    +0.000 C 
ATOM     12  C   UNL     1       2.626   2.975  21.135  0.00  0.00    +0.000 C 
ENDBRANCH   2   3
BRANCH   2  13
ATOM     13  O   UNL     1       2.146   7.042  18.006  0.00  0.00    +0.000 OA
BRANCH  13  14
ATOM     14  C   UNL     1       2.510   8.437  18.127  0.00  0.00    +0.000 C 
BRANCH  14  15
ATOM     15  C   UNL     1       1.286   9.376  18.108  0.00  0.00    +0.000 C 
BRANCH  15  16
ATOM     16  N   UNL     1       0.625   9.591  19.425  0.00  0.00    +0.000 NA
ATOM     17  C   UNL     1       1.270   8.843  20.511  0.00  0.00    +0.000 C 
ATOM     18  C   UNL     1       0.266   8.465  21.605  0.00  0.00    +0.000 C 
ATOM     19  C   UNL     1      -0.053   9.564  22.613  0.00  0.00    +0.000 C 
ATOM     20  C   UNL     1      -0.615  10.838  21.994  0.00  0.00    +0.000 C 
ATOM     21  C   UNL     1       0.410  11.552  21.124  0.00  0.00    +0.000 C 
ATOM     22  C   UNL     1       0.509  11.039  19.681  0.00  0.00    +0.000 C 
ENDBRANCH  15  16
ENDBRANCH  14  15
ENDBRANCH  13  14
ENDBRANCH   2  13
TORSDOF 5
ENDMDL
MODEL 3
REMARK VINA RESULT:      -7.6      5.643      6.906
REMARK  Name = 
REMARK  5 active torsions:
REMARK  status: ('A' for Active; 'I' for Inactive)
REMARK    1  A    between atoms: C_2  and  O_3
REMARK    2  A    between atoms: C_2  and  C_13
REMARK    3  A    between atoms: O_3  and  C_4
REMARK    4  A    between atoms: C_4  and  C_5
REMARK    5  A    between atoms: C_5  and  N_6
REMARK                            x       y       z     vdW  Elec       q    Type
REMARK                         _______ _______ _______ _____ _____    ______ ____
ROOT
ATOM      1  O   UNL     1       7.641   6.033  16.272  0.00  0.00    +0.000 OA
ATOM      2  C   UNL     1       6.749   6.572  16.919  0.00  0.00    +0.000 C 
ENDROOT
BRANCH   2   3
ATOM      3  C   UNL     1       5.556   5.815  17.520  0.00  0.00    +0.000 C 
ATOM      4  C   UNL     1       5.928   5.401  18.964  0.00  0.00    +0.000 C 
ATOM      5  C   UNL     1       4.792   4.589  19.610  0.00  0.00    +0.000 C 
ATOM      6  C   UNL     1       3.514   5.442  19.638  0.00  0.00    +0.000 C 
ATOM      7  C   UNL     1       3.110   5.834  18.206  0.00  0.00    +0.000 C 
ATOM      8  C   UNL     1       4.251   6.646  17.559  0.00  0.00    +0.000 C 
ATOM      9  C   UNL     1       2.860   4.558  17.386  0.00  0.00    +0.000 C 
ATOM     10  C   UNL     1       4.139   3.707  17.342  0.00  0.00    +0.000 C 
ATOM     11  C   UNL     1       5.275   4.528  16.701  0.00  0.00    +0.000 C 
ATOM     12  C   UNL     1       4.536   3.323  18.777  0.00  0.00    +0.000 C 
ENDBRANCH   2   3
BRANCH   2  13
ATOM     13  O   UNL     1       6.767   7.885  17.288  0.00  0.00    +0.000 OA
BRANCH  13  14
ATOM     14  C   UNL     1       8.056   8.409  17.685  0.00  0.00    +0.000 C 
BRANCH  14  15
ATOM     15  C   UNL     1       8.016   9.919  17.994  0.00  0.00    +0.000 C 
BRANCH  15  16
ATOM     16  N   UNL     1       9.313  10.522  18.409  0.00  0.00    +0.000 NA
ATOM     17  C   UNL     1       9.583  11.801  17.740  0.00  0.00    +0.000 C 
ATOM     18  C   UNL     1      11.087  12.039  17.570  0.00  0.00    +0.000 C 
ATOM     19  C   UNL     1      11.810  12.580  18.799  0.00  0.00    +0.000 C 
ATOM     20  C   UNL     1      11.694  11.698  20.035  0.00  0.00    +0.000 C 
ATOM     21  C   UNL     1      10.267  11.634  20.561  0.00  0.00    +0.000 C 
ATOM     22  C   UNL     1       9.368  10.593  19.881  0.00  0.00    +0.000 C 
ENDBRANCH  15  16
ENDBRANCH  14  15
ENDBRANCH  13  14
ENDBRANCH   2  13
TORSDOF 5
ENDMDL
MODEL 4
REMARK VINA RESULT:      -7.5      2.997      5.477
REMARK  Name = 
REMARK  5 active torsions:
REMARK  status: ('A' for Active; 'I' for Inactive)
REMARK    1  A    between atoms: C_2  and  O_3
REMARK    2  A    between atoms: C_2  and  C_13
REMARK    3  A    between atoms: O_3  and  C_4
REMARK    4  A    between atoms: C_4  and  C_5
REMARK    5  A    between atoms: C_5  and  N_6
REMARK                            x       y       z     vdW  Elec       q    Type
REMARK                         _______ _______ _______ _____ _____    ______ ____
ROOT
ATOM      1  O   UNL     1       1.875   7.329  20.355  0.00  0.00    +0.000 OA
ATOM      2  C   UNL     1       2.128   6.622  19.386  0.00  0.00    +0.000 C 
ENDROOT
BRANCH   2   3
ATOM      3  C   UNL     1       2.205   5.090  19.447  0.00  0.00    +0.000 C 
ATOM      4  C   UNL     1       1.869   4.537  18.040  0.00  0.00    +0.000 C 
ATOM      5  C   UNL     1       1.876   2.998  18.043  0.00  0.00    +0.000 C 
ATOM      6  C   UNL     1       3.267   2.500  18.467  0.00  0.00    +0.000 C 
ATOM      7  C   UNL     1       3.603   3.013  19.878  0.00  0.00    +0.000 C 
ATOM      8  C   UNL     1       3.593   4.555  19.875  0.00  0.00    +0.000 C 
ATOM      9  C   UNL     1       2.545   2.495  20.867  0.00  0.00    +0.000 C 
ATOM     10  C   UNL     1       1.154   3.002  20.456  0.00  0.00    +0.000 C 
ATOM     11  C   UNL     1       1.155   4.543  20.449  0.00  0.00    +0.000 C 
ATOM     12  C   UNL     1       0.829   2.486  19.044  0.00  0.00    +0.000 C 
ENDBRANCH   2   3
BRANCH   2  13
ATOM     13  O   UNL     1       2.255   7.096  18.113  0.00  0.00    +0.000 OA
BRANCH  13  14
ATOM     14  C   UNL     1       3.464   7.842  17.838  0.00  0.00    +0.000 C 
BRANCH  14  15
ATOM     15  C   UNL     1       4.107   7.458  16.489  0.00  0.00    +0.000 C 
BRANCH  15  16
ATOM     16  N   UNL     1       5.296   6.565  16.579  0.00  0.00    +0.000 NA
ATOM     17  C   UNL     1       5.731   6.340  17.962  0.00  0.00    +0.000 C 
ATOM     18  C   UNL     1       7.241   6.091  18.042  0.00  0.00    +0.000 C 
ATOM     19  C   UNL     1       7.691   4.671  17.716  0.00  0.00    +0.000 C 
ATOM     20  C   UNL     1       7.291   4.189  16.328  0.00  0.00    +0.000 C 
ATOM     21  C   UNL     1       5.783   4.039  16.187  0.00  0.00    +0.000 C 
ATOM     22  C   UNL     1       5.031   5.326  15.824  0.00  0.00    +0.000 C 
ENDBRANCH  15  16
ENDBRANCH  14  15
ENDBRANCH  13  14
ENDBRANCH   2  13
TORSDOF 5
ENDMDL
MODEL 5
REMARK VINA RESULT:      -7.4      0.483      2.133
REMARK  Name = 
REMARK  5 active torsions:
REMARK  status: ('A' for Active; 'I' for Inactive)
REMARK    1  A    between atoms: C_2  and  O_3
REMARK    2  A    between atoms: C_2  and  C_13
REMARK    3  A    between atoms: O_3  and  C_4
REMARK    4  A    between atoms: C_4  and  C_5
REMARK    5  A    between atoms: C_5  and  N_6
REMARK                            x       y       z     vdW  Elec       q    Type
REMARK                         _______ _______ _______ _____ _____    ______ ____
ROOT
ATOM      1  O   UNL     1       4.218   6.560  17.818  0.00  0.00    +0.000 OA
ATOM      2  C   UNL     1       3.088   6.224  18.154  0.00  0.00    +0.000 C 
ENDROOT
BRANCH   2   3
ATOM      3  C   UNL     1       2.738   4.827  18.687  0.00  0.00    +0.000 C 
ATOM      4  C   UNL     1       1.802   4.999  19.907  0.00  0.00    +0.000 C 
ATOM      5  C   UNL     1       1.453   3.634  20.525  0.00  0.00    +0.000 C 
ATOM      6  C   UNL     1       0.755   2.765  19.467  0.00  0.00    +0.000 C 
ATOM      7  C   UNL     1       1.685   2.555  18.260  0.00  0.00    +0.000 C 
ATOM      8  C   UNL     1       2.036   3.924  17.644  0.00  0.00    +0.000 C 
ATOM      9  C   UNL     1       2.973   1.859  18.731  0.00  0.00    +0.000 C 
ATOM     10  C   UNL     1       3.683   2.730  19.780  0.00  0.00    +0.000 C 
ATOM     11  C   UNL     1       4.024   4.099  19.157  0.00  0.00    +0.000 C 
ATOM     12  C   UNL     1       2.745   2.937  20.980  0.00  0.00    +0.000 C 
ENDBRANCH   2   3
BRANCH   2  13
ATOM     13  O   UNL     1       2.027   7.080  18.211  0.00  0.00    +0.000 OA
BRANCH  13  14
ATOM     14  C   UNL     1       2.358   8.486  18.285  0.00  0.00    +0.000 C 
BRANCH  14  15
ATOM     15  C   UNL     1       1.113   9.384  18.433  0.00  0.00    +0.000 C 
BRANCH  15  16
ATOM     16  N   UNL     1       0.779   9.791  19.826  0.00  0.00    +0.000 NA
ATOM     17  C   UNL     1      -0.528  10.450  19.926  0.00  0.00    +0.000 C 
ATOM     18  C   UNL     1      -0.560  11.462  21.077  0.00  0.00    +0.000 C 
ATOM     19  C   UNL     1      -0.800  10.875  22.463  0.00  0.00    +0.000 C 
ATOM     20  C   UNL     1       0.227   9.834  22.890  0.00  0.00    +0.000 C 
ATOM     21  C   UNL     1       0.152   8.573  22.040  0.00  0.00    +0.000 C 
ATOM     22  C   UNL     1       0.935   8.629  20.722  0.00  0.00    +0.000 C 
ENDBRANCH  15  16
ENDBRANCH  14  15
ENDBRANCH  13  14
ENDBRANCH   2  13
TORSDOF 5
ENDMDL
MODEL 6
REMARK VINA RESULT:      -7.4      4.303      7.272
REMARK  Name = 
REMARK  5 active torsions:
REMARK  status: ('A' for Active; 'I' for Inactive)
REMARK    1  A    between atoms: C_2  and  O_3
REMARK    2  A    between atoms: C_2  and  C_13
REMARK    3  A    between atoms: O_3  and  C_4
REMARK    4  A    between atoms: C_4  and  C_5
REMARK    5  A    between atoms: C_5  and  N_6
REMARK                            x       y       z     vdW  Elec       q    Type
REMARK                         _______ _______ _______ _____ _____    ______ ____
ROOT
ATOM      1  O   UNL     1       6.054   5.745  19.443  0.00  0.00    +0.000 OA
ATOM      2  C   UNL     1       5.713   4.697  18.905  0.00  0.00    +0.000 C 
ENDROOT
BRANCH   2   3
ATOM      3  C   UNL     1       4.269   4.176  18.896  0.00  0.00    +0.000 C 
ATOM      4  C   UNL     1       3.890   3.838  17.433  0.00  0.00    +0.000 C 
ATOM      5  C   UNL     1       2.431   3.357  17.344  0.00  0.00    +0.000 C 
ATOM      6  C   UNL     1       2.258   2.104  18.217  0.00  0.00    +0.000 C 
ATOM      7  C   UNL     1       2.598   2.430  19.681  0.00  0.00    +0.000 C 
ATOM      8  C   UNL     1       4.060   2.915  19.769  0.00  0.00    +0.000 C 
ATOM      9  C   UNL     1       1.659   3.540  20.181  0.00  0.00    +0.000 C 
ATOM     10  C   UNL     1       1.838   4.802  19.321  0.00  0.00    +0.000 C 
ATOM     11  C   UNL     1       3.302   5.275  19.409  0.00  0.00    +0.000 C 
ATOM     12  C   UNL     1       1.498   4.465  17.860  0.00  0.00    +0.000 C 
ENDBRANCH   2   3
BRANCH   2  13
ATOM     13  O   UNL     1       6.545   3.927  18.147  0.00  0.00    +0.000 OA
BRANCH  13  14
ATOM     14  C   UNL     1       7.562   4.643  17.407  0.00  0.00    +0.000 C 
BRANCH  14  15
ATOM     15  C   UNL     1       6.981   5.462  16.236  0.00  0.00    +0.000 C 
BRANCH  15  16
ATOM     16  N   UNL     1       6.862   4.734  14.943  0.00  0.00    +0.000 NA
ATOM     17  C   UNL     1       5.482   4.685  14.445  0.00  0.00    +0.000 C 
ATOM     18  C   UNL     1       5.229   3.422  13.615  0.00  0.00    +0.000 C 
ATOM     19  C   UNL     1       5.701   3.483  12.166  0.00  0.00    +0.000 C 
ATOM     20  C   UNL     1       7.189   3.764  12.002  0.00  0.00    +0.000 C 
ATOM     21  C   UNL     1       7.563   5.163  12.473  0.00  0.00    +0.000 C 
ATOM     22  C   UNL     1       7.827   5.295  13.978  0.00  0.00    +0.000 C 
ENDBRANCH  15  16
ENDBRANCH  14  15
ENDBRANCH  13  14
ENDBRANCH   2  13
TORSDOF 5
ENDMDL
MODEL 7
REMARK VINA RESULT:      -7.3      1.360      2.794
REMARK  Name = 
REMARK  5 active torsions:
REMARK  status: ('A' for Active; 'I' for Inactive)
REMARK    1  A    between atoms: C_2  and  O_3
REMARK    2  A    between atoms: C_2  and  C_13
REMARK    3  A    between atoms: O_3  and  C_4
REMARK    4  A    between atoms: C_4  and  C_5
REMARK    5  A    between atoms: C_5  and  N_6
REMARK                            x       y       z     vdW  Elec       q    Type
REMARK                         _______ _______ _______ _____ _____    ______ ____
ROOT
ATOM      1  O   UNL     1       2.941   7.383  18.775  0.00  0.00    +0.000 OA
ATOM      2  C   UNL     1       2.285   6.655  19.512  0.00  0.00    +0.000 C 
ENDROOT
BRANCH   2   3
ATOM      3  C   UNL     1       2.277   5.123  19.406  0.00  0.00    +0.000 C 
ATOM      4  C   UNL     1       1.299   4.574  20.473  0.00  0.00    +0.000 C 
ATOM      5  C   UNL     1       1.281   3.035  20.458  0.00  0.00    +0.000 C 
ATOM      6  C   UNL     1       0.843   2.549  19.068  0.00  0.00    +0.000 C 
ATOM      7  C   UNL     1       1.825   3.057  17.998  0.00  0.00    +0.000 C 
ATOM      8  C   UNL     1       1.844   4.599  18.016  0.00  0.00    +0.000 C 
ATOM      9  C   UNL     1       3.233   2.524  18.312  0.00  0.00    +0.000 C 
ATOM     10  C   UNL     1       3.682   3.019  19.696  0.00  0.00    +0.000 C 
ATOM     11  C   UNL     1       3.691   4.560  19.707  0.00  0.00    +0.000 C 
ATOM     12  C   UNL     1       2.693   2.508  20.756  0.00  0.00    +0.000 C 
ENDBRANCH   2   3
BRANCH   2  13
ATOM     13  O   UNL     1       1.578   7.103  20.588  0.00  0.00    +0.000 OA
BRANCH  13  14
ATOM     14  C   UNL     1       1.435   8.539  20.692  0.00  0.00    +0.000 C 
BRANCH  14  15
ATOM     15  C   UNL     1       1.128   9.004  22.131  0.00  0.00    +0.000 C 
BRANCH  15  16
ATOM     16  N   UNL     1       0.582  10.384  22.253  0.00  0.00    +0.000 NA
ATOM     17  C   UNL     1       0.376  11.029  20.951  0.00  0.00    +0.000 C 
ATOM     18  C   UNL     1       0.535  12.551  21.047  0.00  0.00    +0.000 C 
ATOM     19  C   UNL     1      -0.684  13.307  21.564  0.00  0.00    +0.000 C 
ATOM     20  C   UNL     1      -1.149  12.877  22.949  0.00  0.00    +0.000 C 
ATOM     21  C   UNL     1      -1.685  11.453  22.957  0.00  0.00    +0.000 C 
ATOM     22  C   UNL     1      -0.622  10.357  23.106  0.00  0.00    +0.000 C 
ENDBRANCH  15  16
ENDBRANCH  14  15
ENDBRANCH  13  14
ENDBRANCH   2  13
TORSDOF 5
ENDMDL
MODEL 8
REMARK VINA RESULT:      -7.3      4.197      7.179
REMARK  Name = 
REMARK  5 active torsions:
REMARK  status: ('A' for Active; 'I' for Inactive)
REMARK    1  A    between atoms: C_2  and  O_3
REMARK    2  A    between atoms: C_2  and  C_13
REMARK    3  A    between atoms: O_3  and  C_4
REMARK    4  A    between atoms: C_4  and  C_5
REMARK    5  A    between atoms: C_5  and  N_6
REMARK                            x       y       z     vdW  Elec       q    Type
REMARK                         _______ _______ _______ _____ _____    ______ ____
ROOT
ATOM      1  O   UNL     1       6.361   5.168  19.809  0.00  0.00    +0.000 OA
ATOM      2  C   UNL     1       5.820   4.543  18.904  0.00  0.00    +0.000 C 
ENDROOT
BRANCH   2   3
ATOM      3  C   UNL     1       4.353   4.091  18.939  0.00  0.00    +0.000 C 
ATOM      4  C   UNL     1       3.998   3.505  17.552  0.00  0.00    +0.000 C 
ATOM      5  C   UNL     1       2.520   3.079  17.501  0.00  0.00    +0.000 C 
ATOM      6  C   UNL     1       2.262   2.018  18.583  0.00  0.00    +0.000 C 
ATOM      7  C   UNL     1       2.578   2.596  19.973  0.00  0.00    +0.000 C 
ATOM      8  C   UNL     1       4.058   3.025  20.022  0.00  0.00    +0.000 C 
ATOM      9  C   UNL     1       1.681   3.820  20.225  0.00  0.00    +0.000 C 
ATOM     10  C   UNL     1       1.945   4.890  19.154  0.00  0.00    +0.000 C 
ATOM     11  C   UNL     1       3.428   5.307  19.205  0.00  0.00    +0.000 C 
ATOM     12  C   UNL     1       1.629   4.302  17.769  0.00  0.00    +0.000 C 
ENDBRANCH   2   3
BRANCH   2  13
ATOM     13  O   UNL     1       6.414   4.276  17.705  0.00  0.00    +0.000 OA
BRANCH  13  14
ATOM     14  C   UNL     1       7.028   5.407  17.043  0.00  0.00    +0.000 C 
BRANCH  14  15
ATOM     15  C   UNL     1       6.099   6.063  16.001  0.00  0.00    +0.000 C 
BRANCH  15  16
ATOM     16  N   UNL     1       6.183   5.499  14.625  0.00  0.00    +0.000 NA
ATOM     17  C   UNL     1       7.539   5.057  14.276  0.00  0.00    +0.000 C 
ATOM     18  C   UNL     1       7.799   5.179  12.771  0.00  0.00    +0.000 C 
ATOM     19  C   UNL     1       7.256   4.040  11.916  0.00  0.00    +0.000 C 
ATOM     20  C   UNL     1       5.752   3.829  12.034  0.00  0.00    +0.000 C 
ATOM     21  C   UNL     1       5.349   3.348  13.420  0.00  0.00    +0.000 C 
ATOM     22  C   UNL     1       5.152   4.456  14.463  0.00  0.00    +0.000 C 
ENDBRANCH  15  16
ENDBRANCH  14  15
ENDBRANCH  13  14
ENDBRANCH   2  13
TORSDOF 5
ENDMDL
MODEL 9
REMARK VINA RESULT:      -7.3      0.872      1.128
REMARK  Name = 
REMARK  5 active torsions:
REMARK  status: ('A' for Active; 'I' for Inactive)
REMARK    1  A    between atoms: C_2  and  O_3
REMARK    2  A    between atoms: C_2  and  C_13
REMARK    3  A    between atoms: O_3  and  C_4
REMARK    4  A    between atoms: C_4  and  C_5
REMARK    5  A    between atoms: C_5  and  N_6
REMARK                            x       y       z     vdW  Elec       q    Type
REMARK                         _______ _______ _______ _____ _____    ______ ____
ROOT
ATOM      1  O   UNL     1       4.365   6.461  18.549  0.00  0.00    +0.000 OA
ATOM      2  C   UNL     1       3.201   6.080  18.493  0.00  0.00    +0.000 C 
ENDROOT
BRANCH   2   3
ATOM      3  C   UNL     1       2.748   4.666  18.886  0.00  0.00    +0.000 C 
ATOM      4  C   UNL     1       3.945   3.948  19.555  0.00  0.00    +0.000 C 
ATOM      5  C   UNL     1       3.574   2.501  19.928  0.00  0.00    +0.000 C 
ATOM      6  C   UNL     1       2.384   2.519  20.899  0.00  0.00    +0.000 C 
ATOM      7  C   UNL     1       1.173   3.200  20.237  0.00  0.00    +0.000 C 
ATOM      8  C   UNL     1       1.547   4.649  19.861  0.00  0.00    +0.000 C 
ATOM      9  C   UNL     1       0.791   2.424  18.966  0.00  0.00    +0.000 C 
ATOM     10  C   UNL     1       1.974   2.414  17.984  0.00  0.00    +0.000 C 
ATOM     11  C   UNL     1       2.345   3.866  17.620  0.00  0.00    +0.000 C 
ATOM     12  C   UNL     1       3.178   1.735  18.656  0.00  0.00    +0.000 C 
ENDBRANCH   2   3
BRANCH   2  13
ATOM     13  O   UNL     1       2.149   6.895  18.193  0.00  0.00    +0.000 OA
BRANCH  13  14
ATOM     14  C   UNL     1       2.127   8.169  18.879  0.00  0.00    +0.000 C 
BRANCH  14  15
ATOM     15  C   UNL     1       1.783   8.033  20.377  0.00  0.00    +0.000 C 
BRANCH  15  16
ATOM     16  N   UNL     1       0.772   8.998  20.891  0.00  0.00    +0.000 NA
ATOM     17  C   UNL     1       0.879   9.213  22.339  0.00  0.00    +0.000 C 
ATOM     18  C   UNL     1      -0.481   9.557  22.957  0.00  0.00    +0.000 C 
ATOM     19  C   UNL     1      -0.916  11.012  22.818  0.00  0.00    +0.000 C 
ATOM     20  C   UNL     1      -1.008  11.506  21.381  0.00  0.00    +0.000 C 
ATOM     21  C   UNL     1       0.356  11.561  20.706  0.00  0.00    +0.000 C 
ATOM     22  C   UNL     1       0.835  10.239  20.094  0.00  0.00    +0.000 C 
ENDBRANCH  15  16
ENDBRANCH  14  15
ENDBRANCH  13  14
ENDBRANCH   2  13
TORSDOF 5
ENDMDL
