MODEL 1
REMARK VINA RESULT:      -8.0      0.000      0.000
REMARK  Name = 
REMARK  7 active torsions:
REMARK  status: ('A' for Active; 'I' for Inactive)
REMARK    1  A    between atoms: C_1  and  C_2
REMARK    2  A    between atoms: N_6  and  C_7
REMARK    3  A    between atoms: C_7  and  C_8
REMARK    4  A    between atoms: C_8  and  C_9
REMARK    5  A    between atoms: C_9  and  N_10
REMARK    6  A    between atoms: C_11  and  C_13
REMARK    7  A    between atoms: N_15  and  C_16
REMARK                            x       y       z     vdW  Elec       q    Type
REMARK                         _______ _______ _______ _____ _____    ______ ____
ROOT
ATOM      1  C   UNL     1      -0.236  11.318  19.351  0.00  0.00    +0.000 A 
ATOM      2  N   UNL     1      -0.286  11.676  20.646  0.00  0.00    +0.000 NA
ATOM      3  N   UNL     1      -1.564  12.071  20.849  0.00  0.00    +0.000 N 
ATOM      4  C   UNL     1      -1.932  12.464  22.189  0.00  0.00    +0.000 C 
ATOM      5  C   UNL     1      -2.348  12.004  19.718  0.00  0.00    +0.000 A 
ATOM      6  C   UNL     1      -1.502  11.497  18.741  0.00  0.00    +0.000 A 
ATOM      7  C   UNL     1      -1.905  11.214  17.342  0.00  0.00    +0.000 C 
ATOM      8  S   UNL     1      -3.618  10.710  17.268  0.00  0.00    +0.000 S 
ATOM      9  O   UNL     1      -3.760   9.376  17.817  0.00  0.00    +0.000 OA
ATOM     10  O   UNL     1      -4.112  11.022  15.936  0.00  0.00    +0.000 OA
ATOM     11  C   UNL     1      -4.453  11.805  18.398  0.00  0.00    +0.000 A 
ATOM     12  C   UNL     1      -5.785  12.133  18.109  0.00  0.00    +0.000 A 
ATOM     13  C   UNL     1      -6.476  12.990  18.955  0.00  0.00    +0.000 A 
ATOM     14  C   UNL     1      -5.834  13.514  20.073  0.00  0.00    +0.000 A 
ATOM     15  C   UNL     1      -4.496  13.194  20.346  0.00  0.00    +0.000 A 
ATOM     16  C   UNL     1      -3.772  12.329  19.516  0.00  0.00    +0.000 A 
ENDROOT
BRANCH   1  18
ATOM     17  N   UNL     1       1.009   9.460  18.498  0.00  0.00    +0.000 N 
ATOM     18  C   UNL     1       0.998  10.819  18.717  0.00  0.00    +0.000 C 
ATOM     19  O   UNL     1       1.929  11.563  18.418  0.00  0.00    +0.000 OA
ATOM     20  H   UNL     1       0.192   8.949  18.824  0.00  0.00    +0.000 HD
BRANCH  17  21
ATOM     21  C   UNL     1       2.137   8.778  17.899  0.00  0.00    +0.000 C 
BRANCH  21  22
ATOM     22  C   UNL     1       2.605   7.607  18.759  0.00  0.00    +0.000 C 
BRANCH  22  23
ATOM     23  C   UNL     1       2.857   6.332  17.939  0.00  0.00    +0.000 C 
BRANCH  23  29
ATOM     24  C   UNL     1       2.472   1.980  18.520  0.00  0.00    +0.000 C 
ATOM     25  C   UNL     1       1.270   2.930  18.570  0.00  0.00    +0.000 C 
ATOM     26  C   UNL     1       0.795   3.164  20.009  0.00  0.00    +0.000 C 
ATOM     27  C   UNL     1       1.778   4.034  20.780  0.00  0.00    +0.000 C 
ATOM     28  C   UNL     1       2.095   5.325  20.026  0.00  0.00    +0.000 C 
ATOM     29  N   UNL     1       2.564   5.075  18.651  0.00  0.00    +0.000 NA
ATOM     30  C   UNL     1       1.579   4.279  17.896  0.00  0.00    +0.000 C 
ENDBRANCH  23  29
ENDBRANCH  22  23
ENDBRANCH  21  22
ENDBRANCH  17  21
ENDBRANCH   1  18
TORSDOF 5
ENDMDL
MODEL 2
REMARK VINA RESULT:      -7.7      2.716      3.254
REMARK  Name = 
REMARK  7 active torsions:
REMARK  status: ('A' for Active; 'I' for Inactive)
REMARK    1  A    between atoms: C_1  and  C_2
REMARK    2  A    between atoms: N_6  and  C_7
REMARK    3  A    between atoms: C_7  and  C_8
REMARK    4  A    between atoms: C_8  and  C_9
REMARK    5  A    between atoms: C_9  and  N_10
REMARK    6  A    between atoms: C_11  and  C_13
REMARK    7  A    between atoms: N_15  and  C_16
REMARK                            x       y       z     vdW  Elec       q    Type
REMARK                         _______ _______ _______ _____ _____    ______ ____
ROOT
ATOM      1  C   UNL     1       1.144   9.568  19.456  0.00  0.00    +0.000 A 
ATOM      2  N   UNL     1       0.797   8.764  20.476  0.00  0.00    +0.000 NA
ATOM      3  N   UNL     1       0.067   9.547  21.304  0.00  0.00    +0.000 N 
ATOM      4  C   UNL     1      -0.497   8.926  22.479  0.00  0.00    +0.000 C 
ATOM      5  C   UNL     1      -0.054  10.848  20.867  0.00  0.00    +0.000 A 
ATOM      6  C   UNL     1       0.625  10.870  19.656  0.00  0.00    +0.000 A 
ATOM      7  C   UNL     1       0.746  12.061  18.781  0.00  0.00    +0.000 C 
ATOM      8  S   UNL     1      -0.707  13.092  18.910  0.00  0.00    +0.000 S 
ATOM      9  O   UNL     1      -1.826  12.445  18.255  0.00  0.00    +0.000 OA
ATOM     10  O   UNL     1      -0.320  14.448  18.553  0.00  0.00    +0.000 OA
ATOM     11  C   UNL     1      -1.089  13.106  20.649  0.00  0.00    +0.000 A 
ATOM     12  C   UNL     1      -1.695  14.259  21.166  0.00  0.00    +0.000 A 
ATOM     13  C   UNL     1      -2.004  14.322  22.518  0.00  0.00    +0.000 A 
ATOM     14  C   UNL     1      -1.703  13.240  23.340  0.00  0.00    +0.000 A 
ATOM     15  C   UNL     1      -1.081  12.096  22.819  0.00  0.00    +0.000 A 
ATOM     16  C   UNL     1      -0.761  11.998  21.459  0.00  0.00    +0.000 A 
ENDROOT
BRANCH   1  18
ATOM     17  N   UNL     1       2.708   7.974  18.593  0.00  0.00    +0.000 N 
ATOM     18  C   UNL     1       1.956   9.095  18.320  0.00  0.00    +0.000 C 
ATOM     19  O   UNL     1       1.955   9.664  17.231  0.00  0.00    +0.000 OA
ATOM     20  H   UNL     1       2.650   7.618  19.544  0.00  0.00    +0.000 HD
BRANCH  17  21
ATOM     21  C   UNL     1       3.581   7.366  17.610  0.00  0.00    +0.000 C 
BRANCH  21  22
ATOM     22  C   UNL     1       4.245   6.104  18.156  0.00  0.00    +0.000 C 
BRANCH  22  23
ATOM     23  C   UNL     1       3.636   5.642  19.489  0.00  0.00    +0.000 C 
BRANCH  23  29
ATOM     24  C   UNL     1       3.299   1.374  18.442  0.00  0.00    +0.000 C 
ATOM     25  C   UNL     1       2.279   2.421  17.980  0.00  0.00    +0.000 C 
ATOM     26  C   UNL     1       0.974   2.327  18.778  0.00  0.00    +0.000 C 
ATOM     27  C   UNL     1       1.160   2.834  20.201  0.00  0.00    +0.000 C 
ATOM     28  C   UNL     1       1.789   4.228  20.223  0.00  0.00    +0.000 C 
ATOM     29  N   UNL     1       3.050   4.290  19.462  0.00  0.00    +0.000 NA
ATOM     30  C   UNL     1       2.846   3.849  18.070  0.00  0.00    +0.000 C 
ENDBRANCH  23  29
ENDBRANCH  22  23
ENDBRANCH  21  22
ENDBRANCH  17  21
ENDBRANCH   1  18
TORSDOF 5
ENDMDL
MODEL 3
REMARK VINA RESULT:      -7.7      3.951      5.890
REMARK  Name = 
REMARK  7 active torsions:
REMARK  status: ('A' for Active; 'I' for Inactive)
REMARK    1  A    between atoms: C_1  and  C_2
REMARK    2  A    between atoms: N_6  and  C_7
REMARK    3  A    between atoms: C_7  and  C_8
REMARK    4  A    between atoms: C_8  and  C_9
REMARK    5  A    between atoms: C_9  and  N_10
REMARK    6  A    between atoms: C_11  and  C_13
REMARK    7  A    between atoms: N_15  and  C_16
REMARK                            x       y       z     vdW  Elec       q    Type
REMARK                         _______ _______ _______ _____ _____    ______ ____
ROOT
ATOM      1  C   UNL     1       1.898   6.591  19.845  0.00  0.00    +0.000 A 
ATOM      2  N   UNL     1       2.490   6.962  18.696  0.00  0.00    +0.000 NA
ATOM      3  N   UNL     1       2.212   8.281  18.571  0.00  0.00    +0.000 N 
ATOM      4  C   UNL     1       2.778   8.973  17.437  0.00  0.00    +0.000 C 
ATOM      5  C   UNL     1       1.435   8.779  19.593  0.00  0.00    +0.000 A 
ATOM      6  C   UNL     1       1.240   7.696  20.439  0.00  0.00    +0.000 A 
ATOM      7  C   UNL     1       0.481   7.747  21.712  0.00  0.00    +0.000 C 
ATOM      8  S   UNL     1       0.643   9.353  22.480  0.00  0.00    +0.000 S 
ATOM      9  O   UNL     1       1.982   9.508  23.011  0.00  0.00    +0.000 OA
ATOM     10  O   UNL     1      -0.521   9.555  23.329  0.00  0.00    +0.000 OA
ATOM     11  C   UNL     1       0.505  10.507  21.132  0.00  0.00    +0.000 A 
ATOM     12  C   UNL     1      -0.056  11.760  21.412  0.00  0.00    +0.000 A 
ATOM     13  C   UNL     1      -0.193  12.692  20.392  0.00  0.00    +0.000 A 
ATOM     14  C   UNL     1       0.224  12.365  19.105  0.00  0.00    +0.000 A 
ATOM     15  C   UNL     1       0.768  11.102  18.828  0.00  0.00    +0.000 A 
ATOM     16  C   UNL     1       0.926  10.141  19.836  0.00  0.00    +0.000 A 
ENDROOT
BRANCH   1  18
ATOM     17  N   UNL     1       1.551   4.255  19.451  0.00  0.00    +0.000 N 
ATOM     18  C   UNL     1       1.962   5.209  20.355  0.00  0.00    +0.000 C 
ATOM     19  O   UNL     1       2.347   4.948  21.492  0.00  0.00    +0.000 OA
ATOM     20  H   UNL     1       1.221   4.603  18.555  0.00  0.00    +0.000 HD
BRANCH  17  21
ATOM     21  C   UNL     1       1.528   2.843  19.770  0.00  0.00    +0.000 C 
BRANCH  21  22
ATOM     22  C   UNL     1       2.626   2.084  19.029  0.00  0.00    +0.000 C 
BRANCH  22  23
ATOM     23  C   UNL     1       4.037   2.480  19.491  0.00  0.00    +0.000 C 
BRANCH  23  29
ATOM     24  C   UNL     1       7.436   4.787  17.894  0.00  0.00    +0.000 C 
ATOM     25  C   UNL     1       6.056   5.409  18.134  0.00  0.00    +0.000 C 
ATOM     26  C   UNL     1       5.296   5.619  16.819  0.00  0.00    +0.000 C 
ATOM     27  C   UNL     1       4.827   4.294  16.234  0.00  0.00    +0.000 C 
ATOM     28  C   UNL     1       4.050   3.471  17.262  0.00  0.00    +0.000 C 
ATOM     29  N   UNL     1       4.806   3.268  18.511  0.00  0.00    +0.000 NA
ATOM     30  C   UNL     1       5.207   4.560  19.098  0.00  0.00    +0.000 C 
ENDBRANCH  23  29
ENDBRANCH  22  23
ENDBRANCH  21  22
ENDBRANCH  17  21
ENDBRANCH   1  18
TORSDOF 5
ENDMDL
MODEL 4
REMARK VINA RESULT:      -7.7      0.555      1.250
REMARK  Name = 
REMARK  7 active torsions:
REMARK  status: ('A' for Active; 'I' for Inactive)
REMARK    1  A    between atoms: C_1  and  C_2
REMARK    2  A    between atoms: N_6  and  C_7
REMARK    3  A    between atoms: C_7  and  C_8
REMARK    4  A    between atoms: C_8  and  C_9
REMARK    5  A    between atoms: C_9  and  N_10
REMARK    6  A    between atoms: C_11  and  C_13
REMARK    7  A    between atoms: N_15  and  C_16
REMARK                            x       y       z     vdW  Elec       q    Type
REMARK                         _______ _______ _______ _____ _____    ______ ____
ROOT
ATOM      1  C   UNL     1      -0.153  11.247  19.399  0.00  0.00    +0.000 A 
ATOM      2  N   UNL     1      -0.160  11.563  20.706  0.00  0.00    +0.000 NA
ATOM      3  N   UNL     1      -1.419  11.994  20.952  0.00  0.00    +0.000 N 
ATOM      4  C   UNL     1      -1.741  12.355  22.313  0.00  0.00    +0.000 C 
ATOM      5  C   UNL     1      -2.230  11.993  19.839  0.00  0.00    +0.000 A 
ATOM      6  C   UNL     1      -1.425  11.491  18.826  0.00  0.00    +0.000 A 
ATOM      7  C   UNL     1      -1.871  11.269  17.429  0.00  0.00    +0.000 C 
ATOM      8  S   UNL     1      -3.601  10.828  17.380  0.00  0.00    +0.000 S 
ATOM      9  O   UNL     1      -3.778   9.482  17.888  0.00  0.00    +0.000 OA
ATOM     10  O   UNL     1      -4.115  11.201  16.071  0.00  0.00    +0.000 OA
ATOM     11  C   UNL     1      -4.371  11.912  18.564  0.00  0.00    +0.000 A 
ATOM     12  C   UNL     1      -5.696  12.296  18.319  0.00  0.00    +0.000 A 
ATOM     13  C   UNL     1      -6.337  13.148  19.209  0.00  0.00    +0.000 A 
ATOM     14  C   UNL     1      -5.651  13.611  20.327  0.00  0.00    +0.000 A 
ATOM     15  C   UNL     1      -4.319  13.236  20.557  0.00  0.00    +0.000 A 
ATOM     16  C   UNL     1      -3.645  12.374  19.682  0.00  0.00    +0.000 A 
ENDROOT
BRANCH   1  18
ATOM     17  N   UNL     1       1.014   9.372  18.476  0.00  0.00    +0.000 N 
ATOM     18  C   UNL     1       1.048  10.727  18.719  0.00  0.00    +0.000 C 
ATOM     19  O   UNL     1       1.990  11.451  18.406  0.00  0.00    +0.000 OA
ATOM     20  H   UNL     1       0.195   8.877  18.817  0.00  0.00    +0.000 HD
BRANCH  17  21
ATOM     21  C   UNL     1       2.106   8.672  17.831  0.00  0.00    +0.000 C 
BRANCH  21  22
ATOM     22  C   UNL     1       2.645   7.545  18.709  0.00  0.00    +0.000 C 
BRANCH  22  23
ATOM     23  C   UNL     1       3.157   6.349  17.892  0.00  0.00    +0.000 C 
BRANCH  23  29
ATOM     24  C   UNL     1       0.892   3.477  20.351  0.00  0.00    +0.000 C 
ATOM     25  C   UNL     1       2.412   3.390  20.169  0.00  0.00    +0.000 C 
ATOM     26  C   UNL     1       2.801   2.261  19.209  0.00  0.00    +0.000 C 
ATOM     27  C   UNL     1       2.440   2.609  17.772  0.00  0.00    +0.000 C 
ATOM     28  C   UNL     1       3.001   3.972  17.367  0.00  0.00    +0.000 C 
ATOM     29  N   UNL     1       2.600   5.045  18.296  0.00  0.00    +0.000 NA
ATOM     30  C   UNL     1       3.005   4.723  19.676  0.00  0.00    +0.000 C 
ENDBRANCH  23  29
ENDBRANCH  22  23
ENDBRANCH  21  22
ENDBRANCH  17  21
ENDBRANCH   1  18
TORSDOF 5
ENDMDL
MODEL 5
REMARK VINA RESULT:      -7.7      2.071      2.757
REMARK  Name = 
REMARK  7 active torsions:
REMARK  status: ('A' for Active; 'I' for Inactive)
REMARK    1  A    between atoms: C_1  and  C_2
REMARK    2  A    between atoms: N_6  and  C_7
REMARK    3  A    between atoms: C_7  and  C_8
REMARK    4  A    between atoms: C_8  and  C_9
REMARK    5  A    between atoms: C_9  and  N_10
REMARK    6  A    between atoms: C_11  and  C_13
REMARK    7  A    between atoms: N_15  and  C_16
REMARK                            x       y       z     vdW  Elec       q    Type
REMARK                         _______ _______ _______ _____ _____    ______ ____
ROOT
ATOM      1  C   UNL     1       0.354  10.517  19.175  0.00  0.00    +0.000 A 
ATOM      2  N   UNL     1       0.470  10.830  20.478  0.00  0.00    +0.000 NA
ATOM      3  N   UNL     1      -0.711  11.407  20.803  0.00  0.00    +0.000 N 
ATOM      4  C   UNL     1      -0.898  11.802  22.180  0.00  0.00    +0.000 C 
ATOM      5  C   UNL     1      -1.588  11.502  19.746  0.00  0.00    +0.000 A 
ATOM      6  C   UNL     1      -0.916  10.909  18.685  0.00  0.00    +0.000 A 
ATOM      7  C   UNL     1      -1.476  10.743  17.322  0.00  0.00    +0.000 C 
ATOM      8  S   UNL     1      -3.246  10.509  17.389  0.00  0.00    +0.000 S 
ATOM      9  O   UNL     1      -3.546   9.192  17.917  0.00  0.00    +0.000 OA
ATOM     10  O   UNL     1      -3.797  10.941  16.114  0.00  0.00    +0.000 OA
ATOM     11  C   UNL     1      -3.803  11.675  18.614  0.00  0.00    +0.000 A 
ATOM     12  C   UNL     1      -5.087  12.213  18.454  0.00  0.00    +0.000 A 
ATOM     13  C   UNL     1      -5.563  13.133  19.378  0.00  0.00    +0.000 A 
ATOM     14  C   UNL     1      -4.755  13.511  20.446  0.00  0.00    +0.000 A 
ATOM     15  C   UNL     1      -3.465  12.982  20.591  0.00  0.00    +0.000 A 
ATOM     16  C   UNL     1      -2.956  12.047  19.679  0.00  0.00    +0.000 A 
ENDROOT
BRANCH   1  18
ATOM     17  N   UNL     1       1.678   8.558  18.801  0.00  0.00    +0.000 N 
ATOM     18  C   UNL     1       1.437   9.860  18.422  0.00  0.00    +0.000 C 
ATOM     19  O   UNL     1       2.065  10.437  17.537  0.00  0.00    +0.000 OA
ATOM     20  H   UNL     1       1.115   8.207  19.571  0.00  0.00    +0.000 HD
BRANCH  17  21
ATOM     21  C   UNL     1       2.712   7.750  18.190  0.00  0.00    +0.000 C 
BRANCH  21  22
ATOM     22  C   UNL     1       2.480   6.262  18.441  0.00  0.00    +0.000 C 
BRANCH  22  23
ATOM     23  C   UNL     1       3.740   5.543  18.948  0.00  0.00    +0.000 C 
BRANCH  23  29
ATOM     24  C   UNL     1       5.779   5.343  15.046  0.00  0.00    +0.000 C 
ATOM     25  C   UNL     1       5.976   4.284  16.135  0.00  0.00    +0.000 C 
ATOM     26  C   UNL     1       7.331   4.440  16.835  0.00  0.00    +0.000 C 
ATOM     27  C   UNL     1       7.349   5.668  17.734  0.00  0.00    +0.000 C 
ATOM     28  C   UNL     1       6.163   5.676  18.698  0.00  0.00    +0.000 C 
ATOM     29  N   UNL     1       4.870   5.540  18.002  0.00  0.00    +0.000 NA
ATOM     30  C   UNL     1       4.843   4.318  17.177  0.00  0.00    +0.000 C 
ENDBRANCH  23  29
ENDBRANCH  22  23
ENDBRANCH  21  22
ENDBRANCH  17  21
ENDBRANCH   1  18
TORSDOF 5
ENDMDL
MODEL 6
REMARK VINA RESULT:      -7.7      2.660      3.525
REMARK  Name = 
REMARK  7 active torsions:
REMARK  status: ('A' for Active; 'I' for Inactive)
REMARK    1  A    between atoms: C_1  and  C_2
REMARK    2  A    between atoms: N_6  and  C_7
REMARK    3  A    between atoms: C_7  and  C_8
REMARK    4  A    between atoms: C_8  and  C_9
REMARK    5  A    between atoms: C_9  and  N_10
REMARK    6  A    between atoms: C_11  and  C_13
REMARK    7  A    between atoms: N_15  and  C_16
REMARK                            x       y       z     vdW  Elec       q    Type
REMARK                         _______ _______ _______ _____ _____    ______ ____
ROOT
ATOM      1  C   UNL     1       1.353   8.991  19.473  0.00  0.00    +0.000 A 
ATOM      2  N   UNL     1       1.084   8.262  20.570  0.00  0.00    +0.000 NA
ATOM      3  N   UNL     1       0.337   9.074  21.354  0.00  0.00    +0.000 N 
ATOM      4  C   UNL     1      -0.153   8.528  22.598  0.00  0.00    +0.000 C 
ATOM      5  C   UNL     1       0.130  10.323  20.812  0.00  0.00    +0.000 A 
ATOM      6  C   UNL     1       0.768  10.277  19.580  0.00  0.00    +0.000 A 
ATOM      7  C   UNL     1       0.793  11.392  18.603  0.00  0.00    +0.000 C 
ATOM      8  S   UNL     1      -0.712  12.350  18.698  0.00  0.00    +0.000 S 
ATOM      9  O   UNL     1      -1.813  11.589  18.141  0.00  0.00    +0.000 OA
ATOM     10  O   UNL     1      -0.414  13.689  18.212  0.00  0.00    +0.000 OA
ATOM     11  C   UNL     1      -1.038  12.495  20.442  0.00  0.00    +0.000 A 
ATOM     12  C   UNL     1      -1.692  13.655  20.880  0.00  0.00    +0.000 A 
ATOM     13  C   UNL     1      -1.961  13.818  22.233  0.00  0.00    +0.000 A 
ATOM     14  C   UNL     1      -1.573  12.830  23.132  0.00  0.00    +0.000 A 
ATOM     15  C   UNL     1      -0.904  11.679  22.688  0.00  0.00    +0.000 A 
ATOM     16  C   UNL     1      -0.622  11.481  21.330  0.00  0.00    +0.000 A 
ENDROOT
BRANCH   1  18
ATOM     17  N   UNL     1       2.733   7.241  18.600  0.00  0.00    +0.000 N 
ATOM     18  C   UNL     1       2.153   8.466  18.352  0.00  0.00    +0.000 C 
ATOM     19  O   UNL     1       2.286   9.080  17.296  0.00  0.00    +0.000 OA
ATOM     20  H   UNL     1       2.577   6.853  19.526  0.00  0.00    +0.000 HD
BRANCH  17  21
ATOM     21  C   UNL     1       3.568   6.567  17.628  0.00  0.00    +0.000 C 
BRANCH  21  22
ATOM     22  C   UNL     1       4.928   6.201  18.217  0.00  0.00    +0.000 C 
BRANCH  22  23
ATOM     23  C   UNL     1       4.933   4.818  18.885  0.00  0.00    +0.000 C 
BRANCH  23  29
ATOM     24  C   UNL     1       0.814   3.956  20.194  0.00  0.00    +0.000 C 
ATOM     25  C   UNL     1       1.956   2.946  20.344  0.00  0.00    +0.000 C 
ATOM     26  C   UNL     1       1.859   1.826  19.302  0.00  0.00    +0.000 C 
ATOM     27  C   UNL     1       2.213   2.334  17.911  0.00  0.00    +0.000 C 
ATOM     28  C   UNL     1       3.560   3.057  17.904  0.00  0.00    +0.000 C 
ATOM     29  N   UNL     1       3.625   4.139  18.903  0.00  0.00    +0.000 NA
ATOM     30  C   UNL     1       3.335   3.625  20.254  0.00  0.00    +0.000 C 
ENDBRANCH  23  29
ENDBRANCH  22  23
ENDBRANCH  21  22
ENDBRANCH  17  21
ENDBRANCH   1  18
TORSDOF 5
ENDMDL
MODEL 7
REMARK VINA RESULT:      -7.6      2.191      2.837
REMARK  Name = 
REMARK  7 active torsions:
REMARK  status: ('A' for Active; 'I' for Inactive)
REMARK    1  A    between atoms: C_1  and  C_2
REMARK    2  A    between atoms: N_6  and  C_7
REMARK    3  A    between atoms: C_7  and  C_8
REMARK    4  A    between atoms: C_8  and  C_9
REMARK    5  A    between atoms: C_9  and  N_10
REMARK    6  A    between atoms: C_11  and  C_13
REMARK    7  A    between atoms: N_15  and  C_16
REMARK                            x       y       z     vdW  Elec       q    Type
REMARK                         _______ _______ _______ _____ _____    ______ ____
ROOT
ATOM      1  C   UNL     1      -0.898  10.626  18.544  0.00  0.00    +0.000 A 
ATOM      2  N   UNL     1      -1.516  10.376  17.375  0.00  0.00    +0.000 NA
ATOM      3  N   UNL     1      -2.740  10.940  17.502  0.00  0.00    +0.000 N 
ATOM      4  C   UNL     1      -3.621  10.876  16.359  0.00  0.00    +0.000 C 
ATOM      5  C   UNL     1      -2.951  11.530  18.728  0.00  0.00    +0.000 A 
ATOM      6  C   UNL     1      -1.754  11.351  19.409  0.00  0.00    +0.000 A 
ATOM      7  C   UNL     1      -1.481  11.851  20.778  0.00  0.00    +0.000 C 
ATOM      8  S   UNL     1      -2.363  13.375  21.082  0.00  0.00    +0.000 S 
ATOM      9  O   UNL     1      -1.756  14.452  20.325  0.00  0.00    +0.000 OA
ATOM     10  O   UNL     1      -2.556  13.494  22.519  0.00  0.00    +0.000 OA
ATOM     11  C   UNL     1      -3.971  13.109  20.366  0.00  0.00    +0.000 A 
ATOM     12  C   UNL     1      -5.058  13.763  20.963  0.00  0.00    +0.000 A 
ATOM     13  C   UNL     1      -6.334  13.580  20.447  0.00  0.00    +0.000 A 
ATOM     14  C   UNL     1      -6.514  12.746  19.348  0.00  0.00    +0.000 A 
ATOM     15  C   UNL     1      -5.425  12.081  18.766  0.00  0.00    +0.000 A 
ATOM     16  C   UNL     1      -4.124  12.248  19.259  0.00  0.00    +0.000 A 
ENDROOT
BRANCH   1  18
ATOM     17  N   UNL     1       1.049   9.449  17.800  0.00  0.00    +0.000 N 
ATOM     18  C   UNL     1       0.478  10.176  18.820  0.00  0.00    +0.000 C 
ATOM     19  O   UNL     1       1.052  10.432  19.876  0.00  0.00    +0.000 OA
ATOM     20  H   UNL     1       0.457   9.274  16.992  0.00  0.00    +0.000 HD
BRANCH  17  21
ATOM     21  C   UNL     1       2.389   8.908  17.887  0.00  0.00    +0.000 C 
BRANCH  21  22
ATOM     22  C   UNL     1       2.376   7.381  17.896  0.00  0.00    +0.000 C 
BRANCH  22  23
ATOM     23  C   UNL     1       2.549   6.794  19.305  0.00  0.00    +0.000 C 
BRANCH  23  29
ATOM     24  C   UNL     1       3.100   2.569  18.175  0.00  0.00    +0.000 C 
ATOM     25  C   UNL     1       1.737   3.269  18.116  0.00  0.00    +0.000 C 
ATOM     26  C   UNL     1       0.832   2.840  19.277  0.00  0.00    +0.000 C 
ATOM     27  C   UNL     1       1.311   3.430  20.596  0.00  0.00    +0.000 C 
ATOM     28  C   UNL     1       1.500   4.943  20.499  0.00  0.00    +0.000 C 
ATOM     29  N   UNL     1       2.386   5.331  19.386  0.00  0.00    +0.000 NA
ATOM     30  C   UNL     1       1.883   4.801  18.105  0.00  0.00    +0.000 C 
ENDBRANCH  23  29
ENDBRANCH  22  23
ENDBRANCH  21  22
ENDBRANCH  17  21
ENDBRANCH   1  18
TORSDOF 5
ENDMDL
MODEL 8
REMARK VINA RESULT:      -7.6      0.997      1.264
REMARK  Name = 
REMARK  7 active torsions:
REMARK  status: ('A' for Active; 'I' for Inactive)
REMARK    1  A    between atoms: C_1  and  C_2
REMARK    2  A    between atoms: N_6  and  C_7
REMARK    3  A    between atoms: C_7  and  C_8
REMARK    4  A    between atoms: C_8  and  C_9
REMARK    5  A    between atoms: C_9  and  N_10
REMARK    6  A    between atoms: C_11  and  C_13
REMARK    7  A    between atoms: N_15  and  C_16
REMARK                            x       y       z     vdW  Elec       q    Type
REMARK                         _______ _______ _______ _____ _____    ______ ____
ROOT
ATOM      1  C   UNL     1       0.541  10.400  19.079  0.00  0.00    +0.000 A 
ATOM      2  N   UNL     1       0.686  10.496  20.413  0.00  0.00    +0.000 NA
ATOM      3  N   UNL     1      -0.476  11.034  20.851  0.00  0.00    +0.000 N 
ATOM      4  C   UNL     1      -0.632  11.205  22.277  0.00  0.00    +0.000 C 
ATOM      5  C   UNL     1      -1.369  11.314  19.841  0.00  0.00    +0.000 A 
ATOM      6  C   UNL     1      -0.729  10.889  18.685  0.00  0.00    +0.000 A 
ATOM      7  C   UNL     1      -1.315  10.954  17.325  0.00  0.00    +0.000 C 
ATOM      8  S   UNL     1      -3.088  10.745  17.390  0.00  0.00    +0.000 S 
ATOM      9  O   UNL     1      -3.407   9.366  17.705  0.00  0.00    +0.000 OA
ATOM     10  O   UNL     1      -3.652  11.387  16.213  0.00  0.00    +0.000 OA
ATOM     11  C   UNL     1      -3.599  11.707  18.798  0.00  0.00    +0.000 A 
ATOM     12  C   UNL     1      -4.875  12.287  18.752  0.00  0.00    +0.000 A 
ATOM     13  C   UNL     1      -5.315  13.055  19.822  0.00  0.00    +0.000 A 
ATOM     14  C   UNL     1      -4.481  13.241  20.920  0.00  0.00    +0.000 A 
ATOM     15  C   UNL     1      -3.200  12.672  20.951  0.00  0.00    +0.000 A 
ATOM     16  C   UNL     1      -2.727  11.887  19.891  0.00  0.00    +0.000 A 
ENDROOT
BRANCH   1  18
ATOM     17  N   UNL     1       1.846   8.512  18.398  0.00  0.00    +0.000 N 
ATOM     18  C   UNL     1       1.597   9.853  18.208  0.00  0.00    +0.000 C 
ATOM     19  O   UNL     1       2.197  10.547  17.391  0.00  0.00    +0.000 OA
ATOM     20  H   UNL     1       1.307   8.058  19.131  0.00  0.00    +0.000 HD
BRANCH  17  21
ATOM     21  C   UNL     1       2.856   7.796  17.648  0.00  0.00    +0.000 C 
BRANCH  21  22
ATOM     22  C   UNL     1       3.557   6.749  18.510  0.00  0.00    +0.000 C 
BRANCH  22  23
ATOM     23  C   UNL     1       2.648   6.183  19.612  0.00  0.00    +0.000 C 
BRANCH  23  29
ATOM     24  C   UNL     1       3.409   1.985  18.508  0.00  0.00    +0.000 C 
ATOM     25  C   UNL     1       2.224   2.782  17.953  0.00  0.00    +0.000 C 
ATOM     26  C   UNL     1       0.905   2.368  18.616  0.00  0.00    +0.000 C 
ATOM     27  C   UNL     1       0.832   2.862  20.055  0.00  0.00    +0.000 C 
ATOM     28  C   UNL     1       1.116   4.361  20.148  0.00  0.00    +0.000 C 
ATOM     29  N   UNL     1       2.396   4.734  19.517  0.00  0.00    +0.000 NA
ATOM     30  C   UNL     1       2.433   4.299  18.109  0.00  0.00    +0.000 C 
ENDBRANCH  23  29
ENDBRANCH  22  23
ENDBRANCH  21  22
ENDBRANCH  17  21
ENDBRANCH   1  18
TORSDOF 5
ENDMDL
MODEL 9
REMARK VINA RESULT:      -7.5      3.533      4.457
REMARK  Name = 
REMARK  7 active torsions:
REMARK  status: ('A' for Active; 'I' for Inactive)
REMARK    1  A    between atoms: C_1  and  C_2
REMARK    2  A    between atoms: N_6  and  C_7
REMARK    3  A    between atoms: C_7  and  C_8
REMARK    4  A    between atoms: C_8  and  C_9
REMARK    5  A    between atoms: C_9  and  N_10
REMARK    6  A    between atoms: C_11  and  C_13
REMARK    7  A    between atoms: N_15  and  C_16
REMARK                            x       y       z     vdW  Elec       q    Type
REMARK                         _______ _______ _______ _____ _____    ______ ____
ROOT
ATOM      1  C   UNL     1       1.995   9.211  18.418  0.00  0.00    +0.000 A 
ATOM      2  N   UNL     1       2.343  10.359  17.811  0.00  0.00    +0.000 NA
ATOM      3  N   UNL     1       1.731  11.331  18.527  0.00  0.00    +0.000 N 
ATOM      4  C   UNL     1       1.974  12.699  18.132  0.00  0.00    +0.000 C 
ATOM      5  C   UNL     1       0.972  10.851  19.572  0.00  0.00    +0.000 A 
ATOM      6  C   UNL     1       1.151   9.475  19.525  0.00  0.00    +0.000 A 
ATOM      7  C   UNL     1       0.550   8.515  20.483  0.00  0.00    +0.000 C 
ATOM      8  S   UNL     1       0.389   9.255  22.101  0.00  0.00    +0.000 S 
ATOM      9  O   UNL     1       1.697   9.390  22.711  0.00  0.00    +0.000 OA
ATOM     10  O   UNL     1      -0.686   8.564  22.796  0.00  0.00    +0.000 OA
ATOM     11  C   UNL     1      -0.184  10.909  21.780  0.00  0.00    +0.000 A 
ATOM     12  C   UNL     1      -1.007  11.505  22.746  0.00  0.00    +0.000 A 
ATOM     13  C   UNL     1      -1.487  12.791  22.536  0.00  0.00    +0.000 A 
ATOM     14  C   UNL     1      -1.147  13.467  21.368  0.00  0.00    +0.000 A 
ATOM     15  C   UNL     1      -0.337  12.858  20.398  0.00  0.00    +0.000 A 
ATOM     16  C   UNL     1       0.168  11.564  20.580  0.00  0.00    +0.000 A 
ENDROOT
BRANCH   1  18
ATOM     17  N   UNL     1       3.768   7.882  17.515  0.00  0.00    +0.000 N 
ATOM     18  C   UNL     1       2.460   7.895  17.944  0.00  0.00    +0.000 C 
ATOM     19  O   UNL     1       1.732   6.906  17.936  0.00  0.00    +0.000 OA
ATOM     20  H   UNL     1       4.255   8.774  17.537  0.00  0.00    +0.000 HD
BRANCH  17  21
ATOM     21  C   UNL     1       4.404   6.687  17.000  0.00  0.00    +0.000 C 
BRANCH  21  22
ATOM     22  C   UNL     1       5.125   5.916  18.104  0.00  0.00    +0.000 C 
BRANCH  22  23
ATOM     23  C   UNL     1       4.832   4.409  18.063  0.00  0.00    +0.000 C 
BRANCH  23  29
ATOM     24  C   UNL     1       1.201   4.612  20.553  0.00  0.00    +0.000 C 
ATOM     25  C   UNL     1       2.154   3.412  20.579  0.00  0.00    +0.000 C 
ATOM     26  C   UNL     1       1.570   2.212  19.826  0.00  0.00    +0.000 C 
ATOM     27  C   UNL     1       1.575   2.448  18.322  0.00  0.00    +0.000 C 
ATOM     28  C   UNL     1       2.959   2.863  17.825  0.00  0.00    +0.000 C 
ATOM     29  N   UNL     1       3.494   4.029  18.553  0.00  0.00    +0.000 NA
ATOM     30  C   UNL     1       3.536   3.768  20.003  0.00  0.00    +0.000 C 
ENDBRANCH  23  29
ENDBRANCH  22  23
ENDBRANCH  21  22
ENDBRANCH  17  21
ENDBRANCH   1  18
TORSDOF 5
ENDMDL
