MODEL 1
REMARK VINA RESULT:      -8.5      0.000      0.000
REMARK  Name = 
REMARK  8 active torsions:
REMARK  status: ('A' for Active; 'I' for Inactive)
REMARK    1  A    between atoms: C_1  and  N_2
REMARK    2  A    between atoms: N_2  and  C_24
REMARK    3  A    between atoms: C_3  and  C_5
REMARK    4  A    between atoms: C_5  and  C_18
REMARK    5  A    between atoms: N_6  and  N_7
REMARK    6  A    between atoms: N_7  and  C_8
REMARK    7  A    between atoms: C_12  and  C_13
REMARK    8  A    between atoms: C_18  and  C_20
REMARK                            x       y       z     vdW  Elec       q    Type
REMARK                         _______ _______ _______ _____ _____    ______ ____
ROOT
ATOM      1  C   UNL     1       6.230   4.946  17.465  0.00  0.00    +0.000 C 
ATOM      2  N   UNL     1       6.433   4.330  16.336  0.00  0.00    +0.000 NA
ENDROOT
BRANCH   1   5
ATOM      3  C   UNL     1       3.404   6.041  17.563  0.00  0.00    +0.000 C 
ATOM      4  N   UNL     1       3.834   4.875  18.358  0.00  0.00    +0.000 N 
ATOM      5  C   UNL     1       5.165   4.390  18.386  0.00  0.00    +0.000 C 
ATOM      6  O   UNL     1       5.600   3.456  19.059  0.00  0.00    +0.000 OA
BRANCH   4   7
ATOM      7  C   UNL     1       2.777   4.257  19.149  0.00  0.00    +0.000 A 
ATOM      8  C   UNL     1       2.577   4.546  20.506  0.00  0.00    +0.000 A 
ATOM      9  C   UNL     1       1.563   3.925  21.251  0.00  0.00    +0.000 A 
ATOM     10  C   UNL     1       0.719   2.997  20.656  0.00  0.00    +0.000 A 
ATOM     11  C   UNL     1       0.879   2.700  19.312  0.00  0.00    +0.000 A 
ATOM     12  C   UNL     1       1.888   3.327  18.569  0.00  0.00    +0.000 A 
ENDBRANCH   4   7
ENDBRANCH   1   5
BRANCH   2  13
ATOM     13  N   UNL     1       7.427   4.749  15.514  0.00  0.00    +0.000 N 
ATOM     14  H   UNL     1       8.026   5.534  15.806  0.00  0.00    +0.000 HD
BRANCH  13  15
ATOM     15  C   UNL     1       7.186   4.714  14.125  0.00  0.00    +0.000 A 
ATOM     16  C   UNL     1       8.062   5.379  13.260  0.00  0.00    +0.000 A 
ATOM     17  C   UNL     1       7.882   5.324  11.875  0.00  0.00    +0.000 A 
ATOM     18  C   UNL     1       6.822   4.596  11.335  0.00  0.00    +0.000 A 
ATOM     19  C   UNL     1       5.949   3.895  12.173  0.00  0.00    +0.000 A 
ATOM     20  C   UNL     1       6.162   3.940  13.562  0.00  0.00    +0.000 A 
BRANCH  19  21
ATOM     21  C   UNL     1       4.786   3.108  11.624  0.00  0.00    +0.000 C 
ATOM     22  F   UNL     1       5.116   1.840  11.249  0.00  0.00    +0.000 F 
ATOM     23  F   UNL     1       3.769   2.980  12.520  0.00  0.00    +0.000 F 
ATOM     24  F   UNL     1       4.238   3.689  10.520  0.00  0.00    +0.000 F 
ENDBRANCH  19  21
ENDBRANCH  13  15
ENDBRANCH   2  13
BRANCH   1  25
ATOM     25  C   UNL     1       6.944   6.238  17.811  0.00  0.00    +0.000 C 
ATOM     26  O   UNL     1       6.683   7.256  17.166  0.00  0.00    +0.000 OA
BRANCH  25  27
ATOM     27  C   UNL     1       7.920   6.186  18.962  0.00  0.00    +0.000 C 
ATOM     28  F   UNL     1       7.338   6.095  20.187  0.00  0.00    +0.000 F 
ATOM     29  F   UNL     1       8.732   5.091  18.871  0.00  0.00    +0.000 F 
ATOM     30  F   UNL     1       8.754   7.262  18.992  0.00  0.00    +0.000 F 
ENDBRANCH  25  27
ENDBRANCH   1  25
TORSDOF 7
ENDMDL
MODEL 2
REMARK VINA RESULT:      -8.4      0.152      1.335
REMARK  Name = 
REMARK  8 active torsions:
REMARK  status: ('A' for Active; 'I' for Inactive)
REMARK    1  A    between atoms: C_1  and  N_2
REMARK    2  A    between atoms: N_2  and  C_24
REMARK    3  A    between atoms: C_3  and  C_5
REMARK    4  A    between atoms: C_5  and  C_18
REMARK    5  A    between atoms: N_6  and  N_7
REMARK    6  A    between atoms: N_7  and  C_8
REMARK    7  A    between atoms: C_12  and  C_13
REMARK    8  A    between atoms: C_18  and  C_20
REMARK                            x       y       z     vdW  Elec       q    Type
REMARK                         _______ _______ _______ _____ _____    ______ ____
ROOT
ATOM      1  C   UNL     1       6.164   4.939  17.519  0.00  0.00    +0.000 C 
ATOM      2  N   UNL     1       6.342   4.399  16.347  0.00  0.00    +0.000 NA
ENDROOT
BRANCH   1   5
ATOM      3  C   UNL     1       3.309   5.954  17.638  0.00  0.00    +0.000 C 
ATOM      4  N   UNL     1       3.768   4.777  18.402  0.00  0.00    +0.000 N 
ATOM      5  C   UNL     1       5.111   4.328  18.420  0.00  0.00    +0.000 C 
ATOM      6  O   UNL     1       5.570   3.387  19.068  0.00  0.00    +0.000 OA
BRANCH   4   7
ATOM      7  C   UNL     1       2.726   4.108  19.171  0.00  0.00    +0.000 A 
ATOM      8  C   UNL     1       1.723   3.331  18.574  0.00  0.00    +0.000 A 
ATOM      9  C   UNL     1       0.721   2.710  19.334  0.00  0.00    +0.000 A 
ATOM     10  C   UNL     1       0.696   2.849  20.715  0.00  0.00    +0.000 A 
ATOM     11  C   UNL     1       1.681   3.597  21.339  0.00  0.00    +0.000 A 
ATOM     12  C   UNL     1       2.685   4.210  20.578  0.00  0.00    +0.000 A 
ENDBRANCH   4   7
ENDBRANCH   1   5
BRANCH   2  13
ATOM     13  N   UNL     1       7.323   4.867  15.537  0.00  0.00    +0.000 N 
ATOM     14  H   UNL     1       7.851   5.707  15.817  0.00  0.00    +0.000 HD
BRANCH  13  15
ATOM     15  C   UNL     1       7.127   4.766  14.145  0.00  0.00    +0.000 A 
ATOM     16  C   UNL     1       8.054   5.355  13.277  0.00  0.00    +0.000 A 
ATOM     17  C   UNL     1       7.917   5.232  11.891  0.00  0.00    +0.000 A 
ATOM     18  C   UNL     1       6.850   4.512  11.354  0.00  0.00    +0.000 A 
ATOM     19  C   UNL     1       5.926   3.886  12.197  0.00  0.00    +0.000 A 
ATOM     20  C   UNL     1       6.095   3.998  13.588  0.00  0.00    +0.000 A 
BRANCH  19  21
ATOM     21  C   UNL     1       4.755   3.111  11.650  0.00  0.00    +0.000 C 
ATOM     22  F   UNL     1       4.183   3.688  10.556  0.00  0.00    +0.000 F 
ATOM     23  F   UNL     1       5.093   1.848  11.271  0.00  0.00    +0.000 F 
ATOM     24  F   UNL     1       3.751   2.970  12.560  0.00  0.00    +0.000 F 
ENDBRANCH  19  21
ENDBRANCH  13  15
ENDBRANCH   2  13
BRANCH   1  25
ATOM     25  C   UNL     1       6.894   6.198  17.940  0.00  0.00    +0.000 C 
ATOM     26  O   UNL     1       6.601   7.267  17.399  0.00  0.00    +0.000 OA
BRANCH  25  27
ATOM     27  C   UNL     1       7.928   6.052  19.031  0.00  0.00    +0.000 C 
ATOM     28  F   UNL     1       8.741   4.972  18.890  0.00  0.00    +0.000 F 
ATOM     29  F   UNL     1       8.767   7.129  19.063  0.00  0.00    +0.000 F 
ATOM     30  F   UNL     1       7.374   5.979  20.273  0.00  0.00    +0.000 F 
ENDBRANCH  25  27
ENDBRANCH   1  25
TORSDOF 7
ENDMDL
MODEL 3
REMARK VINA RESULT:      -8.3      0.997      1.233
REMARK  Name = 
REMARK  8 active torsions:
REMARK  status: ('A' for Active; 'I' for Inactive)
REMARK    1  A    between atoms: C_1  and  N_2
REMARK    2  A    between atoms: N_2  and  C_24
REMARK    3  A    between atoms: C_3  and  C_5
REMARK    4  A    between atoms: C_5  and  C_18
REMARK    5  A    between atoms: N_6  and  N_7
REMARK    6  A    between atoms: N_7  and  C_8
REMARK    7  A    between atoms: C_12  and  C_13
REMARK    8  A    between atoms: C_18  and  C_20
REMARK                            x       y       z     vdW  Elec       q    Type
REMARK                         _______ _______ _______ _____ _____    ______ ____
ROOT
ATOM      1  C   UNL     1       6.409   4.697  17.730  0.00  0.00    +0.000 C 
ATOM      2  N   UNL     1       6.393   4.362  16.471  0.00  0.00    +0.000 NA
ENDROOT
BRANCH   1   5
ATOM      3  C   UNL     1       3.608   5.833  17.482  0.00  0.00    +0.000 C 
ATOM      4  N   UNL     1       3.942   4.732  18.406  0.00  0.00    +0.000 N 
ATOM      5  C   UNL     1       5.255   4.234  18.593  0.00  0.00    +0.000 C 
ATOM      6  O   UNL     1       5.609   3.353  19.377  0.00  0.00    +0.000 OA
BRANCH   4   7
ATOM      7  C   UNL     1       2.807   4.195  19.147  0.00  0.00    +0.000 A 
ATOM      8  C   UNL     1       2.585   4.474  20.503  0.00  0.00    +0.000 A 
ATOM      9  C   UNL     1       1.494   3.932  21.198  0.00  0.00    +0.000 A 
ATOM     10  C   UNL     1       0.592   3.096  20.554  0.00  0.00    +0.000 A 
ATOM     11  C   UNL     1       0.773   2.812  19.210  0.00  0.00    +0.000 A 
ATOM     12  C   UNL     1       1.860   3.360  18.516  0.00  0.00    +0.000 A 
ENDBRANCH   4   7
ENDBRANCH   1   5
BRANCH   2  13
ATOM     13  N   UNL     1       7.442   4.693  15.678  0.00  0.00    +0.000 N 
ATOM     14  H   UNL     1       8.107   5.413  15.994  0.00  0.00    +0.000 HD
BRANCH  13  15
ATOM     15  C   UNL     1       7.232   4.697  14.283  0.00  0.00    +0.000 A 
ATOM     16  C   UNL     1       8.124   5.391  13.457  0.00  0.00    +0.000 A 
ATOM     17  C   UNL     1       7.974   5.375  12.068  0.00  0.00    +0.000 A 
ATOM     18  C   UNL     1       6.930   4.659  11.484  0.00  0.00    +0.000 A 
ATOM     19  C   UNL     1       6.041   3.931  12.282  0.00  0.00    +0.000 A 
ATOM     20  C   UNL     1       6.224   3.936  13.675  0.00  0.00    +0.000 A 
BRANCH  19  21
ATOM     21  C   UNL     1       4.895   3.156  11.684  0.00  0.00    +0.000 C 
ATOM     22  F   UNL     1       5.232   1.891  11.306  0.00  0.00    +0.000 F 
ATOM     23  F   UNL     1       3.848   3.021  12.544  0.00  0.00    +0.000 F 
ATOM     24  F   UNL     1       4.387   3.752  10.570  0.00  0.00    +0.000 F 
ENDBRANCH  19  21
ENDBRANCH  13  15
ENDBRANCH   2  13
BRANCH   1  25
ATOM     25  C   UNL     1       7.475   5.610  18.302  0.00  0.00    +0.000 C 
ATOM     26  O   UNL     1       8.279   5.152  19.117  0.00  0.00    +0.000 OA
BRANCH  25  27
ATOM     27  C   UNL     1       7.489   7.035  17.801  0.00  0.00    +0.000 C 
ATOM     28  F   UNL     1       7.963   7.179  16.536  0.00  0.00    +0.000 F 
ATOM     29  F   UNL     1       6.228   7.559  17.771  0.00  0.00    +0.000 F 
ATOM     30  F   UNL     1       8.214   7.866  18.599  0.00  0.00    +0.000 F 
ENDBRANCH  25  27
ENDBRANCH   1  25
TORSDOF 7
ENDMDL
MODEL 4
REMARK VINA RESULT:      -8.2      3.493      6.411
REMARK  Name = 
REMARK  8 active torsions:
REMARK  status: ('A' for Active; 'I' for Inactive)
REMARK    1  A    between atoms: C_1  and  N_2
REMARK    2  A    between atoms: N_2  and  C_24
REMARK    3  A    between atoms: C_3  and  C_5
REMARK    4  A    between atoms: C_5  and  C_18
REMARK    5  A    between atoms: N_6  and  N_7
REMARK    6  A    between atoms: N_7  and  C_8
REMARK    7  A    between atoms: C_12  and  C_13
REMARK    8  A    between atoms: C_18  and  C_20
REMARK                            x       y       z     vdW  Elec       q    Type
REMARK                         _______ _______ _______ _____ _____    ______ ____
ROOT
ATOM      1  C   UNL     1       5.979   6.175  17.459  0.00  0.00    +0.000 C 
ATOM      2  N   UNL     1       6.726   7.065  18.046  0.00  0.00    +0.000 NA
ENDROOT
BRANCH   1   5
ATOM      3  C   UNL     1       3.063   6.813  17.990  0.00  0.00    +0.000 C 
ATOM      4  N   UNL     1       3.719   5.597  18.508  0.00  0.00    +0.000 N 
ATOM      5  C   UNL     1       5.096   5.312  18.335  0.00  0.00    +0.000 C 
ATOM      6  O   UNL     1       5.714   4.345  18.778  0.00  0.00    +0.000 OA
BRANCH   4   7
ATOM      7  C   UNL     1       2.838   4.698  19.244  0.00  0.00    +0.000 A 
ATOM      8  C   UNL     1       2.758   4.693  20.644  0.00  0.00    +0.000 A 
ATOM      9  C   UNL     1       1.915   3.807  21.331  0.00  0.00    +0.000 A 
ATOM     10  C   UNL     1       1.126   2.902  20.635  0.00  0.00    +0.000 A 
ATOM     11  C   UNL     1       1.169   2.891  19.250  0.00  0.00    +0.000 A 
ATOM     12  C   UNL     1       2.007   3.781  18.566  0.00  0.00    +0.000 A 
ENDBRANCH   4   7
ENDBRANCH   1   5
BRANCH   2  13
ATOM     13  N   UNL     1       7.478   7.908  17.297  0.00  0.00    +0.000 N 
ATOM     14  H   UNL     1       8.042   7.529  16.522  0.00  0.00    +0.000 HD
BRANCH  13  15
ATOM     15  C   UNL     1       8.085   9.001  17.949  0.00  0.00    +0.000 A 
ATOM     16  C   UNL     1       8.872   8.771  19.084  0.00  0.00    +0.000 A 
ATOM     17  C   UNL     1       9.528   9.825  19.726  0.00  0.00    +0.000 A 
ATOM     18  C   UNL     1       9.410  11.125  19.238  0.00  0.00    +0.000 A 
ATOM     19  C   UNL     1       8.656  11.381  18.087  0.00  0.00    +0.000 A 
ATOM     20  C   UNL     1       8.026  10.306  17.439  0.00  0.00    +0.000 A 
BRANCH  19  21
ATOM     21  C   UNL     1       8.498  12.776  17.540  0.00  0.00    +0.000 C 
ATOM     22  F   UNL     1       8.126  13.691  18.479  0.00  0.00    +0.000 F 
ATOM     23  F   UNL     1       9.646  13.256  16.987  0.00  0.00    +0.000 F 
ATOM     24  F   UNL     1       7.555  12.849  16.560  0.00  0.00    +0.000 F 
ENDBRANCH  19  21
ENDBRANCH  13  15
ENDBRANCH   2  13
BRANCH   1  25
ATOM     25  C   UNL     1       6.061   5.920  15.967  0.00  0.00    +0.000 C 
ATOM     26  O   UNL     1       5.506   6.706  15.196  0.00  0.00    +0.000 OA
BRANCH  25  27
ATOM     27  C   UNL     1       6.854   4.713  15.527  0.00  0.00    +0.000 C 
ATOM     28  F   UNL     1       7.823   4.331  16.400  0.00  0.00    +0.000 F 
ATOM     29  F   UNL     1       6.049   3.619  15.387  0.00  0.00    +0.000 F 
ATOM     30  F   UNL     1       7.450   4.889  14.316  0.00  0.00    +0.000 F 
ENDBRANCH  25  27
ENDBRANCH   1  25
TORSDOF 7
ENDMDL
MODEL 5
REMARK VINA RESULT:      -8.2      3.725      5.105
REMARK  Name = 
REMARK  8 active torsions:
REMARK  status: ('A' for Active; 'I' for Inactive)
REMARK    1  A    between atoms: C_1  and  N_2
REMARK    2  A    between atoms: N_2  and  C_24
REMARK    3  A    between atoms: C_3  and  C_5
REMARK    4  A    between atoms: C_5  and  C_18
REMARK    5  A    between atoms: N_6  and  N_7
REMARK    6  A    between atoms: N_7  and  C_8
REMARK    7  A    between atoms: C_12  and  C_13
REMARK    8  A    between atoms: C_18  and  C_20
REMARK                            x       y       z     vdW  Elec       q    Type
REMARK                         _______ _______ _______ _____ _____    ______ ____
ROOT
ATOM      1  C   UNL     1       2.626   4.906  18.855  0.00  0.00    +0.000 C 
ATOM      2  N   UNL     1       3.906   4.750  18.669  0.00  0.00    +0.000 NA
ENDROOT
BRANCH   1   5
ATOM      3  C   UNL     1       2.410   7.795  17.961  0.00  0.00    +0.000 C 
ATOM      4  N   UNL     1       2.023   7.349  19.313  0.00  0.00    +0.000 N 
ATOM      5  C   UNL     1       2.182   6.021  19.778  0.00  0.00    +0.000 C 
ATOM      6  O   UNL     1       1.925   5.594  20.904  0.00  0.00    +0.000 OA
BRANCH   4   7
ATOM      7  C   UNL     1       1.474   8.398  20.164  0.00  0.00    +0.000 A 
ATOM      8  C   UNL     1       1.438   8.300  21.562  0.00  0.00    +0.000 A 
ATOM      9  C   UNL     1       0.889   9.315  22.359  0.00  0.00    +0.000 A 
ATOM     10  C   UNL     1       0.362  10.460  21.777  0.00  0.00    +0.000 A 
ATOM     11  C   UNL     1       0.394  10.597  20.399  0.00  0.00    +0.000 A 
ATOM     12  C   UNL     1       0.950   9.583  19.606  0.00  0.00    +0.000 A 
ENDBRANCH   4   7
ENDBRANCH   1   5
BRANCH   2  13
ATOM     13  N   UNL     1       4.345   3.812  17.794  0.00  0.00    +0.000 N 
ATOM     14  H   UNL     1       4.504   2.849  18.124  0.00  0.00    +0.000 HD
BRANCH  13  15
ATOM     15  C   UNL     1       5.255   4.221  16.798  0.00  0.00    +0.000 A 
ATOM     16  C   UNL     1       6.350   5.018  17.153  0.00  0.00    +0.000 A 
ATOM     17  C   UNL     1       7.298   5.400  16.200  0.00  0.00    +0.000 A 
ATOM     18  C   UNL     1       7.166   4.985  14.876  0.00  0.00    +0.000 A 
ATOM     19  C   UNL     1       6.100   4.162  14.497  0.00  0.00    +0.000 A 
ATOM     20  C   UNL     1       5.171   3.766  15.474  0.00  0.00    +0.000 A 
BRANCH  19  21
ATOM     21  C   UNL     1       5.921   3.706  13.072  0.00  0.00    +0.000 C 
ATOM     22  F   UNL     1       6.735   4.348  12.188  0.00  0.00    +0.000 F 
ATOM     23  F   UNL     1       6.172   2.377  12.912  0.00  0.00    +0.000 F 
ATOM     24  F   UNL     1       4.652   3.902  12.616  0.00  0.00    +0.000 F 
ENDBRANCH  19  21
ENDBRANCH  13  15
ENDBRANCH   2  13
BRANCH   1  25
ATOM     25  C   UNL     1       1.609   3.947  18.269  0.00  0.00    +0.000 C 
ATOM     26  O   UNL     1       1.229   4.116  17.108  0.00  0.00    +0.000 OA
BRANCH  25  27
ATOM     27  C   UNL     1       1.148   2.818  19.160  0.00  0.00    +0.000 C 
ATOM     28  F   UNL     1       0.532   1.801  18.501  0.00  0.00    +0.000 F 
ATOM     29  F   UNL     1       2.202   2.238  19.805  0.00  0.00    +0.000 F 
ATOM     30  F   UNL     1       0.299   3.235  20.139  0.00  0.00    +0.000 F 
ENDBRANCH  25  27
ENDBRANCH   1  25
TORSDOF 7
ENDMDL
MODEL 6
REMARK VINA RESULT:      -8.1      3.882      5.443
REMARK  Name = 
REMARK  8 active torsions:
REMARK  status: ('A' for Active; 'I' for Inactive)
REMARK    1  A    between atoms: C_1  and  N_2
REMARK    2  A    between atoms: N_2  and  C_24
REMARK    3  A    between atoms: C_3  and  C_5
REMARK    4  A    between atoms: C_5  and  C_18
REMARK    5  A    between atoms: N_6  and  N_7
REMARK    6  A    between atoms: N_7  and  C_8
REMARK    7  A    between atoms: C_12  and  C_13
REMARK    8  A    between atoms: C_18  and  C_20
REMARK                            x       y       z     vdW  Elec       q    Type
REMARK                         _______ _______ _______ _____ _____    ______ ____
ROOT
ATOM      1  C   UNL     1       2.509   4.916  19.256  0.00  0.00    +0.000 C 
ATOM      2  N   UNL     1       3.792   4.701  19.313  0.00  0.00    +0.000 NA
ENDROOT
BRANCH   1   5
ATOM      3  C   UNL     1       2.604   7.802  18.327  0.00  0.00    +0.000 C 
ATOM      4  N   UNL     1       1.947   7.391  19.584  0.00  0.00    +0.000 N 
ATOM      5  C   UNL     1       1.952   6.062  20.075  0.00  0.00    +0.000 C 
ATOM      6  O   UNL     1       1.467   5.661  21.132  0.00  0.00    +0.000 OA
BRANCH   4   7
ATOM      7  C   UNL     1       1.298   8.474  20.312  0.00  0.00    +0.000 A 
ATOM      8  C   UNL     1       0.635   9.529  19.670  0.00  0.00    +0.000 A 
ATOM      9  C   UNL     1       0.032  10.569  20.393  0.00  0.00    +0.000 A 
ATOM     10  C   UNL     1       0.074  10.581  21.780  0.00  0.00    +0.000 A 
ATOM     11  C   UNL     1       0.708   9.546  22.447  0.00  0.00    +0.000 A 
ATOM     12  C   UNL     1       1.304   8.504  21.723  0.00  0.00    +0.000 A 
ENDBRANCH   4   7
ENDBRANCH   1   5
BRANCH   2  13
ATOM     13  N   UNL     1       4.344   3.734  18.541  0.00  0.00    +0.000 N 
ATOM     14  H   UNL     1       4.477   2.790  18.932  0.00  0.00    +0.000 HD
BRANCH  13  15
ATOM     15  C   UNL     1       5.357   4.115  17.637  0.00  0.00    +0.000 A 
ATOM     16  C   UNL     1       6.559   4.633  18.134  0.00  0.00    +0.000 A 
ATOM     17  C   UNL     1       7.603   4.974  17.270  0.00  0.00    +0.000 A 
ATOM     18  C   UNL     1       7.460   4.797  15.894  0.00  0.00    +0.000 A 
ATOM     19  C   UNL     1       6.282   4.253  15.372  0.00  0.00    +0.000 A 
ATOM     20  C   UNL     1       5.254   3.890  16.257  0.00  0.00    +0.000 A 
BRANCH  19  21
ATOM     21  C   UNL     1       6.091   4.059  13.889  0.00  0.00    +0.000 C 
ATOM     22  F   UNL     1       6.383   2.798  13.462  0.00  0.00    +0.000 F 
ATOM     23  F   UNL     1       4.811   4.300  13.490  0.00  0.00    +0.000 F 
ATOM     24  F   UNL     1       6.874   4.891  13.148  0.00  0.00    +0.000 F 
ENDBRANCH  19  21
ENDBRANCH  13  15
ENDBRANCH   2  13
BRANCH   1  25
ATOM     25  C   UNL     1       1.576   3.997  18.493  0.00  0.00    +0.000 C 
ATOM     26  O   UNL     1       1.279   4.279  17.330  0.00  0.00    +0.000 OA
BRANCH  25  27
ATOM     27  C   UNL     1       1.092   2.766  19.221  0.00  0.00    +0.000 C 
ATOM     28  F   UNL     1       2.060   1.847  19.472  0.00  0.00    +0.000 F 
ATOM     29  F   UNL     1       0.579   3.087  20.445  0.00  0.00    +0.000 F 
ATOM     30  F   UNL     1       0.090   2.124  18.558  0.00  0.00    +0.000 F 
ENDBRANCH  25  27
ENDBRANCH   1  25
TORSDOF 7
ENDMDL
MODEL 7
REMARK VINA RESULT:      -8.1      3.572      8.074
REMARK  Name = 
REMARK  8 active torsions:
REMARK  status: ('A' for Active; 'I' for Inactive)
REMARK    1  A    between atoms: C_1  and  N_2
REMARK    2  A    between atoms: N_2  and  C_24
REMARK    3  A    between atoms: C_3  and  C_5
REMARK    4  A    between atoms: C_5  and  C_18
REMARK    5  A    between atoms: N_6  and  N_7
REMARK    6  A    between atoms: N_7  and  C_8
REMARK    7  A    between atoms: C_12  and  C_13
REMARK    8  A    between atoms: C_18  and  C_20
REMARK                            x       y       z     vdW  Elec       q    Type
REMARK                         _______ _______ _______ _____ _____    ______ ____
ROOT
ATOM      1  C   UNL     1       4.903   5.888  17.705  0.00  0.00    +0.000 C 
ATOM      2  N   UNL     1       3.661   6.271  17.796  0.00  0.00    +0.000 NA
ENDROOT
BRANCH   1   5
ATOM      3  C   UNL     1       5.492   3.201  16.430  0.00  0.00    +0.000 C 
ATOM      4  N   UNL     1       5.692   4.480  15.721  0.00  0.00    +0.000 N 
ATOM      5  C   UNL     1       5.494   5.749  16.318  0.00  0.00    +0.000 C 
ATOM      6  O   UNL     1       5.686   6.849  15.801  0.00  0.00    +0.000 OA
BRANCH   4   7
ATOM      7  C   UNL     1       6.139   4.345  14.339  0.00  0.00    +0.000 A 
ATOM      8  C   UNL     1       5.458   3.565  13.395  0.00  0.00    +0.000 A 
ATOM      9  C   UNL     1       5.917   3.437  12.075  0.00  0.00    +0.000 A 
ATOM     10  C   UNL     1       7.071   4.090  11.664  0.00  0.00    +0.000 A 
ATOM     11  C   UNL     1       7.760   4.881  12.568  0.00  0.00    +0.000 A 
ATOM     12  C   UNL     1       7.296   5.013  13.884  0.00  0.00    +0.000 A 
ENDBRANCH   4   7
ENDBRANCH   1   5
BRANCH   2  13
ATOM     13  N   UNL     1       3.113   6.480  19.018  0.00  0.00    +0.000 N 
ATOM     14  H   UNL     1       2.804   5.671  19.578  0.00  0.00    +0.000 HD
BRANCH  13  15
ATOM     15  C   UNL     1       2.302   7.621  19.186  0.00  0.00    +0.000 A 
ATOM     16  C   UNL     1       2.059   8.457  18.091  0.00  0.00    +0.000 A 
ATOM     17  C   UNL     1       1.221   9.569  18.210  0.00  0.00    +0.000 A 
ATOM     18  C   UNL     1       0.609   9.857  19.429  0.00  0.00    +0.000 A 
ATOM     19  C   UNL     1       0.809   9.022  20.533  0.00  0.00    +0.000 A 
ATOM     20  C   UNL     1       1.633   7.894  20.388  0.00  0.00    +0.000 A 
BRANCH  19  21
ATOM     21  C   UNL     1       0.172   9.312  21.869  0.00  0.00    +0.000 C 
ATOM     22  F   UNL     1      -0.811   8.430  22.206  0.00  0.00    +0.000 F 
ATOM     23  F   UNL     1       1.068   9.281  22.894  0.00  0.00    +0.000 F 
ATOM     24  F   UNL     1      -0.405  10.545  21.916  0.00  0.00    +0.000 F 
ENDBRANCH  19  21
ENDBRANCH  13  15
ENDBRANCH   2  13
BRANCH   1  25
ATOM     25  C   UNL     1       5.708   5.485  18.924  0.00  0.00    +0.000 C 
ATOM     26  O   UNL     1       5.132   4.927  19.862  0.00  0.00    +0.000 OA
BRANCH  25  27
ATOM     27  C   UNL     1       7.188   5.778  18.888  0.00  0.00    +0.000 C 
ATOM     28  F   UNL     1       7.503   7.014  18.418  0.00  0.00    +0.000 F 
ATOM     29  F   UNL     1       7.732   5.723  20.139  0.00  0.00    +0.000 F 
ATOM     30  F   UNL     1       7.885   4.876  18.143  0.00  0.00    +0.000 F 
ENDBRANCH  25  27
ENDBRANCH   1  25
TORSDOF 7
ENDMDL
MODEL 8
REMARK VINA RESULT:      -8.1      3.585      8.063
REMARK  Name = 
REMARK  8 active torsions:
REMARK  status: ('A' for Active; 'I' for Inactive)
REMARK    1  A    between atoms: C_1  and  N_2
REMARK    2  A    between atoms: N_2  and  C_24
REMARK    3  A    between atoms: C_3  and  C_5
REMARK    4  A    between atoms: C_5  and  C_18
REMARK    5  A    between atoms: N_6  and  N_7
REMARK    6  A    between atoms: N_7  and  C_8
REMARK    7  A    between atoms: C_12  and  C_13
REMARK    8  A    between atoms: C_18  and  C_20
REMARK                            x       y       z     vdW  Elec       q    Type
REMARK                         _______ _______ _______ _____ _____    ______ ____
ROOT
ATOM      1  C   UNL     1       4.917   5.887  17.652  0.00  0.00    +0.000 C 
ATOM      2  N   UNL     1       3.718   6.385  17.755  0.00  0.00    +0.000 NA
ENDROOT
BRANCH   1   5
ATOM      3  C   UNL     1       5.601   3.215  16.391  0.00  0.00    +0.000 C 
ATOM      4  N   UNL     1       5.749   4.496  15.673  0.00  0.00    +0.000 N 
ATOM      5  C   UNL     1       5.507   5.760  16.263  0.00  0.00    +0.000 C 
ATOM      6  O   UNL     1       5.655   6.864  15.739  0.00  0.00    +0.000 OA
BRANCH   4   7
ATOM      7  C   UNL     1       6.195   4.368  14.291  0.00  0.00    +0.000 A 
ATOM      8  C   UNL     1       7.329   5.027  13.795  0.00  0.00    +0.000 A 
ATOM      9  C   UNL     1       7.728   4.903  12.456  0.00  0.00    +0.000 A 
ATOM     10  C   UNL     1       7.003   4.111  11.576  0.00  0.00    +0.000 A 
ATOM     11  C   UNL     1       5.886   3.434  12.036  0.00  0.00    +0.000 A 
ATOM     12  C   UNL     1       5.493   3.555  13.376  0.00  0.00    +0.000 A 
ENDBRANCH   4   7
ENDBRANCH   1   5
BRANCH   2  13
ATOM     13  N   UNL     1       3.180   6.585  18.983  0.00  0.00    +0.000 N 
ATOM     14  H   UNL     1       2.920   5.771  19.559  0.00  0.00    +0.000 HD
BRANCH  13  15
ATOM     15  C   UNL     1       2.317   7.688  19.149  0.00  0.00    +0.000 A 
ATOM     16  C   UNL     1       2.032   8.507  18.051  0.00  0.00    +0.000 A 
ATOM     17  C   UNL     1       1.143   9.579  18.167  0.00  0.00    +0.000 A 
ATOM     18  C   UNL     1       0.521   9.843  19.387  0.00  0.00    +0.000 A 
ATOM     19  C   UNL     1       0.762   9.023  20.494  0.00  0.00    +0.000 A 
ATOM     20  C   UNL     1       1.638   7.933  20.351  0.00  0.00    +0.000 A 
BRANCH  19  21
ATOM     21  C   UNL     1       0.115   9.287  21.829  0.00  0.00    +0.000 C 
ATOM     22  F   UNL     1       0.994   9.278  22.871  0.00  0.00    +0.000 F 
ATOM     23  F   UNL     1      -0.509  10.496  21.879  0.00  0.00    +0.000 F 
ATOM     24  F   UNL     1      -0.836   8.364  22.141  0.00  0.00    +0.000 F 
ENDBRANCH  19  21
ENDBRANCH  13  15
ENDBRANCH   2  13
BRANCH   1  25
ATOM     25  C   UNL     1       5.664   5.344  18.854  0.00  0.00    +0.000 C 
ATOM     26  O   UNL     1       5.053   4.662  19.680  0.00  0.00    +0.000 OA
BRANCH  25  27
ATOM     27  C   UNL     1       7.138   5.663  18.937  0.00  0.00    +0.000 C 
ATOM     28  F   UNL     1       7.935   4.813  18.237  0.00  0.00    +0.000 F 
ATOM     29  F   UNL     1       7.404   6.902  18.428  0.00  0.00    +0.000 F 
ATOM     30  F   UNL     1       7.599   5.684  20.218  0.00  0.00    +0.000 F 
ENDBRANCH  25  27
ENDBRANCH   1  25
TORSDOF 7
ENDMDL
MODEL 9
REMARK VINA RESULT:      -8.0      3.340      7.805
REMARK  Name = 
REMARK  8 active torsions:
REMARK  status: ('A' for Active; 'I' for Inactive)
REMARK    1  A    between atoms: C_1  and  N_2
REMARK    2  A    between atoms: N_2  and  C_24
REMARK    3  A    between atoms: C_3  and  C_5
REMARK    4  A    between atoms: C_5  and  C_18
REMARK    5  A    between atoms: N_6  and  N_7
REMARK    6  A    between atoms: N_7  and  C_8
REMARK    7  A    between atoms: C_12  and  C_13
REMARK    8  A    between atoms: C_18  and  C_20
REMARK                            x       y       z     vdW  Elec       q    Type
REMARK                         _______ _______ _______ _____ _____    ______ ____
ROOT
ATOM      1  C   UNL     1       4.651   4.686  17.875  0.00  0.00    +0.000 C 
ATOM      2  N   UNL     1       3.424   5.091  18.040  0.00  0.00    +0.000 NA
ENDROOT
BRANCH   1   5
ATOM      3  C   UNL     1       5.220   6.557  15.557  0.00  0.00    +0.000 C 
ATOM      4  N   UNL     1       5.376   5.093  15.456  0.00  0.00    +0.000 N 
ATOM      5  C   UNL     1       5.047   4.193  16.499  0.00  0.00    +0.000 C 
ATOM      6  O   UNL     1       5.109   2.964  16.465  0.00  0.00    +0.000 OA
BRANCH   4   7
ATOM      7  C   UNL     1       5.882   4.624  14.171  0.00  0.00    +0.000 A 
ATOM      8  C   UNL     1       5.157   3.757  13.342  0.00  0.00    +0.000 A 
ATOM      9  C   UNL     1       5.673   3.306  12.117  0.00  0.00    +0.000 A 
ATOM     10  C   UNL     1       6.928   3.713  11.688  0.00  0.00    +0.000 A 
ATOM     11  C   UNL     1       7.665   4.582  12.476  0.00  0.00    +0.000 A 
ATOM     12  C   UNL     1       7.145   5.036  13.696  0.00  0.00    +0.000 A 
ENDBRANCH   4   7
ENDBRANCH   1   5
BRANCH   2  13
ATOM     13  N   UNL     1       3.045   5.608  19.234  0.00  0.00    +0.000 N 
ATOM     14  H   UNL     1       2.659   4.982  19.956  0.00  0.00    +0.000 HD
BRANCH  13  15
ATOM     15  C   UNL     1       2.464   6.893  19.237  0.00  0.00    +0.000 A 
ATOM     16  C   UNL     1       2.437   7.637  18.052  0.00  0.00    +0.000 A 
ATOM     17  C   UNL     1       1.826   8.892  18.007  0.00  0.00    +0.000 A 
ATOM     18  C   UNL     1       1.226   9.420  19.149  0.00  0.00    +0.000 A 
ATOM     19  C   UNL     1       1.209   8.687  20.340  0.00  0.00    +0.000 A 
ATOM     20  C   UNL     1       1.805   7.414  20.360  0.00  0.00    +0.000 A 
BRANCH  19  21
ATOM     21  C   UNL     1       0.580   9.233  21.596  0.00  0.00    +0.000 C 
ATOM     22  F   UNL     1       0.185  10.532  21.487  0.00  0.00    +0.000 F 
ATOM     23  F   UNL     1      -0.529   8.537  21.973  0.00  0.00    +0.000 F 
ATOM     24  F   UNL     1       1.425   9.192  22.664  0.00  0.00    +0.000 F 
ENDBRANCH  19  21
ENDBRANCH  13  15
ENDBRANCH   2  13
BRANCH   1  25
ATOM     25  C   UNL     1       5.627   4.597  19.031  0.00  0.00    +0.000 C 
ATOM     26  O   UNL     1       5.364   3.854  19.979  0.00  0.00    +0.000 OA
BRANCH  25  27
ATOM     27  C   UNL     1       6.887   5.421  18.920  0.00  0.00    +0.000 C 
ATOM     28  F   UNL     1       7.523   5.633  20.103  0.00  0.00    +0.000 F 
ATOM     29  F   UNL     1       7.810   4.806  18.124  0.00  0.00    +0.000 F 
ATOM     30  F   UNL     1       6.669   6.642  18.357  0.00  0.00    +0.000 F 
ENDBRANCH  25  27
ENDBRANCH   1  25
TORSDOF 7
ENDMDL
