MODEL 1
REMARK VINA RESULT:      -6.8      0.000      0.000
REMARK  Name = 
REMARK  7 active torsions:
REMARK  status: ('A' for Active; 'I' for Inactive)
REMARK    1  A    between atoms: C_1  and  C_2
REMARK    2  A    between atoms: C_2  and  C_3
REMARK    3  A    between atoms: C_3  and  N_4
REMARK    4  A    between atoms: C_3  and  C_14
REMARK    5  A    between atoms: C_5  and  C_7
REMARK    6  A    between atoms: C_10  and  O_11
REMARK    7  A    between atoms: C_19  and  C_20
REMARK                            x       y       z     vdW  Elec       q    Type
REMARK                         _______ _______ _______ _____ _____    ______ ____
ROOT
ATOM      1  N   UNL     1       4.521   5.093  17.271  0.00  0.00    +0.000 N 
ATOM      2  C   UNL     1       3.933   3.897  17.597  0.00  0.00    +0.000 C 
ATOM      3  O   UNL     1       4.364   2.816  17.204  0.00  0.00    +0.000 OA
ATOM      4  H   UNL     1       4.122   5.976  17.566  0.00  0.00    +0.000 HD
ENDROOT
BRANCH   2   5
ATOM      5  C   UNL     1       2.755   4.022  18.563  0.00  0.00    +0.000 C 
ATOM      6  C   UNL     1       2.115   2.674  18.915  0.00  0.00    +0.000 C 
ATOM      7  C   UNL     1       0.894   2.871  19.821  0.00  0.00    +0.000 C 
ATOM      8  C   UNL     1       1.198   3.699  21.073  0.00  0.00    +0.000 C 
ATOM      9  C   UNL     1       1.964   4.985  20.760  0.00  0.00    +0.000 C 
ATOM     10  C   UNL     1       3.170   4.746  19.851  0.00  0.00    +0.000 C 
BRANCH   8  11
ATOM     11  O   UNL     1       1.928   2.908  22.007  0.00  0.00    +0.000 OA
ATOM     12  H   UNL     1       1.430   2.096  22.190  0.00  0.00    +0.000 HD
ENDBRANCH   8  11
ENDBRANCH   2   5
BRANCH   1  13
ATOM     13  C   UNL     1       5.779   5.178  16.532  0.00  0.00    +0.000 C 
BRANCH  13  14
ATOM     14  C   UNL     1       6.651   6.256  17.175  0.00  0.00    +0.000 A 
ATOM     15  N   UNL     1       6.437   7.528  16.725  0.00  0.00    +0.000 NA
ATOM     16  C   UNL     1       7.191   8.519  17.249  0.00  0.00    +0.000 A 
ATOM     17  C   UNL     1       8.138   8.321  18.233  0.00  0.00    +0.000 A 
ATOM     18  C   UNL     1       8.331   7.029  18.706  0.00  0.00    +0.000 A 
ATOM     19  C   UNL     1       7.588   5.965  18.178  0.00  0.00    +0.000 A 
ATOM     20  C   UNL     1       7.812   4.577  18.701  0.00  0.00    +0.000 C 
ENDBRANCH  13  14
BRANCH  13  22
ATOM     21  C   UNL     1       5.862   4.269  14.144  0.00  0.00    +0.000 C 
ATOM     22  C   UNL     1       5.537   5.462  15.036  0.00  0.00    +0.000 C 
ENDBRANCH  13  22
ENDBRANCH   1  13
TORSDOF 5
ENDMDL
MODEL 2
REMARK VINA RESULT:      -6.7      3.394      4.664
REMARK  Name = 
REMARK  7 active torsions:
REMARK  status: ('A' for Active; 'I' for Inactive)
REMARK    1  A    between atoms: C_1  and  C_2
REMARK    2  A    between atoms: C_2  and  C_3
REMARK    3  A    between atoms: C_3  and  N_4
REMARK    4  A    between atoms: C_3  and  C_14
REMARK    5  A    between atoms: C_5  and  C_7
REMARK    6  A    between atoms: C_10  and  O_11
REMARK    7  A    between atoms: C_19  and  C_20
REMARK                            x       y       z     vdW  Elec       q    Type
REMARK                         _______ _______ _______ _____ _____    ______ ____
ROOT
ATOM      1  N   UNL     1       3.060   5.810  18.189  0.00  0.00    +0.000 N 
ATOM      2  C   UNL     1       2.498   6.279  19.350  0.00  0.00    +0.000 C 
ATOM      3  O   UNL     1       2.282   5.558  20.320  0.00  0.00    +0.000 OA
ATOM      4  H   UNL     1       3.188   6.412  17.384  0.00  0.00    +0.000 HD
ENDROOT
BRANCH   2   5
ATOM      5  C   UNL     1       2.255   7.788  19.363  0.00  0.00    +0.000 C 
ATOM      6  C   UNL     1       1.878   8.352  17.988  0.00  0.00    +0.000 C 
ATOM      7  C   UNL     1       1.725   9.876  18.048  0.00  0.00    +0.000 C 
ATOM      8  C   UNL     1       0.755  10.343  19.137  0.00  0.00    +0.000 C 
ATOM      9  C   UNL     1       1.023   9.683  20.490  0.00  0.00    +0.000 C 
ATOM     10  C   UNL     1       1.174   8.165  20.386  0.00  0.00    +0.000 C 
BRANCH   8  11
ATOM     11  O   UNL     1      -0.586  10.093  18.727  0.00  0.00    +0.000 OA
ATOM     12  H   UNL     1      -0.712  10.444  17.831  0.00  0.00    +0.000 HD
ENDBRANCH   8  11
ENDBRANCH   2   5
BRANCH   1  13
ATOM     13  C   UNL     1       3.560   4.444  18.049  0.00  0.00    +0.000 C 
BRANCH  13  14
ATOM     14  C   UNL     1       4.873   4.482  17.268  0.00  0.00    +0.000 A 
ATOM     15  N   UNL     1       4.779   4.152  15.946  0.00  0.00    +0.000 NA
ATOM     16  C   UNL     1       5.911   4.155  15.210  0.00  0.00    +0.000 A 
ATOM     17  C   UNL     1       7.148   4.504  15.712  0.00  0.00    +0.000 A 
ATOM     18  C   UNL     1       7.233   4.866  17.052  0.00  0.00    +0.000 A 
ATOM     19  C   UNL     1       6.089   4.858  17.859  0.00  0.00    +0.000 A 
ATOM     20  C   UNL     1       6.202   5.250  19.302  0.00  0.00    +0.000 C 
ENDBRANCH  13  14
BRANCH  13  22
ATOM     21  C   UNL     1       2.287   2.228  18.128  0.00  0.00    +0.000 C 
ATOM     22  C   UNL     1       2.522   3.529  17.369  0.00  0.00    +0.000 C 
ENDBRANCH  13  22
ENDBRANCH   1  13
TORSDOF 5
ENDMDL
MODEL 3
REMARK VINA RESULT:      -6.4      2.746      6.822
REMARK  Name = 
REMARK  7 active torsions:
REMARK  status: ('A' for Active; 'I' for Inactive)
REMARK    1  A    between atoms: C_1  and  C_2
REMARK    2  A    between atoms: C_2  and  C_3
REMARK    3  A    between atoms: C_3  and  N_4
REMARK    4  A    between atoms: C_3  and  C_14
REMARK    5  A    between atoms: C_5  and  C_7
REMARK    6  A    between atoms: C_10  and  O_11
REMARK    7  A    between atoms: C_19  and  C_20
REMARK                            x       y       z     vdW  Elec       q    Type
REMARK                         _______ _______ _______ _____ _____    ______ ____
ROOT
ATOM      1  N   UNL     1       5.239   4.558  16.632  0.00  0.00    +0.000 N 
ATOM      2  C   UNL     1       6.440   4.627  15.973  0.00  0.00    +0.000 C 
ATOM      3  O   UNL     1       7.520   4.590  16.556  0.00  0.00    +0.000 OA
ATOM      4  H   UNL     1       4.359   4.636  16.136  0.00  0.00    +0.000 HD
ENDROOT
BRANCH   2   5
ATOM      5  C   UNL     1       6.317   4.658  14.450  0.00  0.00    +0.000 C 
ATOM      6  C   UNL     1       7.670   4.751  13.735  0.00  0.00    +0.000 C 
ATOM      7  C   UNL     1       7.478   4.859  12.218  0.00  0.00    +0.000 C 
ATOM      8  C   UNL     1       6.605   3.742  11.638  0.00  0.00    +0.000 C 
ATOM      9  C   UNL     1       5.310   3.535  12.424  0.00  0.00    +0.000 C 
ATOM     10  C   UNL     1       5.544   3.437  13.931  0.00  0.00    +0.000 C 
BRANCH   8  11
ATOM     11  O   UNL     1       7.348   2.527  11.590  0.00  0.00    +0.000 OA
ATOM     12  H   UNL     1       8.003   2.586  10.875  0.00  0.00    +0.000 HD
ENDBRANCH   8  11
ENDBRANCH   2   5
BRANCH   1  13
ATOM     13  C   UNL     1       5.140   4.312  18.070  0.00  0.00    +0.000 C 
BRANCH  13  14
ATOM     14  C   UNL     1       3.730   3.813  18.384  0.00  0.00    +0.000 A 
ATOM     15  N   UNL     1       2.729   4.389  17.655  0.00  0.00    +0.000 NA
ATOM     16  C   UNL     1       1.461   3.996  17.902  0.00  0.00    +0.000 A 
ATOM     17  C   UNL     1       1.126   3.025  18.823  0.00  0.00    +0.000 A 
ATOM     18  C   UNL     1       2.153   2.422  19.542  0.00  0.00    +0.000 A 
ATOM     19  C   UNL     1       3.482   2.812  19.336  0.00  0.00    +0.000 A 
ATOM     20  C   UNL     1       4.575   2.152  20.122  0.00  0.00    +0.000 C 
ENDBRANCH  13  14
BRANCH  13  22
ATOM     21  C   UNL     1       6.880   5.514  19.507  0.00  0.00    +0.000 C 
ATOM     22  C   UNL     1       5.490   5.574  18.884  0.00  0.00    +0.000 C 
ENDBRANCH  13  22
ENDBRANCH   1  13
TORSDOF 5
ENDMDL
MODEL 4
REMARK VINA RESULT:      -6.4      2.296      6.432
REMARK  Name = 
REMARK  7 active torsions:
REMARK  status: ('A' for Active; 'I' for Inactive)
REMARK    1  A    between atoms: C_1  and  C_2
REMARK    2  A    between atoms: C_2  and  C_3
REMARK    3  A    between atoms: C_3  and  N_4
REMARK    4  A    between atoms: C_3  and  C_14
REMARK    5  A    between atoms: C_5  and  C_7
REMARK    6  A    between atoms: C_10  and  O_11
REMARK    7  A    between atoms: C_19  and  C_20
REMARK                            x       y       z     vdW  Elec       q    Type
REMARK                         _______ _______ _______ _____ _____    ______ ____
ROOT
ATOM      1  N   UNL     1       4.106   5.674  18.445  0.00  0.00    +0.000 N 
ATOM      2  C   UNL     1       5.400   5.259  18.634  0.00  0.00    +0.000 C 
ATOM      3  O   UNL     1       5.946   5.270  19.734  0.00  0.00    +0.000 OA
ATOM      4  H   UNL     1       3.689   5.701  17.522  0.00  0.00    +0.000 HD
ENDROOT
BRANCH   2   5
ATOM      5  C   UNL     1       6.067   4.697  17.379  0.00  0.00    +0.000 C 
ATOM      6  C   UNL     1       5.064   4.195  16.334  0.00  0.00    +0.000 C 
ATOM      7  C   UNL     1       5.791   3.572  15.137  0.00  0.00    +0.000 C 
ATOM      8  C   UNL     1       6.838   4.501  14.517  0.00  0.00    +0.000 C 
ATOM      9  C   UNL     1       7.764   5.129  15.559  0.00  0.00    +0.000 C 
ATOM     10  C   UNL     1       7.001   5.733  16.738  0.00  0.00    +0.000 C 
BRANCH   8  11
ATOM     11  O   UNL     1       6.190   5.520  13.761  0.00  0.00    +0.000 OA
ATOM     12  H   UNL     1       5.295   5.222  13.532  0.00  0.00    +0.000 HD
ENDBRANCH   8  11
ENDBRANCH   2   5
BRANCH   1  13
ATOM     13  C   UNL     1       3.227   6.049  19.551  0.00  0.00    +0.000 C 
BRANCH  13  14
ATOM     14  C   UNL     1       2.444   4.813  19.994  0.00  0.00    +0.000 A 
ATOM     15  N   UNL     1       2.549   4.497  21.318  0.00  0.00    +0.000 NA
ATOM     16  C   UNL     1       1.890   3.405  21.762  0.00  0.00    +0.000 A 
ATOM     17  C   UNL     1       1.093   2.613  20.960  0.00  0.00    +0.000 A 
ATOM     18  C   UNL     1       0.969   2.957  19.618  0.00  0.00    +0.000 A 
ATOM     19  C   UNL     1       1.651   4.068  19.108  0.00  0.00    +0.000 A 
ATOM     20  C   UNL     1       1.505   4.421  17.657  0.00  0.00    +0.000 C 
ENDBRANCH  13  14
BRANCH  13  22
ATOM     21  C   UNL     1       2.759   7.964  17.923  0.00  0.00    +0.000 C 
ATOM     22  C   UNL     1       2.286   7.205  19.158  0.00  0.00    +0.000 C 
ENDBRANCH  13  22
ENDBRANCH   1  13
TORSDOF 5
ENDMDL
MODEL 5
REMARK VINA RESULT:      -6.4      2.331      6.476
REMARK  Name = 
REMARK  7 active torsions:
REMARK  status: ('A' for Active; 'I' for Inactive)
REMARK    1  A    between atoms: C_1  and  C_2
REMARK    2  A    between atoms: C_2  and  C_3
REMARK    3  A    between atoms: C_3  and  N_4
REMARK    4  A    between atoms: C_3  and  C_14
REMARK    5  A    between atoms: C_5  and  C_7
REMARK    6  A    between atoms: C_10  and  O_11
REMARK    7  A    between atoms: C_19  and  C_20
REMARK                            x       y       z     vdW  Elec       q    Type
REMARK                         _______ _______ _______ _____ _____    ______ ____
ROOT
ATOM      1  N   UNL     1       3.924   6.065  18.519  0.00  0.00    +0.000 N 
ATOM      2  C   UNL     1       5.213   5.595  18.512  0.00  0.00    +0.000 C 
ATOM      3  O   UNL     1       5.743   5.097  19.501  0.00  0.00    +0.000 OA
ATOM      4  H   UNL     1       3.521   6.515  17.706  0.00  0.00    +0.000 HD
ENDROOT
BRANCH   2   5
ATOM      5  C   UNL     1       5.895   5.661  17.145  0.00  0.00    +0.000 C 
ATOM      6  C   UNL     1       7.031   4.644  16.986  0.00  0.00    +0.000 C 
ATOM      7  C   UNL     1       7.726   4.812  15.630  0.00  0.00    +0.000 C 
ATOM      8  C   UNL     1       6.757   4.769  14.445  0.00  0.00    +0.000 C 
ATOM      9  C   UNL     1       5.538   5.671  14.645  0.00  0.00    +0.000 C 
ATOM     10  C   UNL     1       4.878   5.477  16.010  0.00  0.00    +0.000 C 
BRANCH   8  11
ATOM     11  O   UNL     1       6.340   3.426  14.214  0.00  0.00    +0.000 OA
ATOM     12  H   UNL     1       6.741   2.851  14.885  0.00  0.00    +0.000 HD
ENDBRANCH   8  11
ENDBRANCH   2   5
BRANCH   1  13
ATOM     13  C   UNL     1       3.031   5.903  19.665  0.00  0.00    +0.000 C 
BRANCH  13  14
ATOM     14  C   UNL     1       2.189   4.645  19.455  0.00  0.00    +0.000 A 
ATOM     15  N   UNL     1       1.760   4.434  18.175  0.00  0.00    +0.000 NA
ATOM     16  C   UNL     1       1.000   3.345  17.935  0.00  0.00    +0.000 A 
ATOM     17  C   UNL     1       0.662   2.419  18.901  0.00  0.00    +0.000 A 
ATOM     18  C   UNL     1       1.126   2.624  20.195  0.00  0.00    +0.000 A 
ATOM     19  C   UNL     1       1.900   3.752  20.497  0.00  0.00    +0.000 A 
ATOM     20  C   UNL     1       2.389   3.956  21.900  0.00  0.00    +0.000 C 
ENDBRANCH  13  14
BRANCH  13  22
ATOM     21  C   UNL     1       2.157   8.092  18.674  0.00  0.00    +0.000 C 
ATOM     22  C   UNL     1       2.147   7.149  19.872  0.00  0.00    +0.000 C 
ENDBRANCH  13  22
ENDBRANCH   1  13
TORSDOF 5
ENDMDL
MODEL 6
REMARK VINA RESULT:      -6.4      4.381      6.395
REMARK  Name = 
REMARK  7 active torsions:
REMARK  status: ('A' for Active; 'I' for Inactive)
REMARK    1  A    between atoms: C_1  and  C_2
REMARK    2  A    between atoms: C_2  and  C_3
REMARK    3  A    between atoms: C_3  and  N_4
REMARK    4  A    between atoms: C_3  and  C_14
REMARK    5  A    between atoms: C_5  and  C_7
REMARK    6  A    between atoms: C_10  and  O_11
REMARK    7  A    between atoms: C_19  and  C_20
REMARK                            x       y       z     vdW  Elec       q    Type
REMARK                         _______ _______ _______ _____ _____    ______ ____
ROOT
ATOM      1  N   UNL     1       2.336   7.130  19.017  0.00  0.00    +0.000 N 
ATOM      2  C   UNL     1       2.126   8.249  18.250  0.00  0.00    +0.000 C 
ATOM      3  O   UNL     1       2.585   8.373  17.118  0.00  0.00    +0.000 OA
ATOM      4  H   UNL     1       1.987   7.068  19.966  0.00  0.00    +0.000 HD
ENDROOT
BRANCH   2   5
ATOM      5  C   UNL     1       1.196   9.280  18.889  0.00  0.00    +0.000 C 
ATOM      6  C   UNL     1       1.087   9.135  20.411  0.00  0.00    +0.000 C 
ATOM      7  C   UNL     1       0.083  10.143  20.983  0.00  0.00    +0.000 C 
ATOM      8  C   UNL     1       0.376  11.588  20.571  0.00  0.00    +0.000 C 
ATOM      9  C   UNL     1       0.630  11.735  19.070  0.00  0.00    +0.000 C 
ATOM     10  C   UNL     1       1.632  10.710  18.539  0.00  0.00    +0.000 C 
BRANCH   8  11
ATOM     11  O   UNL     1       1.491  12.082  21.307  0.00  0.00    +0.000 OA
ATOM     12  H   UNL     1       2.309  11.784  20.879  0.00  0.00    +0.000 HD
ENDBRANCH   8  11
ENDBRANCH   2   5
BRANCH   1  13
ATOM     13  C   UNL     1       3.020   5.942  18.510  0.00  0.00    +0.000 C 
BRANCH  13  14
ATOM     14  C   UNL     1       2.530   4.725  19.294  0.00  0.00    +0.000 A 
ATOM     15  N   UNL     1       2.340   4.927  20.631  0.00  0.00    +0.000 NA
ATOM     16  C   UNL     1       1.922   3.882  21.376  0.00  0.00    +0.000 A 
ATOM     17  C   UNL     1       1.646   2.634  20.856  0.00  0.00    +0.000 A 
ATOM     18  C   UNL     1       1.815   2.442  19.489  0.00  0.00    +0.000 A 
ATOM     19  C   UNL     1       2.268   3.491  18.680  0.00  0.00    +0.000 A 
ATOM     20  C   UNL     1       2.445   3.264  17.208  0.00  0.00    +0.000 C 
ENDBRANCH  13  14
BRANCH  13  22
ATOM     21  C   UNL     1       5.227   6.095  17.228  0.00  0.00    +0.000 C 
ATOM     22  C   UNL     1       4.552   6.093  18.595  0.00  0.00    +0.000 C 
ENDBRANCH  13  22
ENDBRANCH   1  13
TORSDOF 5
ENDMDL
MODEL 7
REMARK VINA RESULT:      -6.3      2.533      6.639
REMARK  Name = 
REMARK  7 active torsions:
REMARK  status: ('A' for Active; 'I' for Inactive)
REMARK    1  A    between atoms: C_1  and  C_2
REMARK    2  A    between atoms: C_2  and  C_3
REMARK    3  A    between atoms: C_3  and  N_4
REMARK    4  A    between atoms: C_3  and  C_14
REMARK    5  A    between atoms: C_5  and  C_7
REMARK    6  A    between atoms: C_10  and  O_11
REMARK    7  A    between atoms: C_19  and  C_20
REMARK                            x       y       z     vdW  Elec       q    Type
REMARK                         _______ _______ _______ _____ _____    ______ ____
ROOT
ATOM      1  N   UNL     1       3.637   5.872  18.323  0.00  0.00    +0.000 N 
ATOM      2  C   UNL     1       4.927   5.436  18.146  0.00  0.00    +0.000 C 
ATOM      3  O   UNL     1       5.719   5.315  19.076  0.00  0.00    +0.000 OA
ATOM      4  H   UNL     1       3.014   6.009  17.536  0.00  0.00    +0.000 HD
ENDROOT
BRANCH   2   5
ATOM      5  C   UNL     1       5.258   5.029  16.711  0.00  0.00    +0.000 C 
ATOM      6  C   UNL     1       5.316   6.216  15.742  0.00  0.00    +0.000 C 
ATOM      7  C   UNL     1       5.572   5.737  14.309  0.00  0.00    +0.000 C 
ATOM      8  C   UNL     1       6.809   4.842  14.184  0.00  0.00    +0.000 C 
ATOM      9  C   UNL     1       6.846   3.732  15.234  0.00  0.00    +0.000 C 
ATOM     10  C   UNL     1       6.580   4.250  16.648  0.00  0.00    +0.000 C 
BRANCH   8  11
ATOM     11  O   UNL     1       7.988   5.637  14.269  0.00  0.00    +0.000 OA
ATOM     12  H   UNL     1       8.203   5.784  15.204  0.00  0.00    +0.000 HD
ENDBRANCH   8  11
ENDBRANCH   2   5
BRANCH   1  13
ATOM     13  C   UNL     1       3.058   6.112  19.643  0.00  0.00    +0.000 C 
BRANCH  13  14
ATOM     14  C   UNL     1       2.355   4.836  20.107  0.00  0.00    +0.000 A 
ATOM     15  N   UNL     1       2.517   4.525  21.427  0.00  0.00    +0.000 NA
ATOM     16  C   UNL     1       1.929   3.401  21.889  0.00  0.00    +0.000 A 
ATOM     17  C   UNL     1       1.150   2.570  21.110  0.00  0.00    +0.000 A 
ATOM     18  C   UNL     1       0.966   2.907  19.773  0.00  0.00    +0.000 A 
ATOM     19  C   UNL     1       1.574   4.052  19.244  0.00  0.00    +0.000 A 
ATOM     20  C   UNL     1       1.365   4.398  17.800  0.00  0.00    +0.000 C 
ENDBRANCH  13  14
BRANCH  13  22
ATOM     21  C   UNL     1       2.208   8.151  18.357  0.00  0.00    +0.000 C 
ATOM     22  C   UNL     1       2.097   7.317  19.628  0.00  0.00    +0.000 C 
ENDBRANCH  13  22
ENDBRANCH   1  13
TORSDOF 5
ENDMDL
MODEL 8
REMARK VINA RESULT:      -6.3      4.953      6.836
REMARK  Name = 
REMARK  7 active torsions:
REMARK  status: ('A' for Active; 'I' for Inactive)
REMARK    1  A    between atoms: C_1  and  C_2
REMARK    2  A    between atoms: C_2  and  C_3
REMARK    3  A    between atoms: C_3  and  N_4
REMARK    4  A    between atoms: C_3  and  C_14
REMARK    5  A    between atoms: C_5  and  C_7
REMARK    6  A    between atoms: C_10  and  O_11
REMARK    7  A    between atoms: C_19  and  C_20
REMARK                            x       y       z     vdW  Elec       q    Type
REMARK                         _______ _______ _______ _____ _____    ______ ____
ROOT
ATOM      1  N   UNL     1       2.195   7.498  18.750  0.00  0.00    +0.000 N 
ATOM      2  C   UNL     1       2.089   8.655  18.020  0.00  0.00    +0.000 C 
ATOM      3  O   UNL     1       2.625   8.801  16.925  0.00  0.00    +0.000 OA
ATOM      4  H   UNL     1       1.783   7.416  19.672  0.00  0.00    +0.000 HD
ENDROOT
BRANCH   2   5
ATOM      5  C   UNL     1       1.171   9.707  18.644  0.00  0.00    +0.000 C 
ATOM      6  C   UNL     1       1.729  11.131  18.548  0.00  0.00    +0.000 C 
ATOM      7  C   UNL     1       0.805  12.126  19.259  0.00  0.00    +0.000 C 
ATOM      8  C   UNL     1      -0.647  12.053  18.778  0.00  0.00    +0.000 C 
ATOM      9  C   UNL     1      -1.182  10.622  18.729  0.00  0.00    +0.000 C 
ATOM     10  C   UNL     1      -0.230   9.660  18.017  0.00  0.00    +0.000 C 
BRANCH   8  11
ATOM     11  O   UNL     1      -0.760  12.662  17.495  0.00  0.00    +0.000 OA
ATOM     12  H   UNL     1      -0.348  13.541  17.526  0.00  0.00    +0.000 HD
ENDBRANCH   8  11
ENDBRANCH   2   5
BRANCH   1  13
ATOM     13  C   UNL     1       2.852   6.298  18.236  0.00  0.00    +0.000 C 
BRANCH  13  14
ATOM     14  C   UNL     1       2.273   5.079  18.954  0.00  0.00    +0.000 A 
ATOM     15  N   UNL     1       1.833   5.303  20.227  0.00  0.00    +0.000 NA
ATOM     16  C   UNL     1       1.325   4.258  20.914  0.00  0.00    +0.000 A 
ATOM     17  C   UNL     1       1.197   2.988  20.390  0.00  0.00    +0.000 A 
ATOM     18  C   UNL     1       1.620   2.773  19.083  0.00  0.00    +0.000 A 
ATOM     19  C   UNL     1       2.174   3.822  18.339  0.00  0.00    +0.000 A 
ATOM     20  C   UNL     1       2.626   3.569  16.931  0.00  0.00    +0.000 C 
ENDBRANCH  13  14
BRANCH  13  22
ATOM     21  C   UNL     1       5.124   6.373  17.067  0.00  0.00    +0.000 C 
ATOM     22  C   UNL     1       4.383   6.378  18.399  0.00  0.00    +0.000 C 
ENDBRANCH  13  22
ENDBRANCH   1  13
TORSDOF 5
ENDMDL
MODEL 9
REMARK VINA RESULT:      -6.2      2.270      6.440
REMARK  Name = 
REMARK  7 active torsions:
REMARK  status: ('A' for Active; 'I' for Inactive)
REMARK    1  A    between atoms: C_1  and  C_2
REMARK    2  A    between atoms: C_2  and  C_3
REMARK    3  A    between atoms: C_3  and  N_4
REMARK    4  A    between atoms: C_3  and  C_14
REMARK    5  A    between atoms: C_5  and  C_7
REMARK    6  A    between atoms: C_10  and  O_11
REMARK    7  A    between atoms: C_19  and  C_20
REMARK                            x       y       z     vdW  Elec       q    Type
REMARK                         _______ _______ _______ _____ _____    ______ ____
ROOT
ATOM      1  N   UNL     1       3.853   6.213  18.733  0.00  0.00    +0.000 N 
ATOM      2  C   UNL     1       5.152   5.773  18.775  0.00  0.00    +0.000 C 
ATOM      3  O   UNL     1       5.698   5.416  19.814  0.00  0.00    +0.000 OA
ATOM      4  H   UNL     1       3.436   6.547  17.872  0.00  0.00    +0.000 HD
ENDROOT
BRANCH   2   5
ATOM      5  C   UNL     1       5.824   5.677  17.405  0.00  0.00    +0.000 C 
ATOM      6  C   UNL     1       6.895   4.583  17.332  0.00  0.00    +0.000 C 
ATOM      7  C   UNL     1       7.587   4.589  15.964  0.00  0.00    +0.000 C 
ATOM      8  C   UNL     1       6.606   4.503  14.791  0.00  0.00    +0.000 C 
ATOM      9  C   UNL     1       5.447   5.492  14.915  0.00  0.00    +0.000 C 
ATOM     10  C   UNL     1       4.788   5.458  16.294  0.00  0.00    +0.000 C 
BRANCH   8  11
ATOM     11  O   UNL     1       6.106   3.173  14.679  0.00  0.00    +0.000 OA
ATOM     12  H   UNL     1       5.146   3.184  14.823  0.00  0.00    +0.000 HD
ENDBRANCH   8  11
ENDBRANCH   2   5
BRANCH   1  13
ATOM     13  C   UNL     1       2.970   6.181  19.897  0.00  0.00    +0.000 C 
BRANCH  13  14
ATOM     14  C   UNL     1       2.365   4.782  20.013  0.00  0.00    +0.000 A 
ATOM     15  N   UNL     1       2.463   4.202  21.246  0.00  0.00    +0.000 NA
ATOM     16  C   UNL     1       1.958   2.960  21.402  0.00  0.00    +0.000 A 
ATOM     17  C   UNL     1       1.322   2.260  20.396  0.00  0.00    +0.000 A 
ATOM     18  C   UNL     1       1.201   2.868  19.152  0.00  0.00    +0.000 A 
ATOM     19  C   UNL     1       1.728   4.147  18.936  0.00  0.00    +0.000 A 
ATOM     20  C   UNL     1       1.589   4.785  17.586  0.00  0.00    +0.000 C 
ENDBRANCH  13  14
BRANCH  13  22
ATOM     21  C   UNL     1       2.105   8.246  18.663  0.00  0.00    +0.000 C 
ATOM     22  C   UNL     1       1.878   7.266  19.809  0.00  0.00    +0.000 C 
ENDBRANCH  13  22
ENDBRANCH   1  13
TORSDOF 5
ENDMDL
