MODEL 1
REMARK VINA RESULT:      -8.6      0.000      0.000
REMARK  Name = 
REMARK  7 active torsions:
REMARK  status: ('A' for Active; 'I' for Inactive)
REMARK    1  A    between atoms: C_1  and  C_2
REMARK    2  A    between atoms: C_2  and  C_4
REMARK    3  A    between atoms: C_5  and  C_6
REMARK    4  A    between atoms: C_13  and  N_14
REMARK    5  A    between atoms: C_15  and  C_17
REMARK    6  A    between atoms: C_20  and  C_21
REMARK    7  A    between atoms: C_24  and  C_25
REMARK                            x       y       z     vdW  Elec       q    Type
REMARK                         _______ _______ _______ _____ _____    ______ ____
ROOT
ATOM      1  N   UNL     1      -0.453  11.127  20.571  0.00  0.00    +0.000 N 
ATOM      2  C   UNL     1      -0.056   9.879  20.997  0.00  0.00    +0.000 C 
ATOM      3  O   UNL     1      -0.358   9.348  22.066  0.00  0.00    +0.000 OA
ATOM      4  H   UNL     1      -0.094  11.443  19.684  0.00  0.00    +0.000 HD
ENDROOT
BRANCH   1  11
ATOM      5  C   UNL     1      -4.732  13.369  21.409  0.00  0.00    +0.000 A 
ATOM      6  C   UNL     1      -4.969  14.317  22.405  0.00  0.00    +0.000 A 
ATOM      7  N   UNL     1      -3.846  14.597  23.132  0.00  0.00    +0.000 NA
ATOM      8  C   UNL     1      -2.910  13.844  22.623  0.00  0.00    +0.000 A 
ATOM      9  C   UNL     1      -1.541  13.740  22.973  0.00  0.00    +0.000 A 
ATOM     10  C   UNL     1      -0.739  12.885  22.318  0.00  0.00    +0.000 A 
ATOM     11  C   UNL     1      -1.241  12.035  21.249  0.00  0.00    +0.000 A 
ATOM     12  C   UNL     1      -2.535  12.161  20.903  0.00  0.00    +0.000 A 
ATOM     13  N   UNL     1      -3.377  13.056  21.572  0.00  0.00    +0.000 N 
BRANCH   5  15
ATOM     14  C   UNL     1      -6.765  11.884  20.866  0.00  0.00    +0.000 C 
ATOM     15  C   UNL     1      -5.688  12.851  20.438  0.00  0.00    +0.000 C 
ATOM     16  O   UNL     1      -5.647  13.143  19.243  0.00  0.00    +0.000 OA
ENDBRANCH   5  15
BRANCH   6  17
ATOM     17  C   UNL     1      -6.281  15.041  22.706  0.00  0.00    +0.000 C 
ATOM     18  C   UNL     1      -7.118  14.562  23.879  0.00  0.00    +0.000 C 
ATOM     19  C   UNL     1      -6.364  15.838  23.995  0.00  0.00    +0.000 C 
ENDBRANCH   6  17
ENDBRANCH   1  11
BRANCH   2  20
ATOM     20  C   UNL     1       0.862   9.130  20.108  0.00  0.00    +0.000 A 
ATOM     21  C   UNL     1       1.428   7.961  20.628  0.00  0.00    +0.000 A 
ATOM     22  C   UNL     1       2.292   7.192  19.855  0.00  0.00    +0.000 A 
ATOM     23  C   UNL     1       2.600   7.544  18.531  0.00  0.00    +0.000 A 
ATOM     24  C   UNL     1       2.013   8.719  18.019  0.00  0.00    +0.000 A 
ATOM     25  C   UNL     1       1.154   9.509  18.799  0.00  0.00    +0.000 A 
BRANCH  23  26
ATOM     26  C   UNL     1       3.488   6.690  17.714  0.00  0.00    +0.000 A 
ATOM     27  C   UNL     1       3.450   5.288  17.832  0.00  0.00    +0.000 A 
ATOM     28  C   UNL     1       4.285   4.464  17.074  0.00  0.00    +0.000 A 
ATOM     29  C   UNL     1       5.175   5.018  16.151  0.00  0.00    +0.000 A 
ATOM     30  C   UNL     1       5.229   6.412  16.021  0.00  0.00    +0.000 A 
ATOM     31  C   UNL     1       4.403   7.233  16.797  0.00  0.00    +0.000 A 
BRANCH  29  32
ATOM     32  C   UNL     1       6.047   4.137  15.295  0.00  0.00    +0.000 C 
ATOM     33  F   UNL     1       5.824   4.284  13.959  0.00  0.00    +0.000 F 
ATOM     34  F   UNL     1       7.373   4.385  15.481  0.00  0.00    +0.000 F 
ATOM     35  F   UNL     1       5.870   2.813  15.559  0.00  0.00    +0.000 F 
ENDBRANCH  29  32
ENDBRANCH  23  26
ENDBRANCH   2  20
TORSDOF 6
ENDMDL
MODEL 2
REMARK VINA RESULT:      -8.5      0.655      1.437
REMARK  Name = 
REMARK  7 active torsions:
REMARK  status: ('A' for Active; 'I' for Inactive)
REMARK    1  A    between atoms: C_1  and  C_2
REMARK    2  A    between atoms: C_2  and  C_4
REMARK    3  A    between atoms: C_5  and  C_6
REMARK    4  A    between atoms: C_13  and  N_14
REMARK    5  A    between atoms: C_15  and  C_17
REMARK    6  A    between atoms: C_20  and  C_21
REMARK    7  A    between atoms: C_24  and  C_25
REMARK                            x       y       z     vdW  Elec       q    Type
REMARK                         _______ _______ _______ _____ _____    ______ ____
ROOT
ATOM      1  N   UNL     1      -0.374  11.041  20.585  0.00  0.00    +0.000 N 
ATOM      2  C   UNL     1      -0.033   9.839  21.161  0.00  0.00    +0.000 C 
ATOM      3  O   UNL     1      -0.359   9.456  22.286  0.00  0.00    +0.000 OA
ATOM      4  H   UNL     1      -0.002  11.231  19.668  0.00  0.00    +0.000 HD
ENDROOT
BRANCH   1  11
ATOM      5  C   UNL     1      -4.650  13.226  21.579  0.00  0.00    +0.000 A 
ATOM      6  C   UNL     1      -4.809  14.391  22.330  0.00  0.00    +0.000 A 
ATOM      7  N   UNL     1      -3.615  14.904  22.753  0.00  0.00    +0.000 NA
ATOM      8  C   UNL     1      -2.708  14.087  22.291  0.00  0.00    +0.000 A 
ATOM      9  C   UNL     1      -1.297  14.141  22.408  0.00  0.00    +0.000 A 
ATOM     10  C   UNL     1      -0.536  13.181  21.857  0.00  0.00    +0.000 A 
ATOM     11  C   UNL     1      -1.124  12.059  21.142  0.00  0.00    +0.000 A 
ATOM     12  C   UNL     1      -2.462  12.030  21.010  0.00  0.00    +0.000 A 
ATOM     13  N   UNL     1      -3.264  13.030  21.572  0.00  0.00    +0.000 N 
BRANCH   5  15
ATOM     14  C   UNL     1      -5.841  12.396  19.451  0.00  0.00    +0.000 C 
ATOM     15  C   UNL     1      -5.698  12.428  20.953  0.00  0.00    +0.000 C 
ATOM     16  O   UNL     1      -6.520  11.782  21.603  0.00  0.00    +0.000 OA
ENDBRANCH   5  15
BRANCH   6  17
ATOM     17  C   UNL     1      -6.117  15.108  22.668  0.00  0.00    +0.000 C 
ATOM     18  C   UNL     1      -6.906  14.640  23.878  0.00  0.00    +0.000 C 
ATOM     19  C   UNL     1      -6.160  15.925  23.946  0.00  0.00    +0.000 C 
ENDBRANCH   6  17
ENDBRANCH   1  11
BRANCH   2  20
ATOM     20  C   UNL     1       0.853   8.948  20.377  0.00  0.00    +0.000 A 
ATOM     21  C   UNL     1       1.196   9.374  19.090  0.00  0.00    +0.000 A 
ATOM     22  C   UNL     1       2.032   8.602  18.291  0.00  0.00    +0.000 A 
ATOM     23  C   UNL     1       2.577   7.394  18.755  0.00  0.00    +0.000 A 
ATOM     24  C   UNL     1       2.230   6.984  20.058  0.00  0.00    +0.000 A 
ATOM     25  C   UNL     1       1.373   7.750  20.863  0.00  0.00    +0.000 A 
BRANCH  23  26
ATOM     26  C   UNL     1       3.497   6.609  17.904  0.00  0.00    +0.000 A 
ATOM     27  C   UNL     1       4.271   7.235  16.908  0.00  0.00    +0.000 A 
ATOM     28  C   UNL     1       5.140   6.511  16.091  0.00  0.00    +0.000 A 
ATOM     29  C   UNL     1       5.283   5.131  16.258  0.00  0.00    +0.000 A 
ATOM     30  C   UNL     1       4.520   4.490  17.242  0.00  0.00    +0.000 A 
ATOM     31  C   UNL     1       3.636   5.218  18.046  0.00  0.00    +0.000 A 
BRANCH  29  32
ATOM     32  C   UNL     1       6.253   4.347  15.412  0.00  0.00    +0.000 C 
ATOM     33  F   UNL     1       5.797   3.110  15.067  0.00  0.00    +0.000 F 
ATOM     34  F   UNL     1       6.542   4.978  14.240  0.00  0.00    +0.000 F 
ATOM     35  F   UNL     1       7.446   4.146  16.036  0.00  0.00    +0.000 F 
ENDBRANCH  29  32
ENDBRANCH  23  26
ENDBRANCH   2  20
TORSDOF 6
ENDMDL
MODEL 3
REMARK VINA RESULT:      -8.3      0.942      1.441
REMARK  Name = 
REMARK  7 active torsions:
REMARK  status: ('A' for Active; 'I' for Inactive)
REMARK    1  A    between atoms: C_1  and  C_2
REMARK    2  A    between atoms: C_2  and  C_4
REMARK    3  A    between atoms: C_5  and  C_6
REMARK    4  A    between atoms: C_13  and  N_14
REMARK    5  A    between atoms: C_15  and  C_17
REMARK    6  A    between atoms: C_20  and  C_21
REMARK    7  A    between atoms: C_24  and  C_25
REMARK                            x       y       z     vdW  Elec       q    Type
REMARK                         _______ _______ _______ _____ _____    ______ ____
ROOT
ATOM      1  N   UNL     1      -0.876  11.392  19.996  0.00  0.00    +0.000 N 
ATOM      2  C   UNL     1      -0.255  10.355  20.654  0.00  0.00    +0.000 C 
ATOM      3  O   UNL     1      -0.375  10.078  21.848  0.00  0.00    +0.000 OA
ATOM      4  H   UNL     1      -0.651  11.516  19.021  0.00  0.00    +0.000 HD
ENDROOT
BRANCH   1  11
ATOM      5  C   UNL     1      -5.365  13.043  21.079  0.00  0.00    +0.000 A 
ATOM      6  C   UNL     1      -5.649  14.223  21.768  0.00  0.00    +0.000 A 
ATOM      7  N   UNL     1      -4.519  14.917  22.099  0.00  0.00    +0.000 NA
ATOM      8  C   UNL     1      -3.530  14.201  21.640  0.00  0.00    +0.000 A 
ATOM      9  C   UNL     1      -2.136  14.451  21.681  0.00  0.00    +0.000 A 
ATOM     10  C   UNL     1      -1.275  13.568  21.149  0.00  0.00    +0.000 A 
ATOM     11  C   UNL     1      -1.733  12.334  20.531  0.00  0.00    +0.000 A 
ATOM     12  C   UNL     1      -3.060  12.117  20.469  0.00  0.00    +0.000 A 
ATOM     13  N   UNL     1      -3.966  13.035  21.012  0.00  0.00    +0.000 N 
BRANCH   5  15
ATOM     14  C   UNL     1      -6.833  12.194  19.142  0.00  0.00    +0.000 C 
ATOM     15  C   UNL     1      -6.319  12.073  20.555  0.00  0.00    +0.000 C 
ATOM     16  O   UNL     1      -6.768  11.149  21.233  0.00  0.00    +0.000 OA
ENDBRANCH   5  15
BRANCH   6  17
ATOM     17  C   UNL     1      -7.027  14.777  22.131  0.00  0.00    +0.000 C 
ATOM     18  C   UNL     1      -7.430  14.814  23.594  0.00  0.00    +0.000 C 
ATOM     19  C   UNL     1      -7.077  16.083  22.903  0.00  0.00    +0.000 C 
ENDBRANCH   6  17
ENDBRANCH   1  11
BRANCH   2  20
ATOM     20  C   UNL     1       0.686   9.528  19.862  0.00  0.00    +0.000 A 
ATOM     21  C   UNL     1       1.215   8.398  20.492  0.00  0.00    +0.000 A 
ATOM     22  C   UNL     1       2.097   7.562  19.816  0.00  0.00    +0.000 A 
ATOM     23  C   UNL     1       2.460   7.806  18.482  0.00  0.00    +0.000 A 
ATOM     24  C   UNL     1       1.910   8.944  17.858  0.00  0.00    +0.000 A 
ATOM     25  C   UNL     1       1.033   9.801  18.540  0.00  0.00    +0.000 A 
BRANCH  23  26
ATOM     26  C   UNL     1       3.368   6.882  17.769  0.00  0.00    +0.000 A 
ATOM     27  C   UNL     1       4.387   7.373  16.931  0.00  0.00    +0.000 A 
ATOM     28  C   UNL     1       5.250   6.517  16.245  0.00  0.00    +0.000 A 
ATOM     29  C   UNL     1       5.136   5.132  16.392  0.00  0.00    +0.000 A 
ATOM     30  C   UNL     1       4.127   4.624  17.220  0.00  0.00    +0.000 A 
ATOM     31  C   UNL     1       3.253   5.487  17.891  0.00  0.00    +0.000 A 
BRANCH  29  32
ATOM     32  C   UNL     1       6.092   4.201  15.693  0.00  0.00    +0.000 C 
ATOM     33  F   UNL     1       7.346   4.208  16.226  0.00  0.00    +0.000 F 
ATOM     34  F   UNL     1       5.676   2.905  15.737  0.00  0.00    +0.000 F 
ATOM     35  F   UNL     1       6.245   4.503  14.374  0.00  0.00    +0.000 F 
ENDBRANCH  29  32
ENDBRANCH  23  26
ENDBRANCH   2  20
TORSDOF 6
ENDMDL
MODEL 4
REMARK VINA RESULT:      -8.3      0.846      1.411
REMARK  Name = 
REMARK  7 active torsions:
REMARK  status: ('A' for Active; 'I' for Inactive)
REMARK    1  A    between atoms: C_1  and  C_2
REMARK    2  A    between atoms: C_2  and  C_4
REMARK    3  A    between atoms: C_5  and  C_6
REMARK    4  A    between atoms: C_13  and  N_14
REMARK    5  A    between atoms: C_15  and  C_17
REMARK    6  A    between atoms: C_20  and  C_21
REMARK    7  A    between atoms: C_24  and  C_25
REMARK                            x       y       z     vdW  Elec       q    Type
REMARK                         _______ _______ _______ _____ _____    ______ ____
ROOT
ATOM      1  N   UNL     1      -0.045  11.424  20.583  0.00  0.00    +0.000 N 
ATOM      2  C   UNL     1       0.007  10.067  20.810  0.00  0.00    +0.000 C 
ATOM      3  O   UNL     1      -0.600   9.457  21.691  0.00  0.00    +0.000 OA
ATOM      4  H   UNL     1       0.538  11.787  19.844  0.00  0.00    +0.000 HD
ENDROOT
BRANCH   1  11
ATOM      5  C   UNL     1      -4.251  13.397  22.151  0.00  0.00    +0.000 A 
ATOM      6  C   UNL     1      -4.362  14.490  23.012  0.00  0.00    +0.000 A 
ATOM      7  N   UNL     1      -3.143  14.997  23.366  0.00  0.00    +0.000 NA
ATOM      8  C   UNL     1      -2.268  14.248  22.754  0.00  0.00    +0.000 A 
ATOM      9  C   UNL     1      -0.853  14.331  22.745  0.00  0.00    +0.000 A 
ATOM     10  C   UNL     1      -0.129  13.443  22.045  0.00  0.00    +0.000 A 
ATOM     11  C   UNL     1      -0.758  12.369  21.293  0.00  0.00    +0.000 A 
ATOM     12  C   UNL     1      -2.103  12.315  21.282  0.00  0.00    +0.000 A 
ATOM     13  N   UNL     1      -2.868  13.241  22.000  0.00  0.00    +0.000 N 
BRANCH   5  15
ATOM     14  C   UNL     1      -5.553  12.635  20.064  0.00  0.00    +0.000 C 
ATOM     15  C   UNL     1      -5.337  12.626  21.558  0.00  0.00    +0.000 C 
ATOM     16  O   UNL     1      -6.133  11.971  22.230  0.00  0.00    +0.000 OA
ENDBRANCH   5  15
BRANCH   6  17
ATOM     17  C   UNL     1      -5.646  15.138  23.529  0.00  0.00    +0.000 C 
ATOM     18  C   UNL     1      -5.811  16.639  23.374  0.00  0.00    +0.000 C 
ATOM     19  C   UNL     1      -6.598  15.726  22.504  0.00  0.00    +0.000 C 
ENDBRANCH   6  17
ENDBRANCH   1  11
BRANCH   2  20
ATOM     20  C   UNL     1       0.917   9.278  19.949  0.00  0.00    +0.000 A 
ATOM     21  C   UNL     1       1.442   8.104  20.496  0.00  0.00    +0.000 A 
ATOM     22  C   UNL     1       2.296   7.298  19.750  0.00  0.00    +0.000 A 
ATOM     23  C   UNL     1       2.634   7.619  18.426  0.00  0.00    +0.000 A 
ATOM     24  C   UNL     1       2.088   8.801  17.886  0.00  0.00    +0.000 A 
ATOM     25  C   UNL     1       1.239   9.627  18.638  0.00  0.00    +0.000 A 
BRANCH  23  26
ATOM     26  C   UNL     1       3.512   6.727  17.637  0.00  0.00    +0.000 A 
ATOM     27  C   UNL     1       4.417   7.253  16.697  0.00  0.00    +0.000 A 
ATOM     28  C   UNL     1       5.250   6.428  15.939  0.00  0.00    +0.000 A 
ATOM     29  C   UNL     1       5.220   5.042  16.113  0.00  0.00    +0.000 A 
ATOM     30  C   UNL     1       4.323   4.500  17.043  0.00  0.00    +0.000 A 
ATOM     31  C   UNL     1       3.478   5.331  17.787  0.00  0.00    +0.000 A 
BRANCH  29  32
ATOM     32  C   UNL     1       6.146   4.146  15.334  0.00  0.00    +0.000 C 
ATOM     33  F   UNL     1       5.948   2.819  15.572  0.00  0.00    +0.000 F 
ATOM     34  F   UNL     1       6.010   4.307  13.988  0.00  0.00    +0.000 F 
ATOM     35  F   UNL     1       7.458   4.383  15.610  0.00  0.00    +0.000 F 
ENDBRANCH  29  32
ENDBRANCH  23  26
ENDBRANCH   2  20
TORSDOF 6
ENDMDL
MODEL 5
REMARK VINA RESULT:      -8.2      0.889      1.399
REMARK  Name = 
REMARK  7 active torsions:
REMARK  status: ('A' for Active; 'I' for Inactive)
REMARK    1  A    between atoms: C_1  and  C_2
REMARK    2  A    between atoms: C_2  and  C_4
REMARK    3  A    between atoms: C_5  and  C_6
REMARK    4  A    between atoms: C_13  and  N_14
REMARK    5  A    between atoms: C_15  and  C_17
REMARK    6  A    between atoms: C_20  and  C_21
REMARK    7  A    between atoms: C_24  and  C_25
REMARK                            x       y       z     vdW  Elec       q    Type
REMARK                         _______ _______ _______ _____ _____    ______ ____
ROOT
ATOM      1  N   UNL     1      -0.205  11.497  20.227  0.00  0.00    +0.000 N 
ATOM      2  C   UNL     1       0.018  10.283  20.835  0.00  0.00    +0.000 C 
ATOM      3  O   UNL     1      -0.389   9.944  21.947  0.00  0.00    +0.000 OA
ATOM      4  H   UNL     1       0.223  11.644  19.326  0.00  0.00    +0.000 HD
ENDROOT
BRANCH   1  11
ATOM      5  C   UNL     1      -4.373  13.803  21.390  0.00  0.00    +0.000 A 
ATOM      6  C   UNL     1      -4.464  15.050  22.011  0.00  0.00    +0.000 A 
ATOM      7  N   UNL     1      -3.236  15.604  22.244  0.00  0.00    +0.000 NA
ATOM      8  C   UNL     1      -2.375  14.734  21.792  0.00  0.00    +0.000 A 
ATOM      9  C   UNL     1      -0.960  14.795  21.755  0.00  0.00    +0.000 A 
ATOM     10  C   UNL     1      -0.252  13.774  21.246  0.00  0.00    +0.000 A 
ATOM     11  C   UNL     1      -0.901  12.577  20.734  0.00  0.00    +0.000 A 
ATOM     12  C   UNL     1      -2.246  12.538  20.745  0.00  0.00    +0.000 A 
ATOM     13  N   UNL     1      -2.994  13.602  21.264  0.00  0.00    +0.000 N 
BRANCH   5  15
ATOM     14  C   UNL     1      -6.258  13.252  19.724  0.00  0.00    +0.000 C 
ATOM     15  C   UNL     1      -5.474  12.941  20.975  0.00  0.00    +0.000 C 
ATOM     16  O   UNL     1      -5.832  11.959  21.625  0.00  0.00    +0.000 OA
ENDBRANCH   5  15
BRANCH   6  17
ATOM     17  C   UNL     1      -5.735  15.807  22.394  0.00  0.00    +0.000 C 
ATOM     18  C   UNL     1      -6.156  15.822  23.853  0.00  0.00    +0.000 C 
ATOM     19  C   UNL     1      -5.580  17.053  23.248  0.00  0.00    +0.000 C 
ENDBRANCH   6  17
ENDBRANCH   1  11
BRANCH   2  20
ATOM     20  C   UNL     1       0.870   9.315  20.106  0.00  0.00    +0.000 A 
ATOM     21  C   UNL     1       1.208   9.641  18.789  0.00  0.00    +0.000 A 
ATOM     22  C   UNL     1       2.014   8.792  18.037  0.00  0.00    +0.000 A 
ATOM     23  C   UNL     1       2.532   7.605  18.579  0.00  0.00    +0.000 A 
ATOM     24  C   UNL     1       2.190   7.297  19.911  0.00  0.00    +0.000 A 
ATOM     25  C   UNL     1       1.364   8.140  20.669  0.00  0.00    +0.000 A 
BRANCH  23  26
ATOM     26  C   UNL     1       3.421   6.738  17.776  0.00  0.00    +0.000 A 
ATOM     27  C   UNL     1       3.267   5.339  17.788  0.00  0.00    +0.000 A 
ATOM     28  C   UNL     1       4.098   4.502  17.041  0.00  0.00    +0.000 A 
ATOM     29  C   UNL     1       5.103   5.042  16.234  0.00  0.00    +0.000 A 
ATOM     30  C   UNL     1       5.273   6.432  16.210  0.00  0.00    +0.000 A 
ATOM     31  C   UNL     1       4.448   7.265  16.976  0.00  0.00    +0.000 A 
BRANCH  29  32
ATOM     32  C   UNL     1       5.975   4.152  15.389  0.00  0.00    +0.000 C 
ATOM     33  F   UNL     1       7.301   4.461  15.461  0.00  0.00    +0.000 F 
ATOM     34  F   UNL     1       5.879   2.841  15.748  0.00  0.00    +0.000 F 
ATOM     35  F   UNL     1       5.651   4.204  14.067  0.00  0.00    +0.000 F 
ENDBRANCH  29  32
ENDBRANCH  23  26
ENDBRANCH   2  20
TORSDOF 6
ENDMDL
MODEL 6
REMARK VINA RESULT:      -8.2      1.437      1.896
REMARK  Name = 
REMARK  7 active torsions:
REMARK  status: ('A' for Active; 'I' for Inactive)
REMARK    1  A    between atoms: C_1  and  C_2
REMARK    2  A    between atoms: C_2  and  C_4
REMARK    3  A    between atoms: C_5  and  C_6
REMARK    4  A    between atoms: C_13  and  N_14
REMARK    5  A    between atoms: C_15  and  C_17
REMARK    6  A    between atoms: C_20  and  C_21
REMARK    7  A    between atoms: C_24  and  C_25
REMARK                            x       y       z     vdW  Elec       q    Type
REMARK                         _______ _______ _______ _____ _____    ______ ____
ROOT
ATOM      1  N   UNL     1      -0.243  11.794  19.834  0.00  0.00    +0.000 N 
ATOM      2  C   UNL     1      -0.082  10.604  20.508  0.00  0.00    +0.000 C 
ATOM      3  O   UNL     1      -0.554  10.327  21.611  0.00  0.00    +0.000 OA
ATOM      4  H   UNL     1       0.234  11.889  18.952  0.00  0.00    +0.000 HD
ENDROOT
BRANCH   1  11
ATOM      5  C   UNL     1      -3.779  13.967  22.446  0.00  0.00    +0.000 A 
ATOM      6  C   UNL     1      -4.006  15.342  22.516  0.00  0.00    +0.000 A 
ATOM      7  N   UNL     1      -3.137  16.052  21.735  0.00  0.00    +0.000 NA
ATOM      8  C   UNL     1      -2.366  15.158  21.179  0.00  0.00    +0.000 A 
ATOM      9  C   UNL     1      -1.302  15.326  20.259  0.00  0.00    +0.000 A 
ATOM     10  C   UNL     1      -0.622  14.260  19.810  0.00  0.00    +0.000 A 
ATOM     11  C   UNL     1      -0.937  12.911  20.255  0.00  0.00    +0.000 A 
ATOM     12  C   UNL     1      -1.968  12.756  21.106  0.00  0.00    +0.000 A 
ATOM     13  N   UNL     1      -2.690  13.860  21.573  0.00  0.00    +0.000 N 
BRANCH   5  15
ATOM     14  C   UNL     1      -4.194  12.540  24.549  0.00  0.00    +0.000 C 
ATOM     15  C   UNL     1      -4.524  12.913  23.125  0.00  0.00    +0.000 C 
ATOM     16  O   UNL     1      -5.416  12.268  22.574  0.00  0.00    +0.000 OA
ENDBRANCH   5  15
BRANCH   6  17
ATOM     17  C   UNL     1      -5.090  16.065  23.315  0.00  0.00    +0.000 C 
ATOM     18  C   UNL     1      -4.764  16.526  24.724  0.00  0.00    +0.000 C 
ATOM     19  C   UNL     1      -4.866  17.532  23.634  0.00  0.00    +0.000 C 
ENDBRANCH   6  17
ENDBRANCH   1  11
BRANCH   2  20
ATOM     20  C   UNL     1       0.781   9.585  19.868  0.00  0.00    +0.000 A 
ATOM     21  C   UNL     1       1.135   9.806  18.534  0.00  0.00    +0.000 A 
ATOM     22  C   UNL     1       1.952   8.902  17.862  0.00  0.00    +0.000 A 
ATOM     23  C   UNL     1       2.468   7.765  18.503  0.00  0.00    +0.000 A 
ATOM     24  C   UNL     1       2.110   7.563  19.852  0.00  0.00    +0.000 A 
ATOM     25  C   UNL     1       1.273   8.461  20.530  0.00  0.00    +0.000 A 
BRANCH  23  26
ATOM     26  C   UNL     1       3.368   6.839  17.782  0.00  0.00    +0.000 A 
ATOM     27  C   UNL     1       3.291   5.449  17.990  0.00  0.00    +0.000 A 
ATOM     28  C   UNL     1       4.136   4.560  17.324  0.00  0.00    +0.000 A 
ATOM     29  C   UNL     1       5.076   5.032  16.404  0.00  0.00    +0.000 A 
ATOM     30  C   UNL     1       5.168   6.412  16.186  0.00  0.00    +0.000 A 
ATOM     31  C   UNL     1       4.332   7.301  16.870  0.00  0.00    +0.000 A 
BRANCH  29  32
ATOM     32  C   UNL     1       5.960   4.077  15.646  0.00  0.00    +0.000 C 
ATOM     33  F   UNL     1       5.933   4.266  14.296  0.00  0.00    +0.000 F 
ATOM     34  F   UNL     1       7.268   4.183  16.010  0.00  0.00    +0.000 F 
ATOM     35  F   UNL     1       5.617   2.775  15.847  0.00  0.00    +0.000 F 
ENDBRANCH  29  32
ENDBRANCH  23  26
ENDBRANCH   2  20
TORSDOF 6
ENDMDL
MODEL 7
REMARK VINA RESULT:      -8.2      1.154      1.846
REMARK  Name = 
REMARK  7 active torsions:
REMARK  status: ('A' for Active; 'I' for Inactive)
REMARK    1  A    between atoms: C_1  and  C_2
REMARK    2  A    between atoms: C_2  and  C_4
REMARK    3  A    between atoms: C_5  and  C_6
REMARK    4  A    between atoms: C_13  and  N_14
REMARK    5  A    between atoms: C_15  and  C_17
REMARK    6  A    between atoms: C_20  and  C_21
REMARK    7  A    between atoms: C_24  and  C_25
REMARK                            x       y       z     vdW  Elec       q    Type
REMARK                         _______ _______ _______ _____ _____    ______ ____
ROOT
ATOM      1  N   UNL     1      -0.804  11.343  21.431  0.00  0.00    +0.000 N 
ATOM      2  C   UNL     1      -0.135  10.317  22.060  0.00  0.00    +0.000 C 
ATOM      3  O   UNL     1      -0.071  10.132  23.276  0.00  0.00    +0.000 OA
ATOM      4  H   UNL     1      -0.736  11.385  20.426  0.00  0.00    +0.000 HD
ENDROOT
BRANCH   1  11
ATOM      5  C   UNL     1      -5.001  13.580  22.625  0.00  0.00    +0.000 A 
ATOM      6  C   UNL     1      -5.109  14.749  23.379  0.00  0.00    +0.000 A 
ATOM      7  N   UNL     1      -3.890  15.249  23.741  0.00  0.00    +0.000 NA
ATOM      8  C   UNL     1      -3.016  14.420  23.238  0.00  0.00    +0.000 A 
ATOM      9  C   UNL     1      -1.600  14.458  23.286  0.00  0.00    +0.000 A 
ATOM     10  C   UNL     1      -0.879  13.488  22.702  0.00  0.00    +0.000 A 
ATOM     11  C   UNL     1      -1.513  12.370  22.021  0.00  0.00    +0.000 A 
ATOM     12  C   UNL     1      -2.857  12.357  21.954  0.00  0.00    +0.000 A 
ATOM     13  N   UNL     1      -3.619  13.368  22.551  0.00  0.00    +0.000 N 
BRANCH   5  15
ATOM     14  C   UNL     1      -6.410  12.889  20.583  0.00  0.00    +0.000 C 
ATOM     15  C   UNL     1      -6.087  12.792  22.054  0.00  0.00    +0.000 C 
ATOM     16  O   UNL     1      -6.799  12.052  22.732  0.00  0.00    +0.000 OA
ENDBRANCH   5  15
BRANCH   6  17
ATOM     17  C   UNL     1      -6.391  15.481  23.777  0.00  0.00    +0.000 C 
ATOM     18  C   UNL     1      -6.517  16.956  23.437  0.00  0.00    +0.000 C 
ATOM     19  C   UNL     1      -7.303  15.958  22.662  0.00  0.00    +0.000 C 
ENDBRANCH   6  17
ENDBRANCH   1  11
BRANCH   2  20
ATOM     20  C   UNL     1       0.621   9.381  21.196  0.00  0.00    +0.000 A 
ATOM     21  C   UNL     1       0.858   9.791  19.880  0.00  0.00    +0.000 A 
ATOM     22  C   UNL     1       1.570   8.976  19.006  0.00  0.00    +0.000 A 
ATOM     23  C   UNL     1       2.093   7.740  19.418  0.00  0.00    +0.000 A 
ATOM     24  C   UNL     1       1.854   7.347  20.751  0.00  0.00    +0.000 A 
ATOM     25  C   UNL     1       1.122   8.156  21.633  0.00  0.00    +0.000 A 
BRANCH  23  26
ATOM     26  C   UNL     1       2.882   6.909  18.484  0.00  0.00    +0.000 A 
ATOM     27  C   UNL     1       3.889   7.480  17.684  0.00  0.00    +0.000 A 
ATOM     28  C   UNL     1       4.641   6.713  16.792  0.00  0.00    +0.000 A 
ATOM     29  C   UNL     1       4.424   5.337  16.685  0.00  0.00    +0.000 A 
ATOM     30  C   UNL     1       3.424   4.751  17.472  0.00  0.00    +0.000 A 
ATOM     31  C   UNL     1       2.661   5.528  18.351  0.00  0.00    +0.000 A 
BRANCH  29  32
ATOM     32  C   UNL     1       5.261   4.493  15.760  0.00  0.00    +0.000 C 
ATOM     33  F   UNL     1       6.512   4.991  15.553  0.00  0.00    +0.000 F 
ATOM     34  F   UNL     1       5.437   3.228  16.232  0.00  0.00    +0.000 F 
ATOM     35  F   UNL     1       4.703   4.361  14.525  0.00  0.00    +0.000 F 
ENDBRANCH  29  32
ENDBRANCH  23  26
ENDBRANCH   2  20
TORSDOF 6
ENDMDL
MODEL 8
REMARK VINA RESULT:      -8.1      0.585      1.134
REMARK  Name = 
REMARK  7 active torsions:
REMARK  status: ('A' for Active; 'I' for Inactive)
REMARK    1  A    between atoms: C_1  and  C_2
REMARK    2  A    between atoms: C_2  and  C_4
REMARK    3  A    between atoms: C_5  and  C_6
REMARK    4  A    between atoms: C_13  and  N_14
REMARK    5  A    between atoms: C_15  and  C_17
REMARK    6  A    between atoms: C_20  and  C_21
REMARK    7  A    between atoms: C_24  and  C_25
REMARK                            x       y       z     vdW  Elec       q    Type
REMARK                         _______ _______ _______ _____ _____    ______ ____
ROOT
ATOM      1  N   UNL     1      -0.401  11.129  20.853  0.00  0.00    +0.000 N 
ATOM      2  C   UNL     1      -0.122   9.882  21.364  0.00  0.00    +0.000 C 
ATOM      3  O   UNL     1      -0.487   9.449  22.458  0.00  0.00    +0.000 OA
ATOM      4  H   UNL     1      -0.002  11.356  19.956  0.00  0.00    +0.000 HD
ENDROOT
BRANCH   1  11
ATOM      5  C   UNL     1      -4.519  13.700  21.549  0.00  0.00    +0.000 A 
ATOM      6  C   UNL     1      -4.675  14.750  22.454  0.00  0.00    +0.000 A 
ATOM      7  N   UNL     1      -3.521  15.027  23.132  0.00  0.00    +0.000 NA
ATOM      8  C   UNL     1      -2.643  14.173  22.680  0.00  0.00    +0.000 A 
ATOM      9  C   UNL     1      -1.275  14.017  23.015  0.00  0.00    +0.000 A 
ATOM     10  C   UNL     1      -0.542  13.057  22.431  0.00  0.00    +0.000 A 
ATOM     11  C   UNL     1      -1.118  12.144  21.456  0.00  0.00    +0.000 A 
ATOM     12  C   UNL     1      -2.410  12.317  21.121  0.00  0.00    +0.000 A 
ATOM     13  N   UNL     1      -3.181  13.321  21.717  0.00  0.00    +0.000 N 
BRANCH   5  15
ATOM     14  C   UNL     1      -6.521  12.133  21.142  0.00  0.00    +0.000 C 
ATOM     15  C   UNL     1      -5.526  13.154  20.647  0.00  0.00    +0.000 C 
ATOM     16  O   UNL     1      -5.594  13.465  19.459  0.00  0.00    +0.000 OA
ENDBRANCH   5  15
BRANCH   6  17
ATOM     17  C   UNL     1      -5.934  15.578  22.708  0.00  0.00    +0.000 C 
ATOM     18  C   UNL     1      -5.815  17.092  22.722  0.00  0.00    +0.000 C 
ATOM     19  C   UNL     1      -6.463  16.422  21.562  0.00  0.00    +0.000 C 
ENDBRANCH   6  17
ENDBRANCH   1  11
BRANCH   2  20
ATOM     20  C   UNL     1       0.741   9.001  20.545  0.00  0.00    +0.000 A 
ATOM     21  C   UNL     1       1.058   9.448  19.259  0.00  0.00    +0.000 A 
ATOM     22  C   UNL     1       1.873   8.686  18.428  0.00  0.00    +0.000 A 
ATOM     23  C   UNL     1       2.421   7.467  18.858  0.00  0.00    +0.000 A 
ATOM     24  C   UNL     1       2.100   7.036  20.161  0.00  0.00    +0.000 A 
ATOM     25  C   UNL     1       1.266   7.791  20.998  0.00  0.00    +0.000 A 
BRANCH  23  26
ATOM     26  C   UNL     1       3.318   6.693  17.973  0.00  0.00    +0.000 A 
ATOM     27  C   UNL     1       3.219   5.291  17.893  0.00  0.00    +0.000 A 
ATOM     28  C   UNL     1       4.059   4.541  17.068  0.00  0.00    +0.000 A 
ATOM     29  C   UNL     1       5.018   5.175  16.273  0.00  0.00    +0.000 A 
ATOM     30  C   UNL     1       5.133   6.569  16.341  0.00  0.00    +0.000 A 
ATOM     31  C   UNL     1       4.300   7.314  17.183  0.00  0.00    +0.000 A 
BRANCH  29  32
ATOM     32  C   UNL     1       5.899   4.380  15.345  0.00  0.00    +0.000 C 
ATOM     33  F   UNL     1       5.554   4.501  14.032  0.00  0.00    +0.000 F 
ATOM     34  F   UNL     1       7.205   4.756  15.423  0.00  0.00    +0.000 F 
ATOM     35  F   UNL     1       5.874   3.046  15.616  0.00  0.00    +0.000 F 
ENDBRANCH  29  32
ENDBRANCH  23  26
ENDBRANCH   2  20
TORSDOF 6
ENDMDL
MODEL 9
REMARK VINA RESULT:      -8.0      1.437      2.157
REMARK  Name = 
REMARK  7 active torsions:
REMARK  status: ('A' for Active; 'I' for Inactive)
REMARK    1  A    between atoms: C_1  and  C_2
REMARK    2  A    between atoms: C_2  and  C_4
REMARK    3  A    between atoms: C_5  and  C_6
REMARK    4  A    between atoms: C_13  and  N_14
REMARK    5  A    between atoms: C_15  and  C_17
REMARK    6  A    between atoms: C_20  and  C_21
REMARK    7  A    between atoms: C_24  and  C_25
REMARK                            x       y       z     vdW  Elec       q    Type
REMARK                         _______ _______ _______ _____ _____    ______ ____
ROOT
ATOM      1  N   UNL     1      -0.732  11.780  20.304  0.00  0.00    +0.000 N 
ATOM      2  C   UNL     1      -0.051  10.886  21.098  0.00  0.00    +0.000 C 
ATOM      3  O   UNL     1       0.022  10.918  22.328  0.00  0.00    +0.000 OA
ATOM      4  H   UNL     1      -0.671  11.645  19.307  0.00  0.00    +0.000 HD
ENDROOT
BRANCH   1  11
ATOM      5  C   UNL     1      -4.334  13.921  22.851  0.00  0.00    +0.000 A 
ATOM      6  C   UNL     1      -4.579  15.293  22.911  0.00  0.00    +0.000 A 
ATOM      7  N   UNL     1      -3.707  16.010  22.140  0.00  0.00    +0.000 NA
ATOM      8  C   UNL     1      -2.917  15.124  21.600  0.00  0.00    +0.000 A 
ATOM      9  C   UNL     1      -1.841  15.301  20.695  0.00  0.00    +0.000 A 
ATOM     10  C   UNL     1      -1.141  14.241  20.262  0.00  0.00    +0.000 A 
ATOM     11  C   UNL     1      -1.446  12.891  20.709  0.00  0.00    +0.000 A 
ATOM     12  C   UNL     1      -2.487  12.727  21.545  0.00  0.00    +0.000 A 
ATOM     13  N   UNL     1      -3.230  13.824  21.995  0.00  0.00    +0.000 N 
BRANCH   5  15
ATOM     14  C   UNL     1      -4.655  12.384  24.892  0.00  0.00    +0.000 C 
ATOM     15  C   UNL     1      -5.076  12.861  23.524  0.00  0.00    +0.000 C 
ATOM     16  O   UNL     1      -6.039  12.293  23.009  0.00  0.00    +0.000 OA
ENDBRANCH   5  15
BRANCH   6  17
ATOM     17  C   UNL     1      -5.684  16.007  23.690  0.00  0.00    +0.000 C 
ATOM     18  C   UNL     1      -6.352  17.213  23.055  0.00  0.00    +0.000 C 
ATOM     19  C   UNL     1      -7.096  15.927  23.137  0.00  0.00    +0.000 C 
ENDBRANCH   6  17
ENDBRANCH   1  11
BRANCH   2  20
ATOM     20  C   UNL     1       0.706   9.817  20.406  0.00  0.00    +0.000 A 
ATOM     21  C   UNL     1       1.036  10.045  19.067  0.00  0.00    +0.000 A 
ATOM     22  C   UNL     1       1.757   9.098  18.347  0.00  0.00    +0.000 A 
ATOM     23  C   UNL     1       2.197   7.905  18.943  0.00  0.00    +0.000 A 
ATOM     24  C   UNL     1       1.865   7.696  20.297  0.00  0.00    +0.000 A 
ATOM     25  C   UNL     1       1.124   8.640  21.024  0.00  0.00    +0.000 A 
BRANCH  23  26
ATOM     26  C   UNL     1       2.996   6.930  18.171  0.00  0.00    +0.000 A 
ATOM     27  C   UNL     1       4.033   7.358  17.320  0.00  0.00    +0.000 A 
ATOM     28  C   UNL     1       4.795   6.455  16.579  0.00  0.00    +0.000 A 
ATOM     29  C   UNL     1       4.559   5.081  16.681  0.00  0.00    +0.000 A 
ATOM     30  C   UNL     1       3.531   4.635  17.520  0.00  0.00    +0.000 A 
ATOM     31  C   UNL     1       2.758   5.547  18.247  0.00  0.00    +0.000 A 
BRANCH  29  32
ATOM     32  C   UNL     1       5.407   4.094  15.920  0.00  0.00    +0.000 C 
ATOM     33  F   UNL     1       5.165   2.796  16.257  0.00  0.00    +0.000 F 
ATOM     34  F   UNL     1       5.209   4.172  14.575  0.00  0.00    +0.000 F 
ATOM     35  F   UNL     1       6.740   4.289  16.117  0.00  0.00    +0.000 F 
ENDBRANCH  29  32
ENDBRANCH  23  26
ENDBRANCH   2  20
TORSDOF 6
ENDMDL
