MODEL 1
REMARK VINA RESULT:      -9.5      0.000      0.000
REMARK  Name = 
REMARK  8 active torsions:
REMARK  status: ('A' for Active; 'I' for Inactive)
REMARK    1  A    between atoms: C_1  and  C_2
REMARK    2  A    between atoms: C_4  and  C_5
REMARK    3  A    between atoms: C_10  and  N_11
REMARK    4  A    between atoms: C_12  and  C_14
REMARK    5  A    between atoms: C_19  and  C_20
REMARK    6  A    between atoms: C_22  and  O_23
REMARK    7  A    between atoms: C_30  and  N_31
REMARK    8  A    between atoms: C_32  and  O_33
REMARK                            x       y       z     vdW  Elec       q    Type
REMARK                         _______ _______ _______ _____ _____    ______ ____
ROOT
ATOM      1  N   UNL     1       2.503   6.186  20.140  0.00  0.00    +0.000 N 
ATOM      2  C   UNL     1       2.110   6.690  18.907  0.00  0.00    +0.000 C 
ATOM      3  O   UNL     1       1.918   6.044  17.882  0.00  0.00    +0.000 OA
ATOM      4  H   UNL     1       2.497   6.870  20.896  0.00  0.00    +0.000 HD
ENDROOT
BRANCH   2   5
ATOM      5  C   UNL     1       1.866   8.165  18.871  0.00  0.00    +0.000 A 
ATOM      6  C   UNL     1       2.414   8.936  17.849  0.00  0.00    +0.000 A 
ATOM      7  C   UNL     1       2.155  10.299  17.844  0.00  0.00    +0.000 A 
ATOM      8  C   UNL     1       1.358  10.841  18.845  0.00  0.00    +0.000 A 
ATOM      9  F   UNL     1       1.101  12.157  18.813  0.00  0.00    +0.000 F 
ATOM     10  C   UNL     1       0.831  10.013  19.844  0.00  0.00    +0.000 A 
ATOM     11  N   UNL     1       1.093   8.675  19.864  0.00  0.00    +0.000 NA
BRANCH  10  12
ATOM     12  C   UNL     1      -0.037  10.494  20.937  0.00  0.00    +0.000 A 
ATOM     13  C   UNL     1      -0.983  11.522  20.749  0.00  0.00    +0.000 A 
ATOM     14  C   UNL     1      -1.783  11.956  21.807  0.00  0.00    +0.000 A 
ATOM     15  C   UNL     1      -1.665  11.397  23.072  0.00  0.00    +0.000 A 
ATOM     16  C   UNL     1      -0.737  10.385  23.286  0.00  0.00    +0.000 A 
ATOM     17  C   UNL     1       0.059   9.942  22.229  0.00  0.00    +0.000 A 
ATOM     18  F   UNL     1       0.919   8.942  22.489  0.00  0.00    +0.000 F 
BRANCH  14  19
ATOM     19  O   UNL     1      -2.706  12.945  21.641  0.00  0.00    +0.000 OA
ATOM     20  H   UNL     1      -2.462  13.710  22.189  0.00  0.00    +0.000 HD
ENDBRANCH  14  19
ENDBRANCH  10  12
ENDBRANCH   2   5
BRANCH   1  26
ATOM     21  C   UNL     1       3.890   4.176  19.731  0.00  0.00    +0.000 A 
ATOM     22  C   UNL     1       4.138   2.826  20.054  0.00  0.00    +0.000 A 
ATOM     23  C   UNL     1       3.388   2.199  21.036  0.00  0.00    +0.000 A 
ATOM     24  N   UNL     1       2.391   2.798  21.701  0.00  0.00    +0.000 NA
ATOM     25  C   UNL     1       2.142   4.090  21.371  0.00  0.00    +0.000 A 
ATOM     26  C   UNL     1       2.838   4.835  20.416  0.00  0.00    +0.000 A 
BRANCH  21  30
ATOM     27  C   UNL     1       5.966   3.994  15.103  0.00  0.00    +0.000 C 
ATOM     28  C   UNL     1       5.762   4.828  16.371  0.00  0.00    +0.000 C 
ATOM     29  C   UNL     1       4.975   4.036  17.431  0.00  0.00    +0.000 C 
ATOM     30  C   UNL     1       4.785   4.869  18.712  0.00  0.00    +0.000 C 
ATOM     31  C   UNL     1       6.167   5.274  19.271  0.00  0.00    +0.000 C 
ATOM     32  C   UNL     1       6.898   6.143  18.242  0.00  0.00    +0.000 C 
ATOM     33  C   UNL     1       7.104   5.350  16.921  0.00  0.00    +0.000 C 
BRANCH  32  34
ATOM     34  N   UNL     1       8.162   6.653  18.782  0.00  0.00    +0.000 NA
ATOM     35  H   UNL     1       8.665   7.182  18.071  0.00  0.00    +0.000 HD
ATOM     36  H   UNL     1       8.769   5.876  19.045  0.00  0.00    +0.000 HD
ENDBRANCH  32  34
BRANCH  33  37
ATOM     37  O   UNL     1       7.710   6.174  15.921  0.00  0.00    +0.000 OA
ATOM     38  H   UNL     1       7.068   6.867  15.686  0.00  0.00    +0.000 HD
ENDBRANCH  33  37
ENDBRANCH  21  30
ENDBRANCH   1  26
TORSDOF 7
ENDMDL
MODEL 2
REMARK VINA RESULT:      -9.5      1.349      1.433
REMARK  Name = 
REMARK  8 active torsions:
REMARK  status: ('A' for Active; 'I' for Inactive)
REMARK    1  A    between atoms: C_1  and  C_2
REMARK    2  A    between atoms: C_4  and  C_5
REMARK    3  A    between atoms: C_10  and  N_11
REMARK    4  A    between atoms: C_12  and  C_14
REMARK    5  A    between atoms: C_19  and  C_20
REMARK    6  A    between atoms: C_22  and  O_23
REMARK    7  A    between atoms: C_30  and  N_31
REMARK    8  A    between atoms: C_32  and  O_33
REMARK                            x       y       z     vdW  Elec       q    Type
REMARK                         _______ _______ _______ _____ _____    ______ ____
ROOT
ATOM      1  N   UNL     1       2.103   5.690  18.465  0.00  0.00    +0.000 N 
ATOM      2  C   UNL     1       2.115   6.550  19.555  0.00  0.00    +0.000 C 
ATOM      3  O   UNL     1       2.338   6.246  20.722  0.00  0.00    +0.000 OA
ATOM      4  H   UNL     1       2.009   6.154  17.562  0.00  0.00    +0.000 HD
ENDROOT
BRANCH   2   5
ATOM      5  C   UNL     1       1.865   7.989  19.233  0.00  0.00    +0.000 A 
ATOM      6  C   UNL     1       2.452   8.562  18.108  0.00  0.00    +0.000 A 
ATOM      7  C   UNL     1       2.186   9.897  17.838  0.00  0.00    +0.000 A 
ATOM      8  C   UNL     1       1.345  10.606  18.687  0.00  0.00    +0.000 A 
ATOM      9  F   UNL     1       1.083  11.889  18.398  0.00  0.00    +0.000 F 
ATOM     10  C   UNL     1       0.781   9.972  19.801  0.00  0.00    +0.000 A 
ATOM     11  N   UNL     1       1.049   8.666  20.082  0.00  0.00    +0.000 NA
BRANCH  10  12
ATOM     12  C   UNL     1      -0.135  10.638  20.748  0.00  0.00    +0.000 A 
ATOM     13  C   UNL     1      -1.103  11.572  20.328  0.00  0.00    +0.000 A 
ATOM     14  C   UNL     1      -1.949  12.186  21.253  0.00  0.00    +0.000 A 
ATOM     15  C   UNL     1      -1.855  11.904  22.609  0.00  0.00    +0.000 A 
ATOM     16  C   UNL     1      -0.905  10.991  23.051  0.00  0.00    +0.000 A 
ATOM     17  C   UNL     1      -0.063  10.368  22.129  0.00  0.00    +0.000 A 
ATOM     18  F   UNL     1       0.817   9.473  22.611  0.00  0.00    +0.000 F 
BRANCH  14  19
ATOM     19  O   UNL     1      -2.895  13.088  20.863  0.00  0.00    +0.000 OA
ATOM     20  H   UNL     1      -3.280  13.511  21.648  0.00  0.00    +0.000 HD
ENDBRANCH  14  19
ENDBRANCH  10  12
ENDBRANCH   2   5
BRANCH   1  26
ATOM     21  C   UNL     1       3.322   3.629  17.835  0.00  0.00    +0.000 A 
ATOM     22  C   UNL     1       3.392   2.223  17.925  0.00  0.00    +0.000 A 
ATOM     23  C   UNL     1       2.467   1.530  18.689  0.00  0.00    +0.000 A 
ATOM     24  N   UNL     1       1.460   2.120  19.347  0.00  0.00    +0.000 NA
ATOM     25  C   UNL     1       1.384   3.471  19.240  0.00  0.00    +0.000 A 
ATOM     26  C   UNL     1       2.265   4.281  18.518  0.00  0.00    +0.000 A 
BRANCH  21  30
ATOM     27  C   UNL     1       6.138   3.825  13.617  0.00  0.00    +0.000 C 
ATOM     28  C   UNL     1       5.756   4.529  14.922  0.00  0.00    +0.000 C 
ATOM     29  C   UNL     1       4.773   3.674  15.742  0.00  0.00    +0.000 C 
ATOM     30  C   UNL     1       4.402   4.374  17.062  0.00  0.00    +0.000 C 
ATOM     31  C   UNL     1       5.684   4.638  17.882  0.00  0.00    +0.000 C 
ATOM     32  C   UNL     1       6.611   5.569  17.092  0.00  0.00    +0.000 C 
ATOM     33  C   UNL     1       7.005   4.912  15.740  0.00  0.00    +0.000 C 
BRANCH  32  34
ATOM     34  N   UNL     1       7.784   5.946  17.886  0.00  0.00    +0.000 NA
ATOM     35  H   UNL     1       8.604   5.423  17.580  0.00  0.00    +0.000 HD
ATOM     36  H   UNL     1       7.638   5.700  18.866  0.00  0.00    +0.000 HD
ENDBRANCH  32  34
BRANCH  33  37
ATOM     37  O   UNL     1       7.802   5.802  14.954  0.00  0.00    +0.000 OA
ATOM     38  H   UNL     1       7.725   6.689  15.347  0.00  0.00    +0.000 HD
ENDBRANCH  33  37
ENDBRANCH  21  30
ENDBRANCH   1  26
TORSDOF 7
ENDMDL
MODEL 3
REMARK VINA RESULT:      -9.4      1.675      1.842
REMARK  Name = 
REMARK  8 active torsions:
REMARK  status: ('A' for Active; 'I' for Inactive)
REMARK    1  A    between atoms: C_1  and  C_2
REMARK    2  A    between atoms: C_4  and  C_5
REMARK    3  A    between atoms: C_10  and  N_11
REMARK    4  A    between atoms: C_12  and  C_14
REMARK    5  A    between atoms: C_19  and  C_20
REMARK    6  A    between atoms: C_22  and  O_23
REMARK    7  A    between atoms: C_30  and  N_31
REMARK    8  A    between atoms: C_32  and  O_33
REMARK                            x       y       z     vdW  Elec       q    Type
REMARK                         _______ _______ _______ _____ _____    ______ ____
ROOT
ATOM      1  N   UNL     1       1.984   6.377  19.067  0.00  0.00    +0.000 N 
ATOM      2  C   UNL     1       1.657   7.330  20.023  0.00  0.00    +0.000 C 
ATOM      3  O   UNL     1       1.523   7.138  21.227  0.00  0.00    +0.000 OA
ATOM      4  H   UNL     1       2.160   6.757  18.137  0.00  0.00    +0.000 HD
ENDROOT
BRANCH   2   5
ATOM      5  C   UNL     1       1.498   8.724  19.506  0.00  0.00    +0.000 A 
ATOM      6  C   UNL     1       2.194   9.127  18.369  0.00  0.00    +0.000 A 
ATOM      7  C   UNL     1       2.010  10.425  17.914  0.00  0.00    +0.000 A 
ATOM      8  C   UNL     1       1.142  11.267  18.598  0.00  0.00    +0.000 A 
ATOM      9  F   UNL     1       0.961  12.511  18.132  0.00  0.00    +0.000 F 
ATOM     10  C   UNL     1       0.467  10.801  19.733  0.00  0.00    +0.000 A 
ATOM     11  N   UNL     1       0.653   9.532  20.195  0.00  0.00    +0.000 NA
BRANCH  10  12
ATOM     12  C   UNL     1      -0.486  11.615  20.514  0.00  0.00    +0.000 A 
ATOM     13  C   UNL     1      -0.141  12.194  21.753  0.00  0.00    +0.000 A 
ATOM     14  C   UNL     1      -1.070  12.953  22.466  0.00  0.00    +0.000 A 
ATOM     15  C   UNL     1      -2.357  13.152  21.985  0.00  0.00    +0.000 A 
ATOM     16  C   UNL     1      -2.723  12.587  20.769  0.00  0.00    +0.000 A 
ATOM     17  C   UNL     1      -1.797  11.835  20.047  0.00  0.00    +0.000 A 
ATOM     18  F   UNL     1      -2.199  11.337  18.865  0.00  0.00    +0.000 F 
BRANCH  14  19
ATOM     19  O   UNL     1      -0.752  13.525  23.663  0.00  0.00    +0.000 OA
ATOM     20  H   UNL     1      -0.646  14.484  23.544  0.00  0.00    +0.000 HD
ENDBRANCH  14  19
ENDBRANCH  10  12
ENDBRANCH   2   5
BRANCH   1  26
ATOM     21  C   UNL     1       3.200   4.250  18.716  0.00  0.00    +0.000 A 
ATOM     22  C   UNL     1       3.263   2.866  18.984  0.00  0.00    +0.000 A 
ATOM     23  C   UNL     1       2.328   2.279  19.820  0.00  0.00    +0.000 A 
ATOM     24  N   UNL     1       1.317   2.951  20.387  0.00  0.00    +0.000 NA
ATOM     25  C   UNL     1       1.247   4.277  20.109  0.00  0.00    +0.000 A 
ATOM     26  C   UNL     1       2.139   4.986  19.299  0.00  0.00    +0.000 A 
BRANCH  21  30
ATOM     27  C   UNL     1       5.870   4.046  14.404  0.00  0.00    +0.000 C 
ATOM     28  C   UNL     1       5.573   4.843  15.677  0.00  0.00    +0.000 C 
ATOM     29  C   UNL     1       4.575   4.093  16.578  0.00  0.00    +0.000 C 
ATOM     30  C   UNL     1       4.290   4.888  17.865  0.00  0.00    +0.000 C 
ATOM     31  C   UNL     1       5.614   5.126  18.626  0.00  0.00    +0.000 C 
ATOM     32  C   UNL     1       6.560   5.956  17.753  0.00  0.00    +0.000 C 
ATOM     33  C   UNL     1       6.870   5.202  16.430  0.00  0.00    +0.000 C 
BRANCH  32  34
ATOM     34  N   UNL     1       7.780   6.311  18.484  0.00  0.00    +0.000 NA
ATOM     35  H   UNL     1       8.358   6.940  17.929  0.00  0.00    +0.000 HD
ATOM     36  H   UNL     1       8.344   5.477  18.651  0.00  0.00    +0.000 HD
ENDBRANCH  32  34
BRANCH  33  37
ATOM     37  O   UNL     1       7.685   5.999  15.567  0.00  0.00    +0.000 OA
ATOM     38  H   UNL     1       7.154   6.766  15.290  0.00  0.00    +0.000 HD
ENDBRANCH  33  37
ENDBRANCH  21  30
ENDBRANCH   1  26
TORSDOF 7
ENDMDL
MODEL 4
REMARK VINA RESULT:      -9.2      1.502      1.686
REMARK  Name = 
REMARK  8 active torsions:
REMARK  status: ('A' for Active; 'I' for Inactive)
REMARK    1  A    between atoms: C_1  and  C_2
REMARK    2  A    between atoms: C_4  and  C_5
REMARK    3  A    between atoms: C_10  and  N_11
REMARK    4  A    between atoms: C_12  and  C_14
REMARK    5  A    between atoms: C_19  and  C_20
REMARK    6  A    between atoms: C_22  and  O_23
REMARK    7  A    between atoms: C_30  and  N_31
REMARK    8  A    between atoms: C_32  and  O_33
REMARK                            x       y       z     vdW  Elec       q    Type
REMARK                         _______ _______ _______ _____ _____    ______ ____
ROOT
ATOM      1  N   UNL     1       1.907   6.287  19.154  0.00  0.00    +0.000 N 
ATOM      2  C   UNL     1       1.783   7.259  20.139  0.00  0.00    +0.000 C 
ATOM      3  O   UNL     1       1.892   7.089  21.349  0.00  0.00    +0.000 OA
ATOM      4  H   UNL     1       1.894   6.649  18.201  0.00  0.00    +0.000 HD
ENDROOT
BRANCH   2   5
ATOM      5  C   UNL     1       1.530   8.645  19.638  0.00  0.00    +0.000 A 
ATOM      6  C   UNL     1       1.887   8.990  18.337  0.00  0.00    +0.000 A 
ATOM      7  C   UNL     1       1.625  10.283  17.907  0.00  0.00    +0.000 A 
ATOM      8  C   UNL     1       1.015  11.177  18.778  0.00  0.00    +0.000 A 
ATOM      9  F   UNL     1       0.751  12.416  18.337  0.00  0.00    +0.000 F 
ATOM     10  C   UNL     1       0.676  10.768  20.073  0.00  0.00    +0.000 A 
ATOM     11  N   UNL     1       0.943   9.505  20.509  0.00  0.00    +0.000 NA
BRANCH  10  12
ATOM     12  C   UNL     1       0.012  11.641  21.062  0.00  0.00    +0.000 A 
ATOM     13  C   UNL     1      -1.162  11.253  21.740  0.00  0.00    +0.000 A 
ATOM     14  C   UNL     1      -1.765  12.107  22.665  0.00  0.00    +0.000 A 
ATOM     15  C   UNL     1      -1.236  13.361  22.936  0.00  0.00    +0.000 A 
ATOM     16  C   UNL     1      -0.082  13.770  22.278  0.00  0.00    +0.000 A 
ATOM     17  C   UNL     1       0.530  12.917  21.359  0.00  0.00    +0.000 A 
ATOM     18  F   UNL     1       1.658  13.356  20.774  0.00  0.00    +0.000 F 
BRANCH  14  19
ATOM     19  O   UNL     1      -2.897  11.744  23.334  0.00  0.00    +0.000 OA
ATOM     20  H   UNL     1      -2.683  11.585  24.268  0.00  0.00    +0.000 HD
ENDBRANCH  14  19
ENDBRANCH  10  12
ENDBRANCH   2   5
BRANCH   1  26
ATOM     21  C   UNL     1       3.195   4.201  18.811  0.00  0.00    +0.000 A 
ATOM     22  C   UNL     1       3.293   2.817  19.067  0.00  0.00    +0.000 A 
ATOM     23  C   UNL     1       2.358   2.193  19.876  0.00  0.00    +0.000 A 
ATOM     24  N   UNL     1       1.315   2.829  20.427  0.00  0.00    +0.000 NA
ATOM     25  C   UNL     1       1.212   4.155  20.160  0.00  0.00    +0.000 A 
ATOM     26  C   UNL     1       2.099   4.899  19.377  0.00  0.00    +0.000 A 
BRANCH  21  30
ATOM     27  C   UNL     1       5.847   4.220  14.483  0.00  0.00    +0.000 C 
ATOM     28  C   UNL     1       5.558   4.949  15.798  0.00  0.00    +0.000 C 
ATOM     29  C   UNL     1       4.561   4.155  16.662  0.00  0.00    +0.000 C 
ATOM     30  C   UNL     1       4.284   4.880  17.991  0.00  0.00    +0.000 C 
ATOM     31  C   UNL     1       5.611   5.073  18.758  0.00  0.00    +0.000 C 
ATOM     32  C   UNL     1       6.557   5.946  17.926  0.00  0.00    +0.000 C 
ATOM     33  C   UNL     1       6.859   5.263  16.564  0.00  0.00    +0.000 C 
BRANCH  32  34
ATOM     34  N   UNL     1       7.781   6.258  18.671  0.00  0.00    +0.000 NA
ATOM     35  H   UNL     1       7.790   5.765  19.563  0.00  0.00    +0.000 HD
ATOM     36  H   UNL     1       7.811   7.253  18.894  0.00  0.00    +0.000 HD
ENDBRANCH  32  34
BRANCH  33  37
ATOM     37  O   UNL     1       7.673   6.102  15.741  0.00  0.00    +0.000 OA
ATOM     38  H   UNL     1       8.277   6.589  16.328  0.00  0.00    +0.000 HD
ENDBRANCH  33  37
ENDBRANCH  21  30
ENDBRANCH   1  26
TORSDOF 7
ENDMDL
MODEL 5
REMARK VINA RESULT:      -9.2      1.658      2.004
REMARK  Name = 
REMARK  8 active torsions:
REMARK  status: ('A' for Active; 'I' for Inactive)
REMARK    1  A    between atoms: C_1  and  C_2
REMARK    2  A    between atoms: C_4  and  C_5
REMARK    3  A    between atoms: C_10  and  N_11
REMARK    4  A    between atoms: C_12  and  C_14
REMARK    5  A    between atoms: C_19  and  C_20
REMARK    6  A    between atoms: C_22  and  O_23
REMARK    7  A    between atoms: C_30  and  N_31
REMARK    8  A    between atoms: C_32  and  O_33
REMARK                            x       y       z     vdW  Elec       q    Type
REMARK                         _______ _______ _______ _____ _____    ______ ____
ROOT
ATOM      1  N   UNL     1       2.175   5.461  18.661  0.00  0.00    +0.000 N 
ATOM      2  C   UNL     1       2.115   6.345  19.729  0.00  0.00    +0.000 C 
ATOM      3  O   UNL     1       2.276   6.070  20.914  0.00  0.00    +0.000 OA
ATOM      4  H   UNL     1       2.127   5.904  17.743  0.00  0.00    +0.000 HD
ENDROOT
BRANCH   2   5
ATOM      5  C   UNL     1       1.867   7.773  19.362  0.00  0.00    +0.000 A 
ATOM      6  C   UNL     1       2.274   8.252  18.119  0.00  0.00    +0.000 A 
ATOM      7  C   UNL     1       2.015   9.580  17.812  0.00  0.00    +0.000 A 
ATOM      8  C   UNL     1       1.358  10.376  18.742  0.00  0.00    +0.000 A 
ATOM      9  F   UNL     1       1.097  11.651  18.419  0.00  0.00    +0.000 F 
ATOM     10  C   UNL     1       0.969   9.834  19.974  0.00  0.00    +0.000 A 
ATOM     11  N   UNL     1       1.233   8.535  20.290  0.00  0.00    +0.000 NA
BRANCH  10  12
ATOM     12  C   UNL     1       0.253  10.596  21.016  0.00  0.00    +0.000 A 
ATOM     13  C   UNL     1       0.258  12.005  21.055  0.00  0.00    +0.000 A 
ATOM     14  C   UNL     1      -0.426  12.692  22.060  0.00  0.00    +0.000 A 
ATOM     15  C   UNL     1      -1.119  12.011  23.051  0.00  0.00    +0.000 A 
ATOM     16  C   UNL     1      -1.136  10.622  23.039  0.00  0.00    +0.000 A 
ATOM     17  C   UNL     1      -0.462   9.930  22.032  0.00  0.00    +0.000 A 
ATOM     18  F   UNL     1      -0.536   8.588  22.056  0.00  0.00    +0.000 F 
BRANCH  14  19
ATOM     19  O   UNL     1      -0.436  14.055  22.109  0.00  0.00    +0.000 OA
ATOM     20  H   UNL     1      -1.002  14.399  21.397  0.00  0.00    +0.000 HD
ENDBRANCH  14  19
ENDBRANCH  10  12
ENDBRANCH   2   5
BRANCH   1  26
ATOM     21  C   UNL     1       3.525   3.421  18.279  0.00  0.00    +0.000 A 
ATOM     22  C   UNL     1       3.603   2.017  18.392  0.00  0.00    +0.000 A 
ATOM     23  C   UNL     1       2.568   1.310  18.983  0.00  0.00    +0.000 A 
ATOM     24  N   UNL     1       1.448   1.885  19.443  0.00  0.00    +0.000 NA
ATOM     25  C   UNL     1       1.368   3.233  19.313  0.00  0.00    +0.000 A 
ATOM     26  C   UNL     1       2.350   4.056  18.754  0.00  0.00    +0.000 A 
BRANCH  21  30
ATOM     27  C   UNL     1       7.865   5.862  19.264  0.00  0.00    +0.000 C 
ATOM     28  C   UNL     1       6.924   5.333  18.178  0.00  0.00    +0.000 C 
ATOM     29  C   UNL     1       5.666   4.699  18.799  0.00  0.00    +0.000 C 
ATOM     30  C   UNL     1       4.713   4.183  17.706  0.00  0.00    +0.000 C 
ATOM     31  C   UNL     1       4.312   5.353  16.779  0.00  0.00    +0.000 C 
ATOM     32  C   UNL     1       5.565   5.910  16.094  0.00  0.00    +0.000 C 
ATOM     33  C   UNL     1       6.569   6.434  17.158  0.00  0.00    +0.000 C 
BRANCH  32  34
ATOM     34  N   UNL     1       5.216   6.940  15.111  0.00  0.00    +0.000 NA
ATOM     35  H   UNL     1       5.336   6.584  14.164  0.00  0.00    +0.000 HD
ATOM     36  H   UNL     1       5.848   7.737  15.199  0.00  0.00    +0.000 HD
ENDBRANCH  32  34
BRANCH  33  37
ATOM     37  O   UNL     1       7.779   6.882  16.541  0.00  0.00    +0.000 OA
ATOM     38  H   UNL     1       8.465   6.217  16.728  0.00  0.00    +0.000 HD
ENDBRANCH  33  37
ENDBRANCH  21  30
ENDBRANCH   1  26
TORSDOF 7
ENDMDL
MODEL 6
REMARK VINA RESULT:      -9.1      1.451      1.651
REMARK  Name = 
REMARK  8 active torsions:
REMARK  status: ('A' for Active; 'I' for Inactive)
REMARK    1  A    between atoms: C_1  and  C_2
REMARK    2  A    between atoms: C_4  and  C_5
REMARK    3  A    between atoms: C_10  and  N_11
REMARK    4  A    between atoms: C_12  and  C_14
REMARK    5  A    between atoms: C_19  and  C_20
REMARK    6  A    between atoms: C_22  and  O_23
REMARK    7  A    between atoms: C_30  and  N_31
REMARK    8  A    between atoms: C_32  and  O_33
REMARK                            x       y       z     vdW  Elec       q    Type
REMARK                         _______ _______ _______ _____ _____    ______ ____
ROOT
ATOM      1  N   UNL     1       2.009   6.672  19.588  0.00  0.00    +0.000 N 
ATOM      2  C   UNL     1       1.458   7.631  20.427  0.00  0.00    +0.000 C 
ATOM      3  O   UNL     1       1.187   7.492  21.615  0.00  0.00    +0.000 OA
ATOM      4  H   UNL     1       2.265   7.018  18.663  0.00  0.00    +0.000 HD
ENDROOT
BRANCH   2   5
ATOM      5  C   UNL     1       1.220   8.967  19.798  0.00  0.00    +0.000 A 
ATOM      6  C   UNL     1       2.019   9.389  18.739  0.00  0.00    +0.000 A 
ATOM      7  C   UNL     1       1.759  10.630  18.175  0.00  0.00    +0.000 A 
ATOM      8  C   UNL     1       0.716  11.398  18.678  0.00  0.00    +0.000 A 
ATOM      9  F   UNL     1       0.466  12.586  18.107  0.00  0.00    +0.000 F 
ATOM     10  C   UNL     1      -0.056  10.916  19.742  0.00  0.00    +0.000 A 
ATOM     11  N   UNL     1       0.202   9.705  20.312  0.00  0.00    +0.000 NA
BRANCH  10  12
ATOM     12  C   UNL     1      -1.192  11.652  20.332  0.00  0.00    +0.000 A 
ATOM     13  C   UNL     1      -2.317  12.034  19.571  0.00  0.00    +0.000 A 
ATOM     14  C   UNL     1      -3.371  12.734  20.161  0.00  0.00    +0.000 A 
ATOM     15  C   UNL     1      -3.339  13.080  21.505  0.00  0.00    +0.000 A 
ATOM     16  C   UNL     1      -2.240  12.720  22.276  0.00  0.00    +0.000 A 
ATOM     17  C   UNL     1      -1.188  12.013  21.694  0.00  0.00    +0.000 A 
ATOM     18  F   UNL     1      -0.165  11.668  22.495  0.00  0.00    +0.000 F 
BRANCH  14  19
ATOM     19  O   UNL     1      -4.467  13.106  19.442  0.00  0.00    +0.000 OA
ATOM     20  H   UNL     1      -4.988  13.746  19.955  0.00  0.00    +0.000 HD
ENDBRANCH  14  19
ENDBRANCH  10  12
ENDBRANCH   2   5
BRANCH   1  26
ATOM     21  C   UNL     1       3.431   4.650  19.452  0.00  0.00    +0.000 A 
ATOM     22  C   UNL     1       3.608   3.303  19.830  0.00  0.00    +0.000 A 
ATOM     23  C   UNL     1       2.693   2.692  20.672  0.00  0.00    +0.000 A 
ATOM     24  N   UNL     1       1.600   3.305  21.145  0.00  0.00    +0.000 NA
ATOM     25  C   UNL     1       1.421   4.594  20.761  0.00  0.00    +0.000 A 
ATOM     26  C   UNL     1       2.281   5.323  19.934  0.00  0.00    +0.000 A 
BRANCH  21  30
ATOM     27  C   UNL     1       5.643   4.943  14.893  0.00  0.00    +0.000 C 
ATOM     28  C   UNL     1       5.554   5.537  16.302  0.00  0.00    +0.000 C 
ATOM     29  C   UNL     1       4.573   4.736  17.177  0.00  0.00    +0.000 C 
ATOM     30  C   UNL     1       4.496   5.324  18.598  0.00  0.00    +0.000 C 
ATOM     31  C   UNL     1       5.904   5.314  19.235  0.00  0.00    +0.000 C 
ATOM     32  C   UNL     1       6.845   6.193  18.405  0.00  0.00    +0.000 C 
ATOM     33  C   UNL     1       6.947   5.649  16.953  0.00  0.00    +0.000 C 
BRANCH  32  34
ATOM     34  N   UNL     1       8.159   6.311  19.044  0.00  0.00    +0.000 NA
ATOM     35  H   UNL     1       8.187   5.765  19.904  0.00  0.00    +0.000 HD
ATOM     36  H   UNL     1       8.331   7.280  19.315  0.00  0.00    +0.000 HD
ENDBRANCH  32  34
BRANCH  33  37
ATOM     37  O   UNL     1       7.755   6.505  16.143  0.00  0.00    +0.000 OA
ATOM     38  H   UNL     1       7.427   7.414  16.261  0.00  0.00    +0.000 HD
ENDBRANCH  33  37
ENDBRANCH  21  30
ENDBRANCH   1  26
TORSDOF 7
ENDMDL
MODEL 7
REMARK VINA RESULT:      -9.0      3.360      9.420
REMARK  Name = 
REMARK  8 active torsions:
REMARK  status: ('A' for Active; 'I' for Inactive)
REMARK    1  A    between atoms: C_1  and  C_2
REMARK    2  A    between atoms: C_4  and  C_5
REMARK    3  A    between atoms: C_10  and  N_11
REMARK    4  A    between atoms: C_12  and  C_14
REMARK    5  A    between atoms: C_19  and  C_20
REMARK    6  A    between atoms: C_22  and  O_23
REMARK    7  A    between atoms: C_30  and  N_31
REMARK    8  A    between atoms: C_32  and  O_33
REMARK                            x       y       z     vdW  Elec       q    Type
REMARK                         _______ _______ _______ _____ _____    ______ ____
ROOT
ATOM      1  N   UNL     1       1.367  11.095  19.772  0.00  0.00    +0.000 N 
ATOM      2  C   UNL     1       1.650  10.044  18.909  0.00  0.00    +0.000 C 
ATOM      3  O   UNL     1       1.910  10.132  17.713  0.00  0.00    +0.000 OA
ATOM      4  H   UNL     1       1.291  10.826  20.752  0.00  0.00    +0.000 HD
ENDROOT
BRANCH   2   5
ATOM      5  C   UNL     1       1.673   8.689  19.540  0.00  0.00    +0.000 A 
ATOM      6  C   UNL     1       0.959   8.457  20.713  0.00  0.00    +0.000 A 
ATOM      7  C   UNL     1       0.996   7.182  21.261  0.00  0.00    +0.000 A 
ATOM      8  C   UNL     1       1.729   6.190  20.623  0.00  0.00    +0.000 A 
ATOM      9  F   UNL     1       1.736   4.960  21.156  0.00  0.00    +0.000 F 
ATOM     10  C   UNL     1       2.422   6.485  19.442  0.00  0.00    +0.000 A 
ATOM     11  N   UNL     1       2.404   7.737  18.905  0.00  0.00    +0.000 NA
BRANCH  10  12
ATOM     12  C   UNL     1       3.213   5.494  18.685  0.00  0.00    +0.000 A 
ATOM     13  C   UNL     1       4.597   5.319  18.893  0.00  0.00    +0.000 A 
ATOM     14  C   UNL     1       5.314   4.376  18.155  0.00  0.00    +0.000 A 
ATOM     15  C   UNL     1       4.692   3.594  17.192  0.00  0.00    +0.000 A 
ATOM     16  C   UNL     1       3.330   3.751  16.963  0.00  0.00    +0.000 A 
ATOM     17  C   UNL     1       2.606   4.685  17.704  0.00  0.00    +0.000 A 
ATOM     18  F   UNL     1       1.287   4.773  17.459  0.00  0.00    +0.000 F 
BRANCH  14  19
ATOM     19  O   UNL     1       6.651   4.190  18.348  0.00  0.00    +0.000 OA
ATOM     20  H   UNL     1       6.963   4.790  19.046  0.00  0.00    +0.000 HD
ENDBRANCH  14  19
ENDBRANCH  10  12
ENDBRANCH   2   5
BRANCH   1  26
ATOM     21  C   UNL     1       0.004  13.006  18.985  0.00  0.00    +0.000 A 
ATOM     22  C   UNL     1      -0.022  14.367  18.618  0.00  0.00    +0.000 A 
ATOM     23  C   UNL     1       1.130  15.132  18.708  0.00  0.00    +0.000 A 
ATOM     24  N   UNL     1       2.313  14.643  19.105  0.00  0.00    +0.000 NA
ATOM     25  C   UNL     1       2.338  13.328  19.436  0.00  0.00    +0.000 A 
ATOM     26  C   UNL     1       1.242  12.460  19.406  0.00  0.00    +0.000 A 
BRANCH  21  30
ATOM     27  C   UNL     1      -3.211  10.228  16.208  0.00  0.00    +0.000 C 
ATOM     28  C   UNL     1      -2.866  10.752  17.605  0.00  0.00    +0.000 C 
ATOM     29  C   UNL     1      -1.631  11.670  17.560  0.00  0.00    +0.000 C 
ATOM     30  C   UNL     1      -1.295  12.209  18.962  0.00  0.00    +0.000 C 
ATOM     31  C   UNL     1      -2.510  12.984  19.520  0.00  0.00    +0.000 C 
ATOM     32  C   UNL     1      -3.704  12.033  19.649  0.00  0.00    +0.000 C 
ATOM     33  C   UNL     1      -4.077  11.448  18.258  0.00  0.00    +0.000 C 
BRANCH  32  34
ATOM     34  N   UNL     1      -4.842  12.697  20.291  0.00  0.00    +0.000 NA
ATOM     35  H   UNL     1      -5.715  12.421  19.843  0.00  0.00    +0.000 HD
ATOM     36  H   UNL     1      -4.768  13.708  20.176  0.00  0.00    +0.000 HD
ENDBRANCH  32  34
BRANCH  33  37
ATOM     37  O   UNL     1      -5.135  10.494  18.373  0.00  0.00    +0.000 OA
ATOM     38  H   UNL     1      -5.710  10.600  17.594  0.00  0.00    +0.000 HD
ENDBRANCH  33  37
ENDBRANCH  21  30
ENDBRANCH   1  26
TORSDOF 7
ENDMDL
MODEL 8
REMARK VINA RESULT:      -8.9      1.888      2.350
REMARK  Name = 
REMARK  8 active torsions:
REMARK  status: ('A' for Active; 'I' for Inactive)
REMARK    1  A    between atoms: C_1  and  C_2
REMARK    2  A    between atoms: C_4  and  C_5
REMARK    3  A    between atoms: C_10  and  N_11
REMARK    4  A    between atoms: C_12  and  C_14
REMARK    5  A    between atoms: C_19  and  C_20
REMARK    6  A    between atoms: C_22  and  O_23
REMARK    7  A    between atoms: C_30  and  N_31
REMARK    8  A    between atoms: C_32  and  O_33
REMARK                            x       y       z     vdW  Elec       q    Type
REMARK                         _______ _______ _______ _____ _____    ______ ____
ROOT
ATOM      1  N   UNL     1       2.094   5.891  18.772  0.00  0.00    +0.000 N 
ATOM      2  C   UNL     1       1.875   6.843  19.759  0.00  0.00    +0.000 C 
ATOM      3  O   UNL     1       1.793   6.637  20.966  0.00  0.00    +0.000 OA
ATOM      4  H   UNL     1       2.244   6.276  17.840  0.00  0.00    +0.000 HD
ENDROOT
BRANCH   2   5
ATOM      5  C   UNL     1       1.774   8.253  19.273  0.00  0.00    +0.000 A 
ATOM      6  C   UNL     1       2.576   8.685  18.220  0.00  0.00    +0.000 A 
ATOM      7  C   UNL     1       2.443   9.998  17.790  0.00  0.00    +0.000 A 
ATOM      8  C   UNL     1       1.519  10.825  18.414  0.00  0.00    +0.000 A 
ATOM      9  F   UNL     1       1.390  12.085  17.971  0.00  0.00    +0.000 F 
ATOM     10  C   UNL     1       0.737  10.331  19.465  0.00  0.00    +0.000 A 
ATOM     11  N   UNL     1       0.871   9.047  19.904  0.00  0.00    +0.000 NA
BRANCH  10  12
ATOM     12  C   UNL     1      -0.281  11.129  20.177  0.00  0.00    +0.000 A 
ATOM     13  C   UNL     1      -0.135  11.501  21.529  0.00  0.00    +0.000 A 
ATOM     14  C   UNL     1      -1.121  12.252  22.172  0.00  0.00    +0.000 A 
ATOM     15  C   UNL     1      -2.273  12.644  21.505  0.00  0.00    +0.000 A 
ATOM     16  C   UNL     1      -2.445  12.285  20.173  0.00  0.00    +0.000 A 
ATOM     17  C   UNL     1      -1.459  11.542  19.524  0.00  0.00    +0.000 A 
ATOM     18  F   UNL     1      -1.667  11.249  18.228  0.00  0.00    +0.000 F 
BRANCH  14  19
ATOM     19  O   UNL     1      -0.992  12.625  23.477  0.00  0.00    +0.000 OA
ATOM     20  H   UNL     1      -1.084  13.590  23.547  0.00  0.00    +0.000 HD
ENDBRANCH  14  19
ENDBRANCH  10  12
ENDBRANCH   2   5
BRANCH   1  26
ATOM     21  C   UNL     1       3.306   3.743  18.552  0.00  0.00    +0.000 A 
ATOM     22  C   UNL     1       3.292   2.350  18.774  0.00  0.00    +0.000 A 
ATOM     23  C   UNL     1       2.216   1.761  19.417  0.00  0.00    +0.000 A 
ATOM     24  N   UNL     1       1.138   2.442  19.831  0.00  0.00    +0.000 NA
ATOM     25  C   UNL     1       1.146   3.777  19.595  0.00  0.00    +0.000 A 
ATOM     26  C   UNL     1       2.177   4.489  18.975  0.00  0.00    +0.000 A 
BRANCH  21  30
ATOM     27  C   UNL     1       7.839   5.886  19.343  0.00  0.00    +0.000 C 
ATOM     28  C   UNL     1       6.840   5.376  18.300  0.00  0.00    +0.000 C 
ATOM     29  C   UNL     1       5.548   4.875  18.972  0.00  0.00    +0.000 C 
ATOM     30  C   UNL     1       4.538   4.379  17.922  0.00  0.00    +0.000 C 
ATOM     31  C   UNL     1       4.213   5.526  16.939  0.00  0.00    +0.000 C 
ATOM     32  C   UNL     1       5.492   5.947  16.208  0.00  0.00    +0.000 C 
ATOM     33  C   UNL     1       6.553   6.446  17.227  0.00  0.00    +0.000 C 
BRANCH  32  34
ATOM     34  N   UNL     1       5.205   6.949  15.175  0.00  0.00    +0.000 NA
ATOM     35  H   UNL     1       4.684   7.729  15.572  0.00  0.00    +0.000 HD
ATOM     36  H   UNL     1       4.610   6.544  14.451  0.00  0.00    +0.000 HD
ENDBRANCH  32  34
BRANCH  33  37
ATOM     37  O   UNL     1       7.782   6.765  16.570  0.00  0.00    +0.000 OA
ATOM     38  H   UNL     1       8.448   6.928  17.260  0.00  0.00    +0.000 HD
ENDBRANCH  33  37
ENDBRANCH  21  30
ENDBRANCH   1  26
TORSDOF 7
ENDMDL
MODEL 9
REMARK VINA RESULT:      -8.9      2.156      4.403
REMARK  Name = 
REMARK  8 active torsions:
REMARK  status: ('A' for Active; 'I' for Inactive)
REMARK    1  A    between atoms: C_1  and  C_2
REMARK    2  A    between atoms: C_4  and  C_5
REMARK    3  A    between atoms: C_10  and  N_11
REMARK    4  A    between atoms: C_12  and  C_14
REMARK    5  A    between atoms: C_19  and  C_20
REMARK    6  A    between atoms: C_22  and  O_23
REMARK    7  A    between atoms: C_30  and  N_31
REMARK    8  A    between atoms: C_32  and  O_33
REMARK                            x       y       z     vdW  Elec       q    Type
REMARK                         _______ _______ _______ _____ _____    ______ ____
ROOT
ATOM      1  N   UNL     1       3.352   6.872  18.248  0.00  0.00    +0.000 N 
ATOM      2  C   UNL     1       2.576   8.013  18.094  0.00  0.00    +0.000 C 
ATOM      3  O   UNL     1       2.411   8.649  17.057  0.00  0.00    +0.000 OA
ATOM      4  H   UNL     1       3.269   6.426  19.161  0.00  0.00    +0.000 HD
ENDROOT
BRANCH   2   5
ATOM      5  C   UNL     1       1.850   8.462  19.322  0.00  0.00    +0.000 A 
ATOM      6  C   UNL     1       1.827   7.648  20.452  0.00  0.00    +0.000 A 
ATOM      7  C   UNL     1       1.153   8.106  21.575  0.00  0.00    +0.000 A 
ATOM      8  C   UNL     1       0.537   9.350  21.536  0.00  0.00    +0.000 A 
ATOM      9  F   UNL     1      -0.092   9.785  22.638  0.00  0.00    +0.000 F 
ATOM     10  C   UNL     1       0.600  10.125  20.371  0.00  0.00    +0.000 A 
ATOM     11  N   UNL     1       1.247   9.677  19.259  0.00  0.00    +0.000 NA
BRANCH  10  12
ATOM     12  C   UNL     1      -0.009  11.463  20.241  0.00  0.00    +0.000 A 
ATOM     13  C   UNL     1      -1.386  11.643  20.000  0.00  0.00    +0.000 A 
ATOM     14  C   UNL     1      -1.926  12.924  19.877  0.00  0.00    +0.000 A 
ATOM     15  C   UNL     1      -1.126  14.054  19.978  0.00  0.00    +0.000 A 
ATOM     16  C   UNL     1       0.236  13.904  20.211  0.00  0.00    +0.000 A 
ATOM     17  C   UNL     1       0.780  12.626  20.343  0.00  0.00    +0.000 A 
ATOM     18  F   UNL     1       2.098  12.545  20.595  0.00  0.00    +0.000 F 
BRANCH  14  19
ATOM     19  O   UNL     1      -3.257  13.116  19.649  0.00  0.00    +0.000 OA
ATOM     20  H   UNL     1      -3.618  12.345  19.179  0.00  0.00    +0.000 HD
ENDBRANCH  14  19
ENDBRANCH  10  12
ENDBRANCH   2   5
BRANCH   1  26
ATOM     21  C   UNL     1       4.437   4.890  17.236  0.00  0.00    +0.000 A 
ATOM     22  C   UNL     1       5.277   4.394  16.218  0.00  0.00    +0.000 A 
ATOM     23  C   UNL     1       5.782   5.252  15.255  0.00  0.00    +0.000 A 
ATOM     24  N   UNL     1       5.542   6.571  15.241  0.00  0.00    +0.000 NA
ATOM     25  C   UNL     1       4.751   7.047  16.235  0.00  0.00    +0.000 A 
ATOM     26  C   UNL     1       4.168   6.281  17.249  0.00  0.00    +0.000 A 
BRANCH  21  30
ATOM     27  C   UNL     1       0.610   3.942  20.433  0.00  0.00    +0.000 C 
ATOM     28  C   UNL     1       1.875   3.392  19.769  0.00  0.00    +0.000 C 
ATOM     29  C   UNL     1       2.543   4.461  18.885  0.00  0.00    +0.000 C 
ATOM     30  C   UNL     1       3.824   3.913  18.231  0.00  0.00    +0.000 C 
ATOM     31  C   UNL     1       4.804   3.448  19.331  0.00  0.00    +0.000 C 
ATOM     32  C   UNL     1       4.161   2.318  20.141  0.00  0.00    +0.000 C 
ATOM     33  C   UNL     1       2.853   2.817  20.814  0.00  0.00    +0.000 C 
BRANCH  32  34
ATOM     34  N   UNL     1       5.105   1.762  21.116  0.00  0.00    +0.000 NA
ATOM     35  H   UNL     1       5.243   2.413  21.889  0.00  0.00    +0.000 HD
ATOM     36  H   UNL     1       6.021   1.635  20.683  0.00  0.00    +0.000 HD
ENDBRANCH  32  34
BRANCH  33  37
ATOM     37  O   UNL     1       2.195   1.752  21.505  0.00  0.00    +0.000 OA
ATOM     38  H   UNL     1       2.260   1.939  22.458  0.00  0.00    +0.000 HD
ENDBRANCH  33  37
ENDBRANCH  21  30
ENDBRANCH   1  26
TORSDOF 7
ENDMDL
