MODEL 1
REMARK VINA RESULT:      -6.3      0.000      0.000
REMARK  Name = 
REMARK  13 active torsions:
REMARK  status: ('A' for Active; 'I' for Inactive)
REMARK    1  A    between atoms: C_1  and  C_2
REMARK    2  A    between atoms: C_2  and  C_3
REMARK    3  A    between atoms: C_3  and  O_4
REMARK    4  A    between atoms: O_4  and  C_5
REMARK    5  A    between atoms: C_7  and  C_8
REMARK    6  A    between atoms: C_8  and  N_9
REMARK    7  A    between atoms: N_9  and  C_10
REMARK    8  A    between atoms: N_9  and  C_11
REMARK    9  A    between atoms: C_13  and  O_14
REMARK   10  A    between atoms: O_14  and  C_15
REMARK   11  A    between atoms: C_15  and  C_16
REMARK   12  A    between atoms: C_16  and  C_17
REMARK   13  A    between atoms: C_18  and  O_19
REMARK                            x       y       z     vdW  Elec       q    Type
REMARK                         _______ _______ _______ _____ _____    ______ ____
ROOT
ATOM      1  C   UNL     1       6.963   4.958  17.239  0.00  0.00    +0.000 A 
ATOM      2  C   UNL     1       5.950   4.479  18.077  0.00  0.00    +0.000 A 
ATOM      3  C   UNL     1       4.707   4.081  17.567  0.00  0.00    +0.000 A 
ATOM      4  C   UNL     1       4.527   4.092  16.175  0.00  0.00    +0.000 A 
ATOM      5  C   UNL     1       5.558   4.486  15.312  0.00  0.00    +0.000 A 
ATOM      6  C   UNL     1       6.770   4.943  15.850  0.00  0.00    +0.000 A 
ENDROOT
BRANCH   6   7
ATOM      7  O   UNL     1       7.764   5.415  15.035  0.00  0.00    +0.000 OA
ATOM      8  H   UNL     1       8.495   4.785  15.142  0.00  0.00    +0.000 HD
ENDBRANCH   6   7
BRANCH   1   9
ATOM      9  O   UNL     1       8.071   5.408  17.912  0.00  0.00    +0.000 OA
BRANCH   9  10
ATOM     10  C   UNL     1       7.922   6.627  18.643  0.00  0.00    +0.000 C 
BRANCH  10  12
ATOM     11  C   UNL     1       8.310   9.064  18.135  0.00  0.00    +0.000 C 
ATOM     12  C   UNL     1       7.712   7.757  17.641  0.00  0.00    +0.000 C 
ENDBRANCH  10  12
ENDBRANCH   9  10
ENDBRANCH   1   9
BRANCH   3  13
ATOM     13  C   UNL     1       3.597   3.562  18.463  0.00  0.00    +0.000 C 
BRANCH  13  14
ATOM     14  N   UNL     1       2.422   4.445  18.597  0.00  0.00    +0.000 NA
ATOM     15  C   UNL     1       1.326   3.802  19.325  0.00  0.00    +0.000 C 
ATOM     16  C   UNL     1       2.804   5.682  19.284  0.00  0.00    +0.000 C 
ENDBRANCH  13  14
ENDBRANCH   3  13
BRANCH   5  17
ATOM     17  O   UNL     1       5.240   4.407  13.977  0.00  0.00    +0.000 OA
BRANCH  17  18
ATOM     18  C   UNL     1       6.039   3.517  13.193  0.00  0.00    +0.000 C 
BRANCH  18  19
ATOM     19  C   UNL     1       5.283   3.123  11.926  0.00  0.00    +0.000 C 
ATOM     20  C   UNL     1       5.801   1.798  11.390  0.00  0.00    +0.000 C 
ENDBRANCH  18  19
ENDBRANCH  17  18
ENDBRANCH   5  17
TORSDOF 9
ENDMDL
MODEL 2
REMARK VINA RESULT:      -6.2      2.580      5.045
REMARK  Name = 
REMARK  13 active torsions:
REMARK  status: ('A' for Active; 'I' for Inactive)
REMARK    1  A    between atoms: C_1  and  C_2
REMARK    2  A    between atoms: C_2  and  C_3
REMARK    3  A    between atoms: C_3  and  O_4
REMARK    4  A    between atoms: O_4  and  C_5
REMARK    5  A    between atoms: C_7  and  C_8
REMARK    6  A    between atoms: C_8  and  N_9
REMARK    7  A    between atoms: N_9  and  C_10
REMARK    8  A    between atoms: N_9  and  C_11
REMARK    9  A    between atoms: C_13  and  O_14
REMARK   10  A    between atoms: O_14  and  C_15
REMARK   11  A    between atoms: C_15  and  C_16
REMARK   12  A    between atoms: C_16  and  C_17
REMARK   13  A    between atoms: C_18  and  O_19
REMARK                            x       y       z     vdW  Elec       q    Type
REMARK                         _______ _______ _______ _____ _____    ______ ____
ROOT
ATOM      1  C   UNL     1       2.572   3.973  17.929  0.00  0.00    +0.000 A 
ATOM      2  C   UNL     1       2.291   5.344  17.941  0.00  0.00    +0.000 A 
ATOM      3  C   UNL     1       3.315   6.300  17.893  0.00  0.00    +0.000 A 
ATOM      4  C   UNL     1       4.636   5.851  17.743  0.00  0.00    +0.000 A 
ATOM      5  C   UNL     1       4.932   4.485  17.640  0.00  0.00    +0.000 A 
ATOM      6  C   UNL     1       3.897   3.546  17.759  0.00  0.00    +0.000 A 
ENDROOT
BRANCH   6   7
ATOM      7  O   UNL     1       4.167   2.203  17.749  0.00  0.00    +0.000 OA
ATOM      8  H   UNL     1       4.594   2.040  16.892  0.00  0.00    +0.000 HD
ENDBRANCH   6   7
BRANCH   1   9
ATOM      9  O   UNL     1       1.465   3.181  18.095  0.00  0.00    +0.000 OA
BRANCH   9  10
ATOM     10  C   UNL     1       0.817   3.249  19.367  0.00  0.00    +0.000 C 
BRANCH  10  12
ATOM     11  C   UNL     1       2.039   3.311  21.568  0.00  0.00    +0.000 C 
ATOM     12  C   UNL     1       1.655   2.462  20.369  0.00  0.00    +0.000 C 
ENDBRANCH  10  12
ENDBRANCH   9  10
ENDBRANCH   1   9
BRANCH   3  13
ATOM     13  C   UNL     1       3.026   7.791  17.909  0.00  0.00    +0.000 C 
BRANCH  13  14
ATOM     14  N   UNL     1       1.751   8.185  18.538  0.00  0.00    +0.000 NA
ATOM     15  C   UNL     1       1.826   8.162  20.001  0.00  0.00    +0.000 C 
ATOM     16  C   UNL     1       1.369   9.527  18.092  0.00  0.00    +0.000 C 
ENDBRANCH  13  14
ENDBRANCH   3  13
BRANCH   5  17
ATOM     17  O   UNL     1       6.266   4.207  17.460  0.00  0.00    +0.000 OA
BRANCH  17  18
ATOM     18  C   UNL     1       6.821   4.587  16.198  0.00  0.00    +0.000 C 
BRANCH  18  19
ATOM     19  C   UNL     1       6.151   3.796  15.078  0.00  0.00    +0.000 C 
ATOM     20  C   UNL     1       6.586   4.326  13.721  0.00  0.00    +0.000 C 
ENDBRANCH  18  19
ENDBRANCH  17  18
ENDBRANCH   5  17
TORSDOF 9
ENDMDL
MODEL 3
REMARK VINA RESULT:      -6.2      3.516      5.923
REMARK  Name = 
REMARK  13 active torsions:
REMARK  status: ('A' for Active; 'I' for Inactive)
REMARK    1  A    between atoms: C_1  and  C_2
REMARK    2  A    between atoms: C_2  and  C_3
REMARK    3  A    between atoms: C_3  and  O_4
REMARK    4  A    between atoms: O_4  and  C_5
REMARK    5  A    between atoms: C_7  and  C_8
REMARK    6  A    between atoms: C_8  and  N_9
REMARK    7  A    between atoms: N_9  and  C_10
REMARK    8  A    between atoms: N_9  and  C_11
REMARK    9  A    between atoms: C_13  and  O_14
REMARK   10  A    between atoms: O_14  and  C_15
REMARK   11  A    between atoms: C_15  and  C_16
REMARK   12  A    between atoms: C_16  and  C_17
REMARK   13  A    between atoms: C_18  and  O_19
REMARK                            x       y       z     vdW  Elec       q    Type
REMARK                         _______ _______ _______ _____ _____    ______ ____
ROOT
ATOM      1  C   UNL     1       2.647   3.792  18.080  0.00  0.00    +0.000 A 
ATOM      2  C   UNL     1       2.128   5.077  17.892  0.00  0.00    +0.000 A 
ATOM      3  C   UNL     1       2.867   6.220  18.229  0.00  0.00    +0.000 A 
ATOM      4  C   UNL     1       4.184   6.048  18.683  0.00  0.00    +0.000 A 
ATOM      5  C   UNL     1       4.753   4.773  18.796  0.00  0.00    +0.000 A 
ATOM      6  C   UNL     1       3.971   3.643  18.517  0.00  0.00    +0.000 A 
ENDROOT
BRANCH   6   7
ATOM      7  O   UNL     1       4.473   2.382  18.701  0.00  0.00    +0.000 OA
ATOM      8  H   UNL     1       4.307   1.921  17.863  0.00  0.00    +0.000 HD
ENDBRANCH   6   7
BRANCH   1   9
ATOM      9  O   UNL     1       1.753   2.789  17.805  0.00  0.00    +0.000 OA
BRANCH   9  10
ATOM     10  C   UNL     1       1.162   2.133  18.929  0.00  0.00    +0.000 C 
BRANCH  10  12
ATOM     11  C   UNL     1       1.396   2.757  21.358  0.00  0.00    +0.000 C 
ATOM     12  C   UNL     1       0.878   3.185  19.996  0.00  0.00    +0.000 C 
ENDBRANCH  10  12
ENDBRANCH   9  10
ENDBRANCH   1   9
BRANCH   3  13
ATOM     13  C   UNL     1       2.317   7.622  18.034  0.00  0.00    +0.000 C 
BRANCH  13  14
ATOM     14  N   UNL     1       2.117   8.404  19.269  0.00  0.00    +0.000 NA
ATOM     15  C   UNL     1       1.190   9.521  19.073  0.00  0.00    +0.000 C 
ATOM     16  C   UNL     1       1.613   7.534  20.335  0.00  0.00    +0.000 C 
ENDBRANCH  13  14
ENDBRANCH   3  13
BRANCH   5  17
ATOM     17  O   UNL     1       6.061   4.773  19.218  0.00  0.00    +0.000 OA
BRANCH  17  18
ATOM     18  C   UNL     1       7.043   5.068  18.222  0.00  0.00    +0.000 C 
BRANCH  18  19
ATOM     19  C   UNL     1       7.825   6.317  18.620  0.00  0.00    +0.000 C 
ATOM     20  C   UNL     1       7.599   7.429  17.607  0.00  0.00    +0.000 C 
ENDBRANCH  18  19
ENDBRANCH  17  18
ENDBRANCH   5  17
TORSDOF 9
ENDMDL
MODEL 4
REMARK VINA RESULT:      -6.2      1.339      5.357
REMARK  Name = 
REMARK  13 active torsions:
REMARK  status: ('A' for Active; 'I' for Inactive)
REMARK    1  A    between atoms: C_1  and  C_2
REMARK    2  A    between atoms: C_2  and  C_3
REMARK    3  A    between atoms: C_3  and  O_4
REMARK    4  A    between atoms: O_4  and  C_5
REMARK    5  A    between atoms: C_7  and  C_8
REMARK    6  A    between atoms: C_8  and  N_9
REMARK    7  A    between atoms: N_9  and  C_10
REMARK    8  A    between atoms: N_9  and  C_11
REMARK    9  A    between atoms: C_13  and  O_14
REMARK   10  A    between atoms: O_14  and  C_15
REMARK   11  A    between atoms: C_15  and  C_16
REMARK   12  A    between atoms: C_16  and  C_17
REMARK   13  A    between atoms: C_18  and  O_19
REMARK                            x       y       z     vdW  Elec       q    Type
REMARK                         _______ _______ _______ _____ _____    ______ ____
ROOT
ATOM      1  C   UNL     1       6.375   4.190  13.897  0.00  0.00    +0.000 A 
ATOM      2  C   UNL     1       5.277   3.749  14.644  0.00  0.00    +0.000 A 
ATOM      3  C   UNL     1       5.053   4.202  15.951  0.00  0.00    +0.000 A 
ATOM      4  C   UNL     1       5.913   5.183  16.470  0.00  0.00    +0.000 A 
ATOM      5  C   UNL     1       6.967   5.702  15.707  0.00  0.00    +0.000 A 
ATOM      6  C   UNL     1       7.211   5.183  14.427  0.00  0.00    +0.000 A 
ENDROOT
BRANCH   6   7
ATOM      7  O   UNL     1       8.285   5.610  13.692  0.00  0.00    +0.000 OA
ATOM      8  H   UNL     1       8.123   6.555  13.537  0.00  0.00    +0.000 HD
ENDBRANCH   6   7
BRANCH   1   9
ATOM      9  O   UNL     1       6.506   3.563  12.684  0.00  0.00    +0.000 OA
BRANCH   9  10
ATOM     10  C   UNL     1       5.296   3.137  12.053  0.00  0.00    +0.000 C 
BRANCH  10  12
ATOM     11  C   UNL     1       7.054   1.622  11.073  0.00  0.00    +0.000 C 
ATOM     12  C   UNL     1       5.572   1.815  11.345  0.00  0.00    +0.000 C 
ENDBRANCH  10  12
ENDBRANCH   9  10
ENDBRANCH   1   9
BRANCH   3  13
ATOM     13  C   UNL     1       3.868   3.730  16.776  0.00  0.00    +0.000 C 
BRANCH  13  14
ATOM     14  N   UNL     1       3.999   3.906  18.235  0.00  0.00    +0.000 NA
ATOM     15  C   UNL     1       2.978   4.805  18.778  0.00  0.00    +0.000 C 
ATOM     16  C   UNL     1       3.907   2.605  18.904  0.00  0.00    +0.000 C 
ENDBRANCH  13  14
ENDBRANCH   3  13
BRANCH   5  17
ATOM     17  O   UNL     1       7.695   6.681  16.340  0.00  0.00    +0.000 OA
BRANCH  17  18
ATOM     18  C   UNL     1       7.139   7.192  17.554  0.00  0.00    +0.000 C 
BRANCH  18  19
ATOM     19  C   UNL     1       8.138   7.015  18.695  0.00  0.00    +0.000 C 
ATOM     20  C   UNL     1       7.892   5.698  19.415  0.00  0.00    +0.000 C 
ENDBRANCH  18  19
ENDBRANCH  17  18
ENDBRANCH   5  17
TORSDOF 9
ENDMDL
MODEL 5
REMARK VINA RESULT:      -6.2      1.307      1.589
REMARK  Name = 
REMARK  13 active torsions:
REMARK  status: ('A' for Active; 'I' for Inactive)
REMARK    1  A    between atoms: C_1  and  C_2
REMARK    2  A    between atoms: C_2  and  C_3
REMARK    3  A    between atoms: C_3  and  O_4
REMARK    4  A    between atoms: O_4  and  C_5
REMARK    5  A    between atoms: C_7  and  C_8
REMARK    6  A    between atoms: C_8  and  N_9
REMARK    7  A    between atoms: N_9  and  C_10
REMARK    8  A    between atoms: N_9  and  C_11
REMARK    9  A    between atoms: C_13  and  O_14
REMARK   10  A    between atoms: O_14  and  C_15
REMARK   11  A    between atoms: C_15  and  C_16
REMARK   12  A    between atoms: C_16  and  C_17
REMARK   13  A    between atoms: C_18  and  O_19
REMARK                            x       y       z     vdW  Elec       q    Type
REMARK                         _______ _______ _______ _____ _____    ______ ____
ROOT
ATOM      1  C   UNL     1       7.048   5.864  16.226  0.00  0.00    +0.000 A 
ATOM      2  C   UNL     1       6.136   5.521  17.230  0.00  0.00    +0.000 A 
ATOM      3  C   UNL     1       5.131   4.569  17.009  0.00  0.00    +0.000 A 
ATOM      4  C   UNL     1       5.113   3.897  15.777  0.00  0.00    +0.000 A 
ATOM      5  C   UNL     1       6.071   4.163  14.790  0.00  0.00    +0.000 A 
ATOM      6  C   UNL     1       7.024   5.168  15.009  0.00  0.00    +0.000 A 
ENDROOT
BRANCH   6   7
ATOM      7  O   UNL     1       7.919   5.509  14.030  0.00  0.00    +0.000 OA
ATOM      8  H   UNL     1       7.908   4.762  13.409  0.00  0.00    +0.000 HD
ENDBRANCH   6   7
BRANCH   1   9
ATOM      9  O   UNL     1       7.890   6.890  16.572  0.00  0.00    +0.000 OA
BRANCH   9  10
ATOM     10  C   UNL     1       7.675   7.488  17.852  0.00  0.00    +0.000 C 
BRANCH  10  12
ATOM     11  C   UNL     1       8.841   9.487  18.847  0.00  0.00    +0.000 C 
ATOM     12  C   UNL     1       7.945   8.984  17.728  0.00  0.00    +0.000 C 
ENDBRANCH  10  12
ENDBRANCH   9  10
ENDBRANCH   1   9
BRANCH   3  13
ATOM     13  C   UNL     1       4.131   4.188  18.087  0.00  0.00    +0.000 C 
BRANCH  13  14
ATOM     14  N   UNL     1       3.868   2.743  18.227  0.00  0.00    +0.000 NA
ATOM     15  C   UNL     1       4.168   2.255  19.575  0.00  0.00    +0.000 C 
ATOM     16  C   UNL     1       2.466   2.459  17.908  0.00  0.00    +0.000 C 
ENDBRANCH  13  14
ENDBRANCH   3  13
BRANCH   5  17
ATOM     17  O   UNL     1       5.942   3.398  13.655  0.00  0.00    +0.000 OA
BRANCH  17  18
ATOM     18  C   UNL     1       4.858   3.738  12.788  0.00  0.00    +0.000 C 
BRANCH  18  19
ATOM     19  C   UNL     1       5.006   3.000  11.460  0.00  0.00    +0.000 C 
ATOM     20  C   UNL     1       6.048   1.898  11.580  0.00  0.00    +0.000 C 
ENDBRANCH  18  19
ENDBRANCH  17  18
ENDBRANCH   5  17
TORSDOF 9
ENDMDL
MODEL 6
REMARK VINA RESULT:      -6.1      2.613      5.461
REMARK  Name = 
REMARK  13 active torsions:
REMARK  status: ('A' for Active; 'I' for Inactive)
REMARK    1  A    between atoms: C_1  and  C_2
REMARK    2  A    between atoms: C_2  and  C_3
REMARK    3  A    between atoms: C_3  and  O_4
REMARK    4  A    between atoms: O_4  and  C_5
REMARK    5  A    between atoms: C_7  and  C_8
REMARK    6  A    between atoms: C_8  and  N_9
REMARK    7  A    between atoms: N_9  and  C_10
REMARK    8  A    between atoms: N_9  and  C_11
REMARK    9  A    between atoms: C_13  and  O_14
REMARK   10  A    between atoms: O_14  and  C_15
REMARK   11  A    between atoms: C_15  and  C_16
REMARK   12  A    between atoms: C_16  and  C_17
REMARK   13  A    between atoms: C_18  and  O_19
REMARK                            x       y       z     vdW  Elec       q    Type
REMARK                         _______ _______ _______ _____ _____    ______ ____
ROOT
ATOM      1  C   UNL     1       4.974   4.619  17.563  0.00  0.00    +0.000 A 
ATOM      2  C   UNL     1       4.679   5.984  17.643  0.00  0.00    +0.000 A 
ATOM      3  C   UNL     1       3.370   6.437  17.859  0.00  0.00    +0.000 A 
ATOM      4  C   UNL     1       2.365   5.482  18.081  0.00  0.00    +0.000 A 
ATOM      5  C   UNL     1       2.656   4.111  18.092  0.00  0.00    +0.000 A 
ATOM      6  C   UNL     1       3.960   3.681  17.807  0.00  0.00    +0.000 A 
ENDROOT
BRANCH   6   7
ATOM      7  O   UNL     1       4.255   2.346  17.726  0.00  0.00    +0.000 OA
ATOM      8  H   UNL     1       3.729   2.019  16.978  0.00  0.00    +0.000 HD
ENDBRANCH   6   7
BRANCH   1   9
ATOM      9  O   UNL     1       6.280   4.354  17.237  0.00  0.00    +0.000 OA
BRANCH   9  10
ATOM     10  C   UNL     1       6.702   4.743  15.928  0.00  0.00    +0.000 C 
BRANCH  10  12
ATOM     11  C   UNL     1       6.441   4.133  13.499  0.00  0.00    +0.000 C 
ATOM     12  C   UNL     1       6.173   3.715  14.934  0.00  0.00    +0.000 C 
ENDBRANCH  10  12
ENDBRANCH   9  10
ENDBRANCH   1   9
BRANCH   3  13
ATOM     13  C   UNL     1       3.032   7.915  17.945  0.00  0.00    +0.000 C 
BRANCH  13  14
ATOM     14  N   UNL     1       1.715   8.234  18.528  0.00  0.00    +0.000 NA
ATOM     15  C   UNL     1       1.764   8.321  19.989  0.00  0.00    +0.000 C 
ATOM     16  C   UNL     1       1.221   9.500  17.981  0.00  0.00    +0.000 C 
ENDBRANCH  13  14
ENDBRANCH   3  13
BRANCH   5  17
ATOM     17  O   UNL     1       1.575   3.306  18.361  0.00  0.00    +0.000 OA
BRANCH  17  18
ATOM     18  C   UNL     1       0.922   3.528  19.613  0.00  0.00    +0.000 C 
BRANCH  18  19
ATOM     19  C   UNL     1       1.490   2.582  20.668  0.00  0.00    +0.000 C 
ATOM     20  C   UNL     1       2.198   3.370  21.759  0.00  0.00    +0.000 C 
ENDBRANCH  18  19
ENDBRANCH  17  18
ENDBRANCH   5  17
TORSDOF 9
ENDMDL
MODEL 7
REMARK VINA RESULT:      -6.1      1.240      1.546
REMARK  Name = 
REMARK  13 active torsions:
REMARK  status: ('A' for Active; 'I' for Inactive)
REMARK    1  A    between atoms: C_1  and  C_2
REMARK    2  A    between atoms: C_2  and  C_3
REMARK    3  A    between atoms: C_3  and  O_4
REMARK    4  A    between atoms: O_4  and  C_5
REMARK    5  A    between atoms: C_7  and  C_8
REMARK    6  A    between atoms: C_8  and  N_9
REMARK    7  A    between atoms: N_9  and  C_10
REMARK    8  A    between atoms: N_9  and  C_11
REMARK    9  A    between atoms: C_13  and  O_14
REMARK   10  A    between atoms: O_14  and  C_15
REMARK   11  A    between atoms: C_15  and  C_16
REMARK   12  A    between atoms: C_16  and  C_17
REMARK   13  A    between atoms: C_18  and  O_19
REMARK                            x       y       z     vdW  Elec       q    Type
REMARK                         _______ _______ _______ _____ _____    ______ ____
ROOT
ATOM      1  C   UNL     1       6.736   5.847  16.100  0.00  0.00    +0.000 A 
ATOM      2  C   UNL     1       5.693   5.445  16.942  0.00  0.00    +0.000 A 
ATOM      3  C   UNL     1       4.858   4.370  16.609  0.00  0.00    +0.000 A 
ATOM      4  C   UNL     1       5.146   3.642  15.444  0.00  0.00    +0.000 A 
ATOM      5  C   UNL     1       6.239   3.973  14.632  0.00  0.00    +0.000 A 
ATOM      6  C   UNL     1       7.019   5.095  14.951  0.00  0.00    +0.000 A 
ENDROOT
BRANCH   6   7
ATOM      7  O   UNL     1       8.040   5.493  14.129  0.00  0.00    +0.000 OA
ATOM      8  H   UNL     1       8.565   4.691  13.976  0.00  0.00    +0.000 HD
ENDBRANCH   6   7
BRANCH   1   9
ATOM      9  O   UNL     1       7.381   6.981  16.522  0.00  0.00    +0.000 OA
BRANCH   9  10
ATOM     10  C   UNL     1       7.113   7.408  17.860  0.00  0.00    +0.000 C 
BRANCH  10  12
ATOM     11  C   UNL     1       8.457   9.511  18.201  0.00  0.00    +0.000 C 
ATOM     12  C   UNL     1       8.393   8.010  18.430  0.00  0.00    +0.000 C 
ENDBRANCH  10  12
ENDBRANCH   9  10
ENDBRANCH   1   9
BRANCH   3  13
ATOM     13  C   UNL     1       3.720   3.924  17.511  0.00  0.00    +0.000 C 
BRANCH  13  14
ATOM     14  N   UNL     1       3.957   4.082  18.958  0.00  0.00    +0.000 NA
ATOM     15  C   UNL     1       2.778   4.600  19.658  0.00  0.00    +0.000 C 
ATOM     16  C   UNL     1       4.345   2.796  19.544  0.00  0.00    +0.000 C 
ENDBRANCH  13  14
ENDBRANCH   3  13
BRANCH   5  17
ATOM     17  O   UNL     1       6.411   3.144  13.549  0.00  0.00    +0.000 OA
BRANCH  17  18
ATOM     18  C   UNL     1       5.957   3.651  12.292  0.00  0.00    +0.000 C 
BRANCH  18  19
ATOM     19  C   UNL     1       5.107   2.598  11.586  0.00  0.00    +0.000 C 
ATOM     20  C   UNL     1       3.823   3.219  11.060  0.00  0.00    +0.000 C 
ENDBRANCH  18  19
ENDBRANCH  17  18
ENDBRANCH   5  17
TORSDOF 9
ENDMDL
MODEL 8
REMARK VINA RESULT:      -6.1      1.111      5.336
REMARK  Name = 
REMARK  13 active torsions:
REMARK  status: ('A' for Active; 'I' for Inactive)
REMARK    1  A    between atoms: C_1  and  C_2
REMARK    2  A    between atoms: C_2  and  C_3
REMARK    3  A    between atoms: C_3  and  O_4
REMARK    4  A    between atoms: O_4  and  C_5
REMARK    5  A    between atoms: C_7  and  C_8
REMARK    6  A    between atoms: C_8  and  N_9
REMARK    7  A    between atoms: N_9  and  C_10
REMARK    8  A    between atoms: N_9  and  C_11
REMARK    9  A    between atoms: C_13  and  O_14
REMARK   10  A    between atoms: O_14  and  C_15
REMARK   11  A    between atoms: C_15  and  C_16
REMARK   12  A    between atoms: C_16  and  C_17
REMARK   13  A    between atoms: C_18  and  O_19
REMARK                            x       y       z     vdW  Elec       q    Type
REMARK                         _______ _______ _______ _____ _____    ______ ____
ROOT
ATOM      1  C   UNL     1       6.239   4.101  14.454  0.00  0.00    +0.000 A 
ATOM      2  C   UNL     1       5.255   3.645  15.338  0.00  0.00    +0.000 A 
ATOM      3  C   UNL     1       5.184   4.114  16.657  0.00  0.00    +0.000 A 
ATOM      4  C   UNL     1       6.075   5.124  17.051  0.00  0.00    +0.000 A 
ATOM      5  C   UNL     1       7.012   5.656  16.156  0.00  0.00    +0.000 A 
ATOM      6  C   UNL     1       7.108   5.123  14.862  0.00  0.00    +0.000 A 
ENDROOT
BRANCH   6   7
ATOM      7  O   UNL     1       8.071   5.564  13.993  0.00  0.00    +0.000 OA
ATOM      8  H   UNL     1       8.785   4.908  14.057  0.00  0.00    +0.000 HD
ENDBRANCH   6   7
BRANCH   1   9
ATOM      9  O   UNL     1       6.234   3.458  13.243  0.00  0.00    +0.000 OA
BRANCH   9  10
ATOM     10  C   UNL     1       5.168   3.788  12.350  0.00  0.00    +0.000 C 
BRANCH  10  12
ATOM     11  C   UNL     1       6.106   1.679  11.343  0.00  0.00    +0.000 C 
ATOM     12  C   UNL     1       4.882   2.569  11.480  0.00  0.00    +0.000 C 
ENDBRANCH  10  12
ENDBRANCH   9  10
ENDBRANCH   1   9
BRANCH   3  13
ATOM     13  C   UNL     1       4.124   3.627  17.630  0.00  0.00    +0.000 C 
BRANCH  13  14
ATOM     14  N   UNL     1       3.230   4.669  18.169  0.00  0.00    +0.000 NA
ATOM     15  C   UNL     1       1.823   4.409  17.854  0.00  0.00    +0.000 C 
ATOM     16  C   UNL     1       3.393   4.762  19.623  0.00  0.00    +0.000 C 
ENDBRANCH  13  14
ENDBRANCH   3  13
BRANCH   5  17
ATOM     17  O   UNL     1       7.788   6.662  16.680  0.00  0.00    +0.000 OA
BRANCH  17  18
ATOM     18  C   UNL     1       7.144   7.528  17.618  0.00  0.00    +0.000 C 
BRANCH  18  19
ATOM     19  C   UNL     1       7.793   8.909  17.578  0.00  0.00    +0.000 C 
ATOM     20  C   UNL     1       8.786   9.061  18.720  0.00  0.00    +0.000 C 
ENDBRANCH  18  19
ENDBRANCH  17  18
ENDBRANCH   5  17
TORSDOF 9
ENDMDL
MODEL 9
REMARK VINA RESULT:      -6.1      0.931      5.158
REMARK  Name = 
REMARK  13 active torsions:
REMARK  status: ('A' for Active; 'I' for Inactive)
REMARK    1  A    between atoms: C_1  and  C_2
REMARK    2  A    between atoms: C_2  and  C_3
REMARK    3  A    between atoms: C_3  and  O_4
REMARK    4  A    between atoms: O_4  and  C_5
REMARK    5  A    between atoms: C_7  and  C_8
REMARK    6  A    between atoms: C_8  and  N_9
REMARK    7  A    between atoms: N_9  and  C_10
REMARK    8  A    between atoms: N_9  and  C_11
REMARK    9  A    between atoms: C_13  and  O_14
REMARK   10  A    between atoms: O_14  and  C_15
REMARK   11  A    between atoms: C_15  and  C_16
REMARK   12  A    between atoms: C_16  and  C_17
REMARK   13  A    between atoms: C_18  and  O_19
REMARK                            x       y       z     vdW  Elec       q    Type
REMARK                         _______ _______ _______ _____ _____    ______ ____
ROOT
ATOM      1  C   UNL     1       5.479   4.475  15.325  0.00  0.00    +0.000 A 
ATOM      2  C   UNL     1       4.310   4.199  16.042  0.00  0.00    +0.000 A 
ATOM      3  C   UNL     1       4.325   4.062  17.437  0.00  0.00    +0.000 A 
ATOM      4  C   UNL     1       5.531   4.297  18.115  0.00  0.00    +0.000 A 
ATOM      5  C   UNL     1       6.694   4.661  17.423  0.00  0.00    +0.000 A 
ATOM      6  C   UNL     1       6.670   4.725  16.022  0.00  0.00    +0.000 A 
ENDROOT
BRANCH   6   7
ATOM      7  O   UNL     1       7.811   4.994  15.314  0.00  0.00    +0.000 OA
ATOM      8  H   UNL     1       7.580   5.743  14.741  0.00  0.00    +0.000 HD
ENDBRANCH   6   7
BRANCH   1   9
ATOM      9  O   UNL     1       5.308   4.465  13.964  0.00  0.00    +0.000 OA
BRANCH   9  10
ATOM     10  C   UNL     1       6.094   3.523  13.229  0.00  0.00    +0.000 C 
BRANCH  10  12
ATOM     11  C   UNL     1       5.822   1.842  11.374  0.00  0.00    +0.000 C 
ATOM     12  C   UNL     1       5.327   3.151  11.965  0.00  0.00    +0.000 C 
ENDBRANCH  10  12
ENDBRANCH   9  10
ENDBRANCH   1   9
BRANCH   3  13
ATOM     13  C   UNL     1       3.065   3.758  18.230  0.00  0.00    +0.000 C 
BRANCH  13  14
ATOM     14  N   UNL     1       2.507   2.406  18.043  0.00  0.00    +0.000 NA
ATOM     15  C   UNL     1       3.426   1.360  18.497  0.00  0.00    +0.000 C 
ATOM     16  C   UNL     1       1.237   2.286  18.765  0.00  0.00    +0.000 C 
ENDBRANCH  13  14
ENDBRANCH   3  13
BRANCH   5  17
ATOM     17  O   UNL     1       7.783   4.892  18.229  0.00  0.00    +0.000 OA
BRANCH  17  18
ATOM     18  C   UNL     1       7.632   5.923  19.208  0.00  0.00    +0.000 C 
BRANCH  18  19
ATOM     19  C   UNL     1       8.384   7.175  18.762  0.00  0.00    +0.000 C 
ATOM     20  C   UNL     1       7.618   7.887  17.658  0.00  0.00    +0.000 C 
ENDBRANCH  18  19
ENDBRANCH  17  18
ENDBRANCH   5  17
TORSDOF 9
ENDMDL
