MODEL 1
REMARK VINA RESULT:      -7.2      0.000      0.000
REMARK  Name = 
REMARK  9 active torsions:
REMARK  status: ('A' for Active; 'I' for Inactive)
REMARK    1  A    between atoms: C_1  and  O_2
REMARK    2  A    between atoms: O_2  and  C_3
REMARK    3  A    between atoms: C_8  and  C_9
REMARK    4  A    between atoms: C_14  and  C_15
REMARK    5  A    between atoms: C_15  and  C_16
REMARK    6  A    between atoms: C_15  and  C_17
REMARK    7  A    between atoms: C_15  and  C_18
REMARK    8  A    between atoms: N_26  and  C_27
REMARK    9  A    between atoms: C_30  and  C_31
REMARK                            x       y       z     vdW  Elec       q    Type
REMARK                         _______ _______ _______ _____ _____    ______ ____
ROOT
ATOM      1  C   UNL     1      -1.914  12.872  19.734  0.00  0.00    +0.000 C 
ATOM      2  C   UNL     1      -3.278  12.688  20.286  0.00  0.00    +0.000 A 
ATOM      3  C   UNL     1      -3.361  13.337  21.521  0.00  0.00    +0.000 A 
ATOM      4  N   UNL     1      -4.576  13.314  22.057  0.00  0.00    +0.000 NA
ATOM      5  N   UNL     1      -5.278  12.627  21.133  0.00  0.00    +0.000 N 
ATOM      6  C   UNL     1      -4.584  12.374  19.957  0.00  0.00    +0.000 A 
ATOM      7  C   UNL     1      -2.138  14.049  21.831  0.00  0.00    +0.000 C 
ATOM      8  O   UNL     1      -1.940  14.727  22.826  0.00  0.00    +0.000 OA
ATOM      9  N   UNL     1      -1.334  13.855  20.680  0.00  0.00    +0.000 N 
ATOM     10  H   UNL     1      -6.253  12.437  21.338  0.00  0.00    +0.000 HD
ENDROOT
BRANCH   1  16
ATOM     11  C   UNL     1      -0.848  10.725  20.818  0.00  0.00    +0.000 A 
ATOM     12  C   UNL     1       0.062   9.660  20.688  0.00  0.00    +0.000 A 
ATOM     13  C   UNL     1       0.693   9.391  19.476  0.00  0.00    +0.000 A 
ATOM     14  C   UNL     1       0.408  10.165  18.368  0.00  0.00    +0.000 A 
ATOM     15  C   UNL     1      -0.498  11.231  18.483  0.00  0.00    +0.000 A 
ATOM     16  C   UNL     1      -1.133  11.556  19.706  0.00  0.00    +0.000 A 
BRANCH  11  18
ATOM     17  C   UNL     1      -0.853  10.338  23.161  0.00  0.00    +0.000 C 
ATOM     18  O   UNL     1      -1.420  11.016  22.036  0.00  0.00    +0.000 OA
ENDBRANCH  11  18
ENDBRANCH   1  16
BRANCH   9  19
ATOM     19  C   UNL     1      -0.111  14.516  20.414  0.00  0.00    +0.000 A 
ATOM     20  C   UNL     1      -0.001  15.405  19.345  0.00  0.00    +0.000 A 
ATOM     21  C   UNL     1       1.205  16.044  19.065  0.00  0.00    +0.000 A 
ATOM     22  C   UNL     1       2.335  15.806  19.848  0.00  0.00    +0.000 A 
ATOM     23  C   UNL     1       2.242  14.904  20.912  0.00  0.00    +0.000 A 
ATOM     24  C   UNL     1       1.024  14.281  21.201  0.00  0.00    +0.000 A 
BRANCH  22  25
ATOM     25  C   UNL     1       3.576  16.508  19.576  0.00  0.00    +0.000 A 
ATOM     26  C   UNL     1       4.652  16.060  18.768  0.00  0.00    +0.000 A 
ATOM     27  C   UNL     1       5.573  17.068  18.834  0.00  0.00    +0.000 A 
ATOM     28  O   UNL     1       5.097  18.061  19.617  0.00  0.00    +0.000 OA
ATOM     29  N   UNL     1       3.834  17.729  20.077  0.00  0.00    +0.000 NA
ENDBRANCH  22  25
ENDBRANCH   9  19
BRANCH   6  30
ATOM     30  C   UNL     1      -5.295  11.891  18.692  0.00  0.00    +0.000 C 
ATOM     31  C   UNL     1      -6.463  10.940  19.088  0.00  0.00    +0.000 C 
ATOM     32  C   UNL     1      -5.945  13.110  17.984  0.00  0.00    +0.000 C 
BRANCH  30  33
ATOM     33  C   UNL     1      -4.357  11.150  17.718  0.00  0.00    +0.000 A 
ATOM     34  C   UNL     1      -3.796   9.896  18.016  0.00  0.00    +0.000 A 
ATOM     35  C   UNL     1      -2.938   9.252  17.120  0.00  0.00    +0.000 A 
ATOM     36  C   UNL     1      -2.630   9.838  15.897  0.00  0.00    +0.000 A 
ATOM     37  C   UNL     1      -3.185  11.068  15.567  0.00  0.00    +0.000 A 
ATOM     38  C   UNL     1      -4.035  11.717  16.466  0.00  0.00    +0.000 A 
ENDBRANCH  30  33
ENDBRANCH   6  30
TORSDOF 6
ENDMDL
MODEL 2
REMARK VINA RESULT:      -7.2      0.068      1.118
REMARK  Name = 
REMARK  9 active torsions:
REMARK  status: ('A' for Active; 'I' for Inactive)
REMARK    1  A    between atoms: C_1  and  O_2
REMARK    2  A    between atoms: O_2  and  C_3
REMARK    3  A    between atoms: C_8  and  C_9
REMARK    4  A    between atoms: C_14  and  C_15
REMARK    5  A    between atoms: C_15  and  C_16
REMARK    6  A    between atoms: C_15  and  C_17
REMARK    7  A    between atoms: C_15  and  C_18
REMARK    8  A    between atoms: N_26  and  C_27
REMARK    9  A    between atoms: C_30  and  C_31
REMARK                            x       y       z     vdW  Elec       q    Type
REMARK                         _______ _______ _______ _____ _____    ______ ____
ROOT
ATOM      1  C   UNL     1      -1.907  12.889  19.705  0.00  0.00    +0.000 C 
ATOM      2  C   UNL     1      -3.272  12.703  20.256  0.00  0.00    +0.000 A 
ATOM      3  C   UNL     1      -3.360  13.362  21.485  0.00  0.00    +0.000 A 
ATOM      4  N   UNL     1      -4.576  13.337  22.019  0.00  0.00    +0.000 NA
ATOM      5  N   UNL     1      -5.272  12.640  21.100  0.00  0.00    +0.000 N 
ATOM      6  C   UNL     1      -4.576  12.380  19.927  0.00  0.00    +0.000 A 
ATOM      7  C   UNL     1      -2.141  14.082  21.792  0.00  0.00    +0.000 C 
ATOM      8  O   UNL     1      -1.948  14.769  22.782  0.00  0.00    +0.000 OA
ATOM      9  N   UNL     1      -1.334  13.883  20.644  0.00  0.00    +0.000 N 
ATOM     10  H   UNL     1      -6.247  12.448  21.304  0.00  0.00    +0.000 HD
ENDROOT
BRANCH   1  16
ATOM     11  C   UNL     1      -0.817  10.766  20.811  0.00  0.00    +0.000 A 
ATOM     12  C   UNL     1       0.097   9.703  20.688  0.00  0.00    +0.000 A 
ATOM     13  C   UNL     1       0.713   9.416  19.473  0.00  0.00    +0.000 A 
ATOM     14  C   UNL     1       0.410  10.170  18.356  0.00  0.00    +0.000 A 
ATOM     15  C   UNL     1      -0.499  11.233  18.464  0.00  0.00    +0.000 A 
ATOM     16  C   UNL     1      -1.120  11.576  19.690  0.00  0.00    +0.000 A 
BRANCH  11  18
ATOM     17  C   UNL     1      -0.872  10.331  23.146  0.00  0.00    +0.000 C 
ATOM     18  O   UNL     1      -1.375  11.075  22.032  0.00  0.00    +0.000 OA
ENDBRANCH  11  18
ENDBRANCH   1  16
BRANCH   9  19
ATOM     19  C   UNL     1      -0.114  14.547  20.375  0.00  0.00    +0.000 A 
ATOM     20  C   UNL     1       1.038  14.242  21.098  0.00  0.00    +0.000 A 
ATOM     21  C   UNL     1       2.237  14.906  20.853  0.00  0.00    +0.000 A 
ATOM     22  C   UNL     1       2.313  15.899  19.876  0.00  0.00    +0.000 A 
ATOM     23  C   UNL     1       1.162  16.227  19.155  0.00  0.00    +0.000 A 
ATOM     24  C   UNL     1      -0.034  15.542  19.391  0.00  0.00    +0.000 A 
BRANCH  22  25
ATOM     25  C   UNL     1       3.577  16.557  19.596  0.00  0.00    +0.000 A 
ATOM     26  C   UNL     1       4.652  16.050  18.821  0.00  0.00    +0.000 A 
ATOM     27  C   UNL     1       5.599  17.035  18.862  0.00  0.00    +0.000 A 
ATOM     28  O   UNL     1       5.139  18.069  19.600  0.00  0.00    +0.000 OA
ATOM     29  N   UNL     1       3.860  17.789  20.054  0.00  0.00    +0.000 NA
ENDBRANCH  22  25
ENDBRANCH   9  19
BRANCH   6  30
ATOM     30  C   UNL     1      -5.281  11.884  18.664  0.00  0.00    +0.000 C 
ATOM     31  C   UNL     1      -6.423  10.902  19.064  0.00  0.00    +0.000 C 
ATOM     32  C   UNL     1      -5.967  13.088  17.965  0.00  0.00    +0.000 C 
BRANCH  30  33
ATOM     33  C   UNL     1      -4.331  11.171  17.682  0.00  0.00    +0.000 A 
ATOM     34  C   UNL     1      -3.947  11.739  16.455  0.00  0.00    +0.000 A 
ATOM     35  C   UNL     1      -3.095  11.064  15.576  0.00  0.00    +0.000 A 
ATOM     36  C   UNL     1      -2.594   9.809  15.907  0.00  0.00    +0.000 A 
ATOM     37  C   UNL     1      -2.941   9.231  17.122  0.00  0.00    +0.000 A 
ATOM     38  C   UNL     1      -3.801   9.901  17.996  0.00  0.00    +0.000 A 
ENDBRANCH  30  33
ENDBRANCH   6  30
TORSDOF 6
ENDMDL
MODEL 3
REMARK VINA RESULT:      -7.2      1.175      1.460
REMARK  Name = 
REMARK  9 active torsions:
REMARK  status: ('A' for Active; 'I' for Inactive)
REMARK    1  A    between atoms: C_1  and  O_2
REMARK    2  A    between atoms: O_2  and  C_3
REMARK    3  A    between atoms: C_8  and  C_9
REMARK    4  A    between atoms: C_14  and  C_15
REMARK    5  A    between atoms: C_15  and  C_16
REMARK    6  A    between atoms: C_15  and  C_17
REMARK    7  A    between atoms: C_15  and  C_18
REMARK    8  A    between atoms: N_26  and  C_27
REMARK    9  A    between atoms: C_30  and  C_31
REMARK                            x       y       z     vdW  Elec       q    Type
REMARK                         _______ _______ _______ _____ _____    ______ ____
ROOT
ATOM      1  C   UNL     1      -2.412  13.077  20.211  0.00  0.00    +0.000 C 
ATOM      2  C   UNL     1      -3.745  12.614  20.669  0.00  0.00    +0.000 A 
ATOM      3  C   UNL     1      -3.920  12.984  22.006  0.00  0.00    +0.000 A 
ATOM      4  N   UNL     1      -5.126  12.699  22.485  0.00  0.00    +0.000 NA
ATOM      5  N   UNL     1      -5.725  12.131  21.420  0.00  0.00    +0.000 N 
ATOM      6  C   UNL     1      -4.997  12.211  20.240  0.00  0.00    +0.000 A 
ATOM      7  C   UNL     1      -2.802  13.766  22.492  0.00  0.00    +0.000 C 
ATOM      8  O   UNL     1      -2.702  14.248  23.609  0.00  0.00    +0.000 OA
ATOM      9  N   UNL     1      -1.972  13.913  21.353  0.00  0.00    +0.000 N 
ATOM     10  H   UNL     1      -6.669  11.783  21.550  0.00  0.00    +0.000 HD
ENDROOT
BRANCH   1  16
ATOM     11  C   UNL     1      -0.914  11.034  20.919  0.00  0.00    +0.000 A 
ATOM     12  C   UNL     1       0.109  10.136  20.563  0.00  0.00    +0.000 A 
ATOM     13  C   UNL     1       0.593  10.070  19.259  0.00  0.00    +0.000 A 
ATOM     14  C   UNL     1       0.049  10.883  18.284  0.00  0.00    +0.000 A 
ATOM     15  C   UNL     1      -0.971  11.784  18.625  0.00  0.00    +0.000 A 
ATOM     16  C   UNL     1      -1.467  11.903  19.946  0.00  0.00    +0.000 A 
BRANCH  11  18
ATOM     17  C   UNL     1      -0.794  10.164  23.126  0.00  0.00    +0.000 C 
ATOM     18  O   UNL     1      -1.343  11.130  22.224  0.00  0.00    +0.000 OA
ENDBRANCH  11  18
ENDBRANCH   1  16
BRANCH   9  19
ATOM     19  C   UNL     1      -0.844  14.763  21.265  0.00  0.00    +0.000 A 
ATOM     20  C   UNL     1       0.341  14.443  21.925  0.00  0.00    +0.000 A 
ATOM     21  C   UNL     1       1.449  15.285  21.860  0.00  0.00    +0.000 A 
ATOM     22  C   UNL     1       1.396  16.475  21.133  0.00  0.00    +0.000 A 
ATOM     23  C   UNL     1       0.208  16.817  20.481  0.00  0.00    +0.000 A 
ATOM     24  C   UNL     1      -0.894  15.957  20.533  0.00  0.00    +0.000 A 
BRANCH  22  25
ATOM     25  C   UNL     1       2.568  17.326  21.034  0.00  0.00    +0.000 A 
ATOM     26  C   UNL     1       3.271  17.941  22.102  0.00  0.00    +0.000 A 
ATOM     27  C   UNL     1       4.283  18.631  21.495  0.00  0.00    +0.000 A 
ATOM     28  O   UNL     1       4.211  18.449  20.158  0.00  0.00    +0.000 OA
ATOM     29  N   UNL     1       3.146  17.616  19.855  0.00  0.00    +0.000 NA
ENDBRANCH  22  25
ENDBRANCH   9  19
BRANCH   6  30
ATOM     30  C   UNL     1      -5.629  11.910  18.882  0.00  0.00    +0.000 C 
ATOM     31  C   UNL     1      -6.898  11.029  19.087  0.00  0.00    +0.000 C 
ATOM     32  C   UNL     1      -6.120  13.239  18.249  0.00  0.00    +0.000 C 
BRANCH  30  33
ATOM     33  C   UNL     1      -4.671  11.184  17.916  0.00  0.00    +0.000 A 
ATOM     34  C   UNL     1      -4.052   9.964  18.241  0.00  0.00    +0.000 A 
ATOM     35  C   UNL     1      -3.176   9.335  17.352  0.00  0.00    +0.000 A 
ATOM     36  C   UNL     1      -2.906   9.901  16.110  0.00  0.00    +0.000 A 
ATOM     37  C   UNL     1      -3.518  11.097  15.754  0.00  0.00    +0.000 A 
ATOM     38  C   UNL     1      -4.387  11.732  16.647  0.00  0.00    +0.000 A 
ENDBRANCH  30  33
ENDBRANCH   6  30
TORSDOF 6
ENDMDL
MODEL 4
REMARK VINA RESULT:      -7.1      3.369      7.183
REMARK  Name = 
REMARK  9 active torsions:
REMARK  status: ('A' for Active; 'I' for Inactive)
REMARK    1  A    between atoms: C_1  and  O_2
REMARK    2  A    between atoms: O_2  and  C_3
REMARK    3  A    between atoms: C_8  and  C_9
REMARK    4  A    between atoms: C_14  and  C_15
REMARK    5  A    between atoms: C_15  and  C_16
REMARK    6  A    between atoms: C_15  and  C_17
REMARK    7  A    between atoms: C_15  and  C_18
REMARK    8  A    between atoms: N_26  and  C_27
REMARK    9  A    between atoms: C_30  and  C_31
REMARK                            x       y       z     vdW  Elec       q    Type
REMARK                         _______ _______ _______ _____ _____    ______ ____
ROOT
ATOM      1  C   UNL     1       0.320  12.036  20.219  0.00  0.00    +0.000 C 
ATOM      2  C   UNL     1      -0.955  12.794  20.254  0.00  0.00    +0.000 A 
ATOM      3  C   UNL     1      -1.880  12.167  19.415  0.00  0.00    +0.000 A 
ATOM      4  N   UNL     1      -3.090  12.716  19.450  0.00  0.00    +0.000 NA
ATOM      5  N   UNL     1      -2.919  13.718  20.333  0.00  0.00    +0.000 N 
ATOM      6  C   UNL     1      -1.693  13.706  20.986  0.00  0.00    +0.000 A 
ATOM      7  C   UNL     1      -1.345  10.945  18.851  0.00  0.00    +0.000 C 
ATOM      8  O   UNL     1      -1.942  10.180  18.111  0.00  0.00    +0.000 OA
ATOM      9  N   UNL     1      -0.068  10.827  19.453  0.00  0.00    +0.000 N 
ATOM     10  H   UNL     1      -3.713  14.325  20.506  0.00  0.00    +0.000 HD
ENDROOT
BRANCH   1  16
ATOM     11  C   UNL     1       2.502  13.503  20.173  0.00  0.00    +0.000 A 
ATOM     12  C   UNL     1       3.328  14.376  19.441  0.00  0.00    +0.000 A 
ATOM     13  C   UNL     1       3.124  14.594  18.081  0.00  0.00    +0.000 A 
ATOM     14  C   UNL     1       2.108  13.927  17.425  0.00  0.00    +0.000 A 
ATOM     15  C   UNL     1       1.277  13.054  18.143  0.00  0.00    +0.000 A 
ATOM     16  C   UNL     1       1.432  12.832  19.533  0.00  0.00    +0.000 A 
BRANCH  11  18
ATOM     17  C   UNL     1       3.831  13.985  22.083  0.00  0.00    +0.000 C 
ATOM     18  O   UNL     1       2.679  13.341  21.529  0.00  0.00    +0.000 OA
ENDBRANCH  11  18
ENDBRANCH   1  16
BRANCH   9  19
ATOM     19  C   UNL     1       0.776   9.693  19.370  0.00  0.00    +0.000 A 
ATOM     20  C   UNL     1       1.402   9.358  18.171  0.00  0.00    +0.000 A 
ATOM     21  C   UNL     1       2.217   8.233  18.077  0.00  0.00    +0.000 A 
ATOM     22  C   UNL     1       2.423   7.409  19.185  0.00  0.00    +0.000 A 
ATOM     23  C   UNL     1       1.787   7.724  20.388  0.00  0.00    +0.000 A 
ATOM     24  C   UNL     1       0.987   8.867  20.483  0.00  0.00    +0.000 A 
BRANCH  22  25
ATOM     25  C   UNL     1       3.307   6.262  19.091  0.00  0.00    +0.000 A 
ATOM     26  C   UNL     1       4.320   6.040  18.122  0.00  0.00    +0.000 A 
ATOM     27  C   UNL     1       4.860   4.831  18.461  0.00  0.00    +0.000 A 
ATOM     28  O   UNL     1       4.233   4.351  19.557  0.00  0.00    +0.000 OA
ATOM     29  N   UNL     1       3.264   5.249  19.974  0.00  0.00    +0.000 NA
ENDBRANCH  22  25
ENDBRANCH   9  19
BRANCH   6  30
ATOM     30  C   UNL     1      -1.434  14.559  22.228  0.00  0.00    +0.000 C 
ATOM     31  C   UNL     1      -2.727  15.347  22.591  0.00  0.00    +0.000 C 
ATOM     32  C   UNL     1      -1.142  13.622  23.430  0.00  0.00    +0.000 C 
BRANCH  30  33
ATOM     33  C   UNL     1      -0.276  15.560  22.043  0.00  0.00    +0.000 A 
ATOM     34  C   UNL     1       0.568  15.942  23.100  0.00  0.00    +0.000 A 
ATOM     35  C   UNL     1       1.603  16.862  22.908  0.00  0.00    +0.000 A 
ATOM     36  C   UNL     1       1.828  17.415  21.651  0.00  0.00    +0.000 A 
ATOM     37  C   UNL     1       1.022  17.041  20.583  0.00  0.00    +0.000 A 
ATOM     38  C   UNL     1      -0.019  16.128  20.777  0.00  0.00    +0.000 A 
ENDBRANCH  30  33
ENDBRANCH   6  30
TORSDOF 6
ENDMDL
MODEL 5
REMARK VINA RESULT:      -7.1      3.384      7.266
REMARK  Name = 
REMARK  9 active torsions:
REMARK  status: ('A' for Active; 'I' for Inactive)
REMARK    1  A    between atoms: C_1  and  O_2
REMARK    2  A    between atoms: O_2  and  C_3
REMARK    3  A    between atoms: C_8  and  C_9
REMARK    4  A    between atoms: C_14  and  C_15
REMARK    5  A    between atoms: C_15  and  C_16
REMARK    6  A    between atoms: C_15  and  C_17
REMARK    7  A    between atoms: C_15  and  C_18
REMARK    8  A    between atoms: N_26  and  C_27
REMARK    9  A    between atoms: C_30  and  C_31
REMARK                            x       y       z     vdW  Elec       q    Type
REMARK                         _______ _______ _______ _____ _____    ______ ____
ROOT
ATOM      1  C   UNL     1       0.318  11.985  20.212  0.00  0.00    +0.000 C 
ATOM      2  C   UNL     1      -0.950  12.754  20.238  0.00  0.00    +0.000 A 
ATOM      3  C   UNL     1      -1.874  12.138  19.389  0.00  0.00    +0.000 A 
ATOM      4  N   UNL     1      -3.079  12.697  19.415  0.00  0.00    +0.000 NA
ATOM      5  N   UNL     1      -2.908  13.695  20.303  0.00  0.00    +0.000 N 
ATOM      6  C   UNL     1      -1.687  13.671  20.966  0.00  0.00    +0.000 A 
ATOM      7  C   UNL     1      -1.344  10.913  18.826  0.00  0.00    +0.000 C 
ATOM      8  O   UNL     1      -1.941  10.156  18.078  0.00  0.00    +0.000 OA
ATOM      9  N   UNL     1      -0.073  10.783  19.438  0.00  0.00    +0.000 N 
ATOM     10  H   UNL     1      -3.698  14.308  20.471  0.00  0.00    +0.000 HD
ENDROOT
BRANCH   1  16
ATOM     11  C   UNL     1       2.483  13.479  20.192  0.00  0.00    +0.000 A 
ATOM     12  C   UNL     1       3.322  14.340  19.459  0.00  0.00    +0.000 A 
ATOM     13  C   UNL     1       3.161  14.512  18.087  0.00  0.00    +0.000 A 
ATOM     14  C   UNL     1       2.176  13.812  17.420  0.00  0.00    +0.000 A 
ATOM     15  C   UNL     1       1.332  12.951  18.137  0.00  0.00    +0.000 A 
ATOM     16  C   UNL     1       1.443  12.775  19.538  0.00  0.00    +0.000 A 
BRANCH  11  18
ATOM     17  C   UNL     1       3.671  14.132  22.142  0.00  0.00    +0.000 C 
ATOM     18  O   UNL     1       2.616  13.362  21.557  0.00  0.00    +0.000 OA
ENDBRANCH  11  18
ENDBRANCH   1  16
BRANCH   9  19
ATOM     19  C   UNL     1       0.761   9.642  19.360  0.00  0.00    +0.000 A 
ATOM     20  C   UNL     1       0.989   8.848  20.482  0.00  0.00    +0.000 A 
ATOM     21  C   UNL     1       1.824   7.736  20.417  0.00  0.00    +0.000 A 
ATOM     22  C   UNL     1       2.459   7.391  19.223  0.00  0.00    +0.000 A 
ATOM     23  C   UNL     1       2.253   8.189  18.094  0.00  0.00    +0.000 A 
ATOM     24  C   UNL     1       1.396   9.293  18.160  0.00  0.00    +0.000 A 
BRANCH  22  25
ATOM     25  C   UNL     1       3.294   6.206  19.152  0.00  0.00    +0.000 A 
ATOM     26  C   UNL     1       4.359   5.964  18.247  0.00  0.00    +0.000 A 
ATOM     27  C   UNL     1       4.819   4.721  18.582  0.00  0.00    +0.000 A 
ATOM     28  O   UNL     1       4.097   4.240  19.618  0.00  0.00    +0.000 OA
ATOM     29  N   UNL     1       3.144   5.172  19.998  0.00  0.00    +0.000 NA
ENDBRANCH  22  25
ENDBRANCH   9  19
BRANCH   6  30
ATOM     30  C   UNL     1      -1.432  14.517  22.214  0.00  0.00    +0.000 C 
ATOM     31  C   UNL     1      -2.744  15.257  22.612  0.00  0.00    +0.000 C 
ATOM     32  C   UNL     1      -1.084  13.577  23.398  0.00  0.00    +0.000 C 
BRANCH  30  33
ATOM     33  C   UNL     1      -0.312  15.559  22.018  0.00  0.00    +0.000 A 
ATOM     34  C   UNL     1       0.021  16.082  20.756  0.00  0.00    +0.000 A 
ATOM     35  C   UNL     1       1.049  17.016  20.605  0.00  0.00    +0.000 A 
ATOM     36  C   UNL     1       1.763  17.462  21.712  0.00  0.00    +0.000 A 
ATOM     37  C   UNL     1       1.443  16.978  22.974  0.00  0.00    +0.000 A 
ATOM     38  C   UNL     1       0.421  16.036  23.125  0.00  0.00    +0.000 A 
ENDBRANCH  30  33
ENDBRANCH   6  30
TORSDOF 6
ENDMDL
MODEL 6
REMARK VINA RESULT:      -7.1      3.517      6.887
REMARK  Name = 
REMARK  9 active torsions:
REMARK  status: ('A' for Active; 'I' for Inactive)
REMARK    1  A    between atoms: C_1  and  O_2
REMARK    2  A    between atoms: O_2  and  C_3
REMARK    3  A    between atoms: C_8  and  C_9
REMARK    4  A    between atoms: C_14  and  C_15
REMARK    5  A    between atoms: C_15  and  C_16
REMARK    6  A    between atoms: C_15  and  C_17
REMARK    7  A    between atoms: C_15  and  C_18
REMARK    8  A    between atoms: N_26  and  C_27
REMARK    9  A    between atoms: C_30  and  C_31
REMARK                            x       y       z     vdW  Elec       q    Type
REMARK                         _______ _______ _______ _____ _____    ______ ____
ROOT
ATOM      1  C   UNL     1       0.071  11.663  20.054  0.00  0.00    +0.000 C 
ATOM      2  C   UNL     1      -1.258  12.318  19.979  0.00  0.00    +0.000 A 
ATOM      3  C   UNL     1      -2.010  11.705  18.972  0.00  0.00    +0.000 A 
ATOM      4  N   UNL     1      -3.256  12.157  18.887  0.00  0.00    +0.000 NA
ATOM      5  N   UNL     1      -3.289  13.082  19.866  0.00  0.00    +0.000 N 
ATOM      6  C   UNL     1      -2.161  13.100  20.676  0.00  0.00    +0.000 A 
ATOM      7  C   UNL     1      -1.302  10.586  18.386  0.00  0.00    +0.000 C 
ATOM      8  O   UNL     1      -1.731   9.851  17.510  0.00  0.00    +0.000 OA
ATOM      9  N   UNL     1      -0.108  10.507  19.145  0.00  0.00    +0.000 N 
ATOM     10  H   UNL     1      -4.148  13.609  19.978  0.00  0.00    +0.000 HD
ENDROOT
BRANCH   1  16
ATOM     11  C   UNL     1       1.803  13.618  20.368  0.00  0.00    +0.000 A 
ATOM     12  C   UNL     1       2.664  14.548  19.755  0.00  0.00    +0.000 A 
ATOM     13  C   UNL     1       2.940  14.489  18.391  0.00  0.00    +0.000 A 
ATOM     14  C   UNL     1       2.381  13.488  17.622  0.00  0.00    +0.000 A 
ATOM     15  C   UNL     1       1.521  12.554  18.219  0.00  0.00    +0.000 A 
ATOM     16  C   UNL     1       1.190  12.602  19.595  0.00  0.00    +0.000 A 
BRANCH  11  18
ATOM     17  C   UNL     1       1.839  14.966  22.323  0.00  0.00    +0.000 C 
ATOM     18  O   UNL     1       1.493  13.723  21.705  0.00  0.00    +0.000 OA
ENDBRANCH  11  18
ENDBRANCH   1  16
BRANCH   9  19
ATOM     19  C   UNL     1       0.833   9.452  19.084  0.00  0.00    +0.000 A 
ATOM     20  C   UNL     1       1.488   9.151  17.891  0.00  0.00    +0.000 A 
ATOM     21  C   UNL     1       2.400   8.101  17.818  0.00  0.00    +0.000 A 
ATOM     22  C   UNL     1       2.679   7.322  18.941  0.00  0.00    +0.000 A 
ATOM     23  C   UNL     1       2.017   7.602  20.139  0.00  0.00    +0.000 A 
ATOM     24  C   UNL     1       1.117   8.671  20.212  0.00  0.00    +0.000 A 
BRANCH  22  25
ATOM     25  C   UNL     1       3.663   6.257  18.869  0.00  0.00    +0.000 A 
ATOM     26  C   UNL     1       4.669   6.087  17.883  0.00  0.00    +0.000 A 
ATOM     27  C   UNL     1       5.326   4.948  18.255  0.00  0.00    +0.000 A 
ATOM     28  O   UNL     1       4.771   4.459  19.386  0.00  0.00    +0.000 OA
ATOM     29  N   UNL     1       3.735   5.283  19.793  0.00  0.00    +0.000 NA
ENDBRANCH  22  25
ENDBRANCH   9  19
BRANCH   6  30
ATOM     30  C   UNL     1      -2.139  13.849  22.009  0.00  0.00    +0.000 C 
ATOM     31  C   UNL     1      -1.200  13.103  23.004  0.00  0.00    +0.000 C 
ATOM     32  C   UNL     1      -1.514  15.252  21.788  0.00  0.00    +0.000 C 
BRANCH  30  33
ATOM     33  C   UNL     1      -3.535  13.985  22.649  0.00  0.00    +0.000 A 
ATOM     34  C   UNL     1      -4.191  12.906  23.268  0.00  0.00    +0.000 A 
ATOM     35  C   UNL     1      -5.463  13.054  23.828  0.00  0.00    +0.000 A 
ATOM     36  C   UNL     1      -6.106  14.286  23.797  0.00  0.00    +0.000 A 
ATOM     37  C   UNL     1      -5.475  15.375  23.209  0.00  0.00    +0.000 A 
ATOM     38  C   UNL     1      -4.207  15.226  22.640  0.00  0.00    +0.000 A 
ENDBRANCH  30  33
ENDBRANCH   6  30
TORSDOF 6
ENDMDL
MODEL 7
REMARK VINA RESULT:      -7.1      3.402      7.238
REMARK  Name = 
REMARK  9 active torsions:
REMARK  status: ('A' for Active; 'I' for Inactive)
REMARK    1  A    between atoms: C_1  and  O_2
REMARK    2  A    between atoms: O_2  and  C_3
REMARK    3  A    between atoms: C_8  and  C_9
REMARK    4  A    between atoms: C_14  and  C_15
REMARK    5  A    between atoms: C_15  and  C_16
REMARK    6  A    between atoms: C_15  and  C_17
REMARK    7  A    between atoms: C_15  and  C_18
REMARK    8  A    between atoms: N_26  and  C_27
REMARK    9  A    between atoms: C_30  and  C_31
REMARK                            x       y       z     vdW  Elec       q    Type
REMARK                         _______ _______ _______ _____ _____    ______ ____
ROOT
ATOM      1  C   UNL     1       0.342  12.044  20.213  0.00  0.00    +0.000 C 
ATOM      2  C   UNL     1      -0.927  12.812  20.241  0.00  0.00    +0.000 A 
ATOM      3  C   UNL     1      -1.852  12.194  19.394  0.00  0.00    +0.000 A 
ATOM      4  N   UNL     1      -3.057  12.752  19.422  0.00  0.00    +0.000 NA
ATOM      5  N   UNL     1      -2.884  13.752  20.308  0.00  0.00    +0.000 N 
ATOM      6  C   UNL     1      -1.663  13.729  20.969  0.00  0.00    +0.000 A 
ATOM      7  C   UNL     1      -1.322  10.969  18.832  0.00  0.00    +0.000 C 
ATOM      8  O   UNL     1      -1.920  10.210  18.086  0.00  0.00    +0.000 OA
ATOM      9  N   UNL     1      -0.050  10.840  19.443  0.00  0.00    +0.000 N 
ATOM     10  H   UNL     1      -3.675  14.365  20.476  0.00  0.00    +0.000 HD
ENDROOT
BRANCH   1  16
ATOM     11  C   UNL     1       2.511  13.531  20.187  0.00  0.00    +0.000 A 
ATOM     12  C   UNL     1       3.348  14.393  19.454  0.00  0.00    +0.000 A 
ATOM     13  C   UNL     1       3.180  14.572  18.083  0.00  0.00    +0.000 A 
ATOM     14  C   UNL     1       2.189  13.877  17.418  0.00  0.00    +0.000 A 
ATOM     15  C   UNL     1       1.346  13.015  18.137  0.00  0.00    +0.000 A 
ATOM     16  C   UNL     1       1.465  12.833  19.536  0.00  0.00    +0.000 A 
BRANCH  11  18
ATOM     17  C   UNL     1       3.834  13.995  22.105  0.00  0.00    +0.000 C 
ATOM     18  O   UNL     1       2.652  13.408  21.551  0.00  0.00    +0.000 OA
ENDBRANCH  11  18
ENDBRANCH   1  16
BRANCH   9  19
ATOM     19  C   UNL     1       0.785   9.700  19.364  0.00  0.00    +0.000 A 
ATOM     20  C   UNL     1       1.387   9.341  18.159  0.00  0.00    +0.000 A 
ATOM     21  C   UNL     1       2.193   8.208  18.070  0.00  0.00    +0.000 A 
ATOM     22  C   UNL     1       2.415   7.402  19.187  0.00  0.00    +0.000 A 
ATOM     23  C   UNL     1       1.803   7.741  20.397  0.00  0.00    +0.000 A 
ATOM     24  C   UNL     1       1.012   8.891  20.486  0.00  0.00    +0.000 A 
BRANCH  22  25
ATOM     25  C   UNL     1       3.291   6.248  19.096  0.00  0.00    +0.000 A 
ATOM     26  C   UNL     1       3.236   5.069  19.882  0.00  0.00    +0.000 A 
ATOM     27  C   UNL     1       4.264   4.297  19.416  0.00  0.00    +0.000 A 
ATOM     28  O   UNL     1       4.897   4.950  18.418  0.00  0.00    +0.000 OA
ATOM     29  N   UNL     1       4.285   6.172  18.194  0.00  0.00    +0.000 NA
ENDBRANCH  22  25
ENDBRANCH   9  19
BRANCH   6  30
ATOM     30  C   UNL     1      -1.406  14.578  22.215  0.00  0.00    +0.000 C 
ATOM     31  C   UNL     1      -2.696  15.374  22.572  0.00  0.00    +0.000 C 
ATOM     32  C   UNL     1      -1.128  13.636  23.417  0.00  0.00    +0.000 C 
BRANCH  30  33
ATOM     33  C   UNL     1      -0.240  15.572  22.039  0.00  0.00    +0.000 A 
ATOM     34  C   UNL     1       0.066  16.166  20.802  0.00  0.00    +0.000 A 
ATOM     35  C   UNL     1       1.137  17.053  20.667  0.00  0.00    +0.000 A 
ATOM     36  C   UNL     1       1.922  17.381  21.768  0.00  0.00    +0.000 A 
ATOM     37  C   UNL     1       1.631  16.824  23.007  0.00  0.00    +0.000 A 
ATOM     38  C   UNL     1       0.566  15.929  23.140  0.00  0.00    +0.000 A 
ENDBRANCH  30  33
ENDBRANCH   6  30
TORSDOF 6
ENDMDL
MODEL 8
REMARK VINA RESULT:      -7.0      0.633      1.057
REMARK  Name = 
REMARK  9 active torsions:
REMARK  status: ('A' for Active; 'I' for Inactive)
REMARK    1  A    between atoms: C_1  and  O_2
REMARK    2  A    between atoms: O_2  and  C_3
REMARK    3  A    between atoms: C_8  and  C_9
REMARK    4  A    between atoms: C_14  and  C_15
REMARK    5  A    between atoms: C_15  and  C_16
REMARK    6  A    between atoms: C_15  and  C_17
REMARK    7  A    between atoms: C_15  and  C_18
REMARK    8  A    between atoms: N_26  and  C_27
REMARK    9  A    between atoms: C_30  and  C_31
REMARK                            x       y       z     vdW  Elec       q    Type
REMARK                         _______ _______ _______ _____ _____    ______ ____
ROOT
ATOM      1  C   UNL     1      -1.991  12.889  19.949  0.00  0.00    +0.000 C 
ATOM      2  C   UNL     1      -3.343  12.592  20.482  0.00  0.00    +0.000 A 
ATOM      3  C   UNL     1      -3.442  13.100  21.780  0.00  0.00    +0.000 A 
ATOM      4  N   UNL     1      -4.652  12.969  22.314  0.00  0.00    +0.000 NA
ATOM      5  N   UNL     1      -5.332  12.359  21.324  0.00  0.00    +0.000 N 
ATOM      6  C   UNL     1      -4.638  12.263  20.124  0.00  0.00    +0.000 A 
ATOM      7  C   UNL     1      -2.246  13.822  22.162  0.00  0.00    +0.000 C 
ATOM      8  O   UNL     1      -2.068  14.395  23.224  0.00  0.00    +0.000 OA
ATOM      9  N   UNL     1      -1.444  13.786  20.994  0.00  0.00    +0.000 N 
ATOM     10  H   UNL     1      -6.298  12.110  21.509  0.00  0.00    +0.000 HD
ENDROOT
BRANCH   1  16
ATOM     11  C   UNL     1      -0.773  10.720  20.802  0.00  0.00    +0.000 A 
ATOM     12  C   UNL     1       0.172   9.710  20.539  0.00  0.00    +0.000 A 
ATOM     13  C   UNL     1       0.737   9.560  19.276  0.00  0.00    +0.000 A 
ATOM     14  C   UNL     1       0.353  10.400  18.249  0.00  0.00    +0.000 A 
ATOM     15  C   UNL     1      -0.587  11.411  18.497  0.00  0.00    +0.000 A 
ATOM     16  C   UNL     1      -1.159  11.616  19.776  0.00  0.00    +0.000 A 
BRANCH  11  18
ATOM     17  C   UNL     1      -0.620  10.159  23.106  0.00  0.00    +0.000 C 
ATOM     18  O   UNL     1      -1.281  10.894  22.070  0.00  0.00    +0.000 OA
ENDBRANCH  11  18
ENDBRANCH   1  16
BRANCH   9  19
ATOM     19  C   UNL     1      -0.250  14.521  20.797  0.00  0.00    +0.000 A 
ATOM     20  C   UNL     1      -0.279  15.779  20.198  0.00  0.00    +0.000 A 
ATOM     21  C   UNL     1       0.894  16.498  19.983  0.00  0.00    +0.000 A 
ATOM     22  C   UNL     1       2.130  15.974  20.361  0.00  0.00    +0.000 A 
ATOM     23  C   UNL     1       2.175  14.706  20.947  0.00  0.00    +0.000 A 
ATOM     24  C   UNL     1       0.992  13.997  21.180  0.00  0.00    +0.000 A 
BRANCH  22  25
ATOM     25  C   UNL     1       3.343  16.748  20.173  0.00  0.00    +0.000 A 
ATOM     26  C   UNL     1       4.167  17.306  21.184  0.00  0.00    +0.000 A 
ATOM     27  C   UNL     1       5.171  17.934  20.501  0.00  0.00    +0.000 A 
ATOM     28  O   UNL     1       4.982  17.770  19.174  0.00  0.00    +0.000 OA
ATOM     29  N   UNL     1       3.844  17.010  18.953  0.00  0.00    +0.000 NA
ENDBRANCH  22  25
ENDBRANCH   9  19
BRANCH   6  30
ATOM     30  C   UNL     1      -5.339  11.893  18.817  0.00  0.00    +0.000 C 
ATOM     31  C   UNL     1      -6.559  10.976  19.127  0.00  0.00    +0.000 C 
ATOM     32  C   UNL     1      -5.914  13.181  18.171  0.00  0.00    +0.000 C 
BRANCH  30  33
ATOM     33  C   UNL     1      -4.413  11.168  17.819  0.00  0.00    +0.000 A 
ATOM     34  C   UNL     1      -4.039  11.734  16.588  0.00  0.00    +0.000 A 
ATOM     35  C   UNL     1      -3.208  11.049  15.696  0.00  0.00    +0.000 A 
ATOM     36  C   UNL     1      -2.720   9.787  16.018  0.00  0.00    +0.000 A 
ATOM     37  C   UNL     1      -3.056   9.211  17.236  0.00  0.00    +0.000 A 
ATOM     38  C   UNL     1      -3.894   9.891  18.124  0.00  0.00    +0.000 A 
ENDBRANCH  30  33
ENDBRANCH   6  30
TORSDOF 6
ENDMDL
MODEL 9
REMARK VINA RESULT:      -6.9      3.594      7.067
REMARK  Name = 
REMARK  9 active torsions:
REMARK  status: ('A' for Active; 'I' for Inactive)
REMARK    1  A    between atoms: C_1  and  O_2
REMARK    2  A    between atoms: O_2  and  C_3
REMARK    3  A    between atoms: C_8  and  C_9
REMARK    4  A    between atoms: C_14  and  C_15
REMARK    5  A    between atoms: C_15  and  C_16
REMARK    6  A    between atoms: C_15  and  C_17
REMARK    7  A    between atoms: C_15  and  C_18
REMARK    8  A    between atoms: N_26  and  C_27
REMARK    9  A    between atoms: C_30  and  C_31
REMARK                            x       y       z     vdW  Elec       q    Type
REMARK                         _______ _______ _______ _____ _____    ______ ____
ROOT
ATOM      1  C   UNL     1       0.287  11.548  19.977  0.00  0.00    +0.000 C 
ATOM      2  C   UNL     1      -1.014  12.253  19.864  0.00  0.00    +0.000 A 
ATOM      3  C   UNL     1      -1.767  11.658  18.848  0.00  0.00    +0.000 A 
ATOM      4  N   UNL     1      -2.993  12.157  18.730  0.00  0.00    +0.000 NA
ATOM      5  N   UNL     1      -3.010  13.094  19.698  0.00  0.00    +0.000 N 
ATOM      6  C   UNL     1      -1.900  13.078  20.533  0.00  0.00    +0.000 A 
ATOM      7  C   UNL     1      -1.091  10.504  18.291  0.00  0.00    +0.000 C 
ATOM      8  O   UNL     1      -1.529   9.777  17.414  0.00  0.00    +0.000 OA
ATOM      9  N   UNL     1       0.082  10.389  19.077  0.00  0.00    +0.000 N 
ATOM     10  H   UNL     1      -3.850  13.656  19.785  0.00  0.00    +0.000 HD
ENDROOT
BRANCH   1  16
ATOM     11  C   UNL     1       2.068  13.457  20.296  0.00  0.00    +0.000 A 
ATOM     12  C   UNL     1       2.980  14.340  19.689  0.00  0.00    +0.000 A 
ATOM     13  C   UNL     1       3.304  14.230  18.339  0.00  0.00    +0.000 A 
ATOM     14  C   UNL     1       2.742  13.223  17.579  0.00  0.00    +0.000 A 
ATOM     15  C   UNL     1       1.830  12.336  18.172  0.00  0.00    +0.000 A 
ATOM     16  C   UNL     1       1.451  12.436  19.532  0.00  0.00    +0.000 A 
BRANCH  11  18
ATOM     17  C   UNL     1       2.089  14.858  22.214  0.00  0.00    +0.000 C 
ATOM     18  O   UNL     1       1.713  13.613  21.617  0.00  0.00    +0.000 OA
ENDBRANCH  11  18
ENDBRANCH   1  16
BRANCH   9  19
ATOM     19  C   UNL     1       0.982   9.297  19.049  0.00  0.00    +0.000 A 
ATOM     20  C   UNL     1       1.208   8.531  20.191  0.00  0.00    +0.000 A 
ATOM     21  C   UNL     1       2.108   7.468  20.176  0.00  0.00    +0.000 A 
ATOM     22  C   UNL     1       2.810   7.146  19.014  0.00  0.00    +0.000 A 
ATOM     23  C   UNL     1       2.606   7.917  17.866  0.00  0.00    +0.000 A 
ATOM     24  C   UNL     1       1.685   8.970  17.881  0.00  0.00    +0.000 A 
BRANCH  22  25
ATOM     25  C   UNL     1       3.713   6.011  18.994  0.00  0.00    +0.000 A 
ATOM     26  C   UNL     1       4.855   5.840  18.169  0.00  0.00    +0.000 A 
ATOM     27  C   UNL     1       5.358   4.620  18.527  0.00  0.00    +0.000 A 
ATOM     28  O   UNL     1       4.589   4.086  19.501  0.00  0.00    +0.000 OA
ATOM     29  N   UNL     1       3.560   4.958  19.817  0.00  0.00    +0.000 NA
ENDBRANCH  22  25
ENDBRANCH   9  19
BRANCH   6  30
ATOM     30  C   UNL     1      -1.878  13.842  21.857  0.00  0.00    +0.000 C 
ATOM     31  C   UNL     1      -0.952  13.098  22.866  0.00  0.00    +0.000 C 
ATOM     32  C   UNL     1      -1.238  15.236  21.624  0.00  0.00    +0.000 C 
BRANCH  30  33
ATOM     33  C   UNL     1      -3.276  13.999  22.488  0.00  0.00    +0.000 A 
ATOM     34  C   UNL     1      -4.013  15.193  22.402  0.00  0.00    +0.000 A 
ATOM     35  C   UNL     1      -5.273  15.313  22.995  0.00  0.00    +0.000 A 
ATOM     36  C   UNL     1      -5.835  14.239  23.677  0.00  0.00    +0.000 A 
ATOM     37  C   UNL     1      -5.138  13.040  23.761  0.00  0.00    +0.000 A 
ATOM     38  C   UNL     1      -3.874  12.922  23.177  0.00  0.00    +0.000 A 
ENDBRANCH  30  33
ENDBRANCH   6  30
TORSDOF 6
ENDMDL
