MODEL 1
REMARK VINA RESULT:      -8.2      0.000      0.000
REMARK  Name = 
REMARK  6 active torsions:
REMARK  status: ('A' for Active; 'I' for Inactive)
REMARK    1  A    between atoms: N_10  and  C_11
REMARK    2  A    between atoms: C_11  and  C_12
REMARK    3  A    between atoms: C_12  and  C_13
REMARK    4  A    between atoms: C_13  and  C_14
REMARK    5  A    between atoms: C_14  and  N_15
REMARK    6  A    between atoms: N_18  and  C_19
REMARK                            x       y       z     vdW  Elec       q    Type
REMARK                         _______ _______ _______ _____ _____    ______ ____
ROOT
ATOM      1  C   UNL     1       7.449   8.059  17.228  0.00  0.00    +0.000 C 
ENDROOT
BRANCH   1   2
ATOM      2  N   UNL     1       6.712   6.819  17.266  0.00  0.00    +0.000 NA
ATOM      3  C   UNL     1       5.325   6.845  16.786  0.00  0.00    +0.000 C 
ATOM      4  C   UNL     1       4.829   5.400  16.497  0.00  0.00    +0.000 C 
ATOM      5  N   UNL     1       5.079   4.529  17.659  0.00  0.00    +0.000 N 
ATOM      6  C   UNL     1       6.434   4.601  18.227  0.00  0.00    +0.000 C 
ATOM      7  C   UNL     1       6.804   6.066  18.519  0.00  0.00    +0.000 C 
BRANCH   5   8
ATOM      8  C   UNL     1       4.118   3.687  18.170  0.00  0.00    +0.000 A 
ATOM      9  C   UNL     1       3.387   2.820  17.344  0.00  0.00    +0.000 A 
ATOM     10  C   UNL     1       2.384   1.992  17.853  0.00  0.00    +0.000 A 
ATOM     11  C   UNL     1       2.083   2.017  19.215  0.00  0.00    +0.000 A 
ATOM     12  C   UNL     1       2.803   2.863  20.050  0.00  0.00    +0.000 A 
ATOM     13 CL   UNL     1       2.434   2.922  21.730  0.00  0.00    +0.000 Cl
ATOM     14  C   UNL     1       3.810   3.677  19.537  0.00  0.00    +0.000 A 
ENDBRANCH   5   8
ENDBRANCH   1   2
BRANCH   1  15
ATOM     15  C   UNL     1       8.388   8.413  18.380  0.00  0.00    +0.000 C 
BRANCH  15  16
ATOM     16  C   UNL     1       8.635   9.936  18.414  0.00  0.00    +0.000 C 
BRANCH  16  17
ATOM     17  C   UNL     1       9.560  10.370  19.564  0.00  0.00    +0.000 C 
BRANCH  17  27
ATOM     18  O   UNL     1       8.586  11.986  21.717  0.00  0.00    +0.000 OA
ATOM     19  C   UNL     1       9.170  12.479  20.763  0.00  0.00    +0.000 A 
ATOM     20  S   UNL     1       9.411  14.220  20.585  0.00  0.00    +0.000 S 
ATOM     21  C   UNL     1      10.245  13.985  19.039  0.00  0.00    +0.000 A 
ATOM     22  C   UNL     1      10.758  14.984  18.218  0.00  0.00    +0.000 A 
ATOM     23  C   UNL     1      11.378  14.609  17.030  0.00  0.00    +0.000 A 
ATOM     24  C   UNL     1      11.469  13.254  16.677  0.00  0.00    +0.000 A 
ATOM     25  C   UNL     1      10.941  12.258  17.512  0.00  0.00    +0.000 A 
ATOM     26  C   UNL     1      10.327  12.634  18.700  0.00  0.00    +0.000 A 
ATOM     27  N   UNL     1       9.717  11.802  19.676  0.00  0.00    +0.000 N 
ENDBRANCH  17  27
ENDBRANCH  16  17
ENDBRANCH  15  16
ENDBRANCH   1  15
TORSDOF 6
ENDMDL
MODEL 2
REMARK VINA RESULT:      -7.8      6.299      8.370
REMARK  Name = 
REMARK  6 active torsions:
REMARK  status: ('A' for Active; 'I' for Inactive)
REMARK    1  A    between atoms: N_10  and  C_11
REMARK    2  A    between atoms: C_11  and  C_12
REMARK    3  A    between atoms: C_12  and  C_13
REMARK    4  A    between atoms: C_13  and  C_14
REMARK    5  A    between atoms: C_14  and  N_15
REMARK    6  A    between atoms: N_18  and  C_19
REMARK                            x       y       z     vdW  Elec       q    Type
REMARK                         _______ _______ _______ _____ _____    ______ ____
ROOT
ATOM      1  C   UNL     1       3.886   5.504  19.516  0.00  0.00    +0.000 C 
ENDROOT
BRANCH   1   2
ATOM      2  N   UNL     1       4.731   5.516  18.347  0.00  0.00    +0.000 NA
ATOM      3  C   UNL     1       4.247   6.252  17.172  0.00  0.00    +0.000 C 
ATOM      4  C   UNL     1       5.419   6.522  16.188  0.00  0.00    +0.000 C 
ATOM      5  N   UNL     1       6.143   5.272  15.895  0.00  0.00    +0.000 N 
ATOM      6  C   UNL     1       6.513   4.464  17.067  0.00  0.00    +0.000 C 
ATOM      7  C   UNL     1       5.274   4.215  17.946  0.00  0.00    +0.000 C 
BRANCH   5   8
ATOM      8  C   UNL     1       6.472   4.893  14.613  0.00  0.00    +0.000 A 
ATOM      9  C   UNL     1       7.598   5.415  13.960  0.00  0.00    +0.000 A 
ATOM     10  C   UNL     1       7.914   5.062  12.645  0.00  0.00    +0.000 A 
ATOM     11  C   UNL     1       7.097   4.173  11.947  0.00  0.00    +0.000 A 
ATOM     12  C   UNL     1       5.982   3.639  12.581  0.00  0.00    +0.000 A 
ATOM     13 CL   UNL     1       4.951   2.555  11.730  0.00  0.00    +0.000 Cl
ATOM     14  C   UNL     1       5.680   3.986  13.896  0.00  0.00    +0.000 A 
ENDBRANCH   5   8
ENDBRANCH   1   2
BRANCH   1  15
ATOM     15  C   UNL     1       2.416   5.111  19.380  0.00  0.00    +0.000 C 
BRANCH  15  16
ATOM     16  C   UNL     1       1.530   6.085  20.184  0.00  0.00    +0.000 C 
BRANCH  16  17
ATOM     17  C   UNL     1       2.198   7.451  20.420  0.00  0.00    +0.000 C 
BRANCH  17  27
ATOM     18  O   UNL     1       1.859   8.615  17.826  0.00  0.00    +0.000 OA
ATOM     19  C   UNL     1       1.292   9.069  18.808  0.00  0.00    +0.000 A 
ATOM     20  S   UNL     1       0.270  10.510  18.742  0.00  0.00    +0.000 S 
ATOM     21  C   UNL     1      -0.050  10.410  20.482  0.00  0.00    +0.000 A 
ATOM     22  C   UNL     1      -0.826  11.288  21.230  0.00  0.00    +0.000 A 
ATOM     23  C   UNL     1      -0.961  11.053  22.595  0.00  0.00    +0.000 A 
ATOM     24  C   UNL     1      -0.317   9.959  23.191  0.00  0.00    +0.000 A 
ATOM     25  C   UNL     1       0.468   9.085  22.425  0.00  0.00    +0.000 A 
ATOM     26  C   UNL     1       0.597   9.318  21.061  0.00  0.00    +0.000 A 
ATOM     27  N   UNL     1       1.347   8.577  20.110  0.00  0.00    +0.000 N 
ENDBRANCH  17  27
ENDBRANCH  16  17
ENDBRANCH  15  16
ENDBRANCH   1  15
TORSDOF 6
ENDMDL
MODEL 3
REMARK VINA RESULT:      -7.8      1.344      2.586
REMARK  Name = 
REMARK  6 active torsions:
REMARK  status: ('A' for Active; 'I' for Inactive)
REMARK    1  A    between atoms: N_10  and  C_11
REMARK    2  A    between atoms: C_11  and  C_12
REMARK    3  A    between atoms: C_12  and  C_13
REMARK    4  A    between atoms: C_13  and  C_14
REMARK    5  A    between atoms: C_14  and  N_15
REMARK    6  A    between atoms: N_18  and  C_19
REMARK                            x       y       z     vdW  Elec       q    Type
REMARK                         _______ _______ _______ _____ _____    ______ ____
ROOT
ATOM      1  C   UNL     1       7.707   8.044  17.194  0.00  0.00    +0.000 C 
ENDROOT
BRANCH   1   2
ATOM      2  N   UNL     1       6.878   6.864  17.233  0.00  0.00    +0.000 NA
ATOM      3  C   UNL     1       5.458   7.025  16.896  0.00  0.00    +0.000 C 
ATOM      4  C   UNL     1       4.822   5.644  16.574  0.00  0.00    +0.000 C 
ATOM      5  N   UNL     1       5.108   4.683  17.655  0.00  0.00    +0.000 N 
ATOM      6  C   UNL     1       6.512   4.616  18.089  0.00  0.00    +0.000 C 
ATOM      7  C   UNL     1       7.026   6.027  18.427  0.00  0.00    +0.000 C 
BRANCH   5   8
ATOM      8  C   UNL     1       4.135   3.884  18.209  0.00  0.00    +0.000 A 
ATOM      9  C   UNL     1       3.472   2.904  17.455  0.00  0.00    +0.000 A 
ATOM     10  C   UNL     1       2.456   2.118  18.003  0.00  0.00    +0.000 A 
ATOM     11  C   UNL     1       2.072   2.301  19.332  0.00  0.00    +0.000 A 
ATOM     12  C   UNL     1       2.724   3.261  20.097  0.00  0.00    +0.000 A 
ATOM     13 CL   UNL     1       2.253   3.515  21.733  0.00  0.00    +0.000 Cl
ATOM     14  C   UNL     1       3.744   4.033  19.547  0.00  0.00    +0.000 A 
ENDBRANCH   5   8
ENDBRANCH   1   2
BRANCH   1  15
ATOM     15  C   UNL     1       8.353   8.555  18.481  0.00  0.00    +0.000 C 
BRANCH  15  16
ATOM     16  C   UNL     1       8.639  10.067  18.366  0.00  0.00    +0.000 C 
BRANCH  16  17
ATOM     17  C   UNL     1       9.896  10.502  19.139  0.00  0.00    +0.000 C 
BRANCH  17  27
ATOM     18  O   UNL     1      10.899  12.725  17.641  0.00  0.00    +0.000 OA
ATOM     19  C   UNL     1      10.419  12.872  18.754  0.00  0.00    +0.000 A 
ATOM     20  S   UNL     1      10.354  14.438  19.570  0.00  0.00    +0.000 S 
ATOM     21  C   UNL     1       9.588  13.709  20.992  0.00  0.00    +0.000 A 
ATOM     22  C   UNL     1       9.219  14.368  22.159  0.00  0.00    +0.000 A 
ATOM     23  C   UNL     1       8.633  13.626  23.180  0.00  0.00    +0.000 A 
ATOM     24  C   UNL     1       8.433  12.247  23.026  0.00  0.00    +0.000 A 
ATOM     25  C   UNL     1       8.817  11.594  21.845  0.00  0.00    +0.000 A 
ATOM     26  C   UNL     1       9.397  12.337  20.825  0.00  0.00    +0.000 A 
ATOM     27  N   UNL     1       9.870  11.882  19.566  0.00  0.00    +0.000 N 
ENDBRANCH  17  27
ENDBRANCH  16  17
ENDBRANCH  15  16
ENDBRANCH   1  15
TORSDOF 6
ENDMDL
MODEL 4
REMARK VINA RESULT:      -7.8      1.924      2.330
REMARK  Name = 
REMARK  6 active torsions:
REMARK  status: ('A' for Active; 'I' for Inactive)
REMARK    1  A    between atoms: N_10  and  C_11
REMARK    2  A    between atoms: C_11  and  C_12
REMARK    3  A    between atoms: C_12  and  C_13
REMARK    4  A    between atoms: C_13  and  C_14
REMARK    5  A    between atoms: C_14  and  N_15
REMARK    6  A    between atoms: N_18  and  C_19
REMARK                            x       y       z     vdW  Elec       q    Type
REMARK                         _______ _______ _______ _____ _____    ______ ____
ROOT
ATOM      1  C   UNL     1       8.258   7.551  18.227  0.00  0.00    +0.000 C 
ENDROOT
BRANCH   1   2
ATOM      2  N   UNL     1       7.162   6.628  18.058  0.00  0.00    +0.000 NA
ATOM      3  C   UNL     1       5.886   7.176  17.582  0.00  0.00    +0.000 C 
ATOM      4  C   UNL     1       4.972   6.033  17.058  0.00  0.00    +0.000 C 
ATOM      5  N   UNL     1       4.862   4.962  18.064  0.00  0.00    +0.000 N 
ATOM      6  C   UNL     1       6.134   4.502  18.643  0.00  0.00    +0.000 C 
ATOM      7  C   UNL     1       6.936   5.704  19.172  0.00  0.00    +0.000 C 
BRANCH   5   8
ATOM      8  C   UNL     1       3.654   4.410  18.425  0.00  0.00    +0.000 A 
ATOM      9  C   UNL     1       2.555   4.413  17.553  0.00  0.00    +0.000 A 
ATOM     10  C   UNL     1       1.317   3.888  17.931  0.00  0.00    +0.000 A 
ATOM     11  C   UNL     1       1.147   3.349  19.206  0.00  0.00    +0.000 A 
ATOM     12  C   UNL     1       2.227   3.329  20.080  0.00  0.00    +0.000 A 
ATOM     13 CL   UNL     1       2.033   2.685  21.664  0.00  0.00    +0.000 Cl
ATOM     14  C   UNL     1       3.462   3.843  19.693  0.00  0.00    +0.000 A 
ENDBRANCH   5   8
ENDBRANCH   1   2
BRANCH   1  15
ATOM     15  C   UNL     1       8.084   9.012  17.813  0.00  0.00    +0.000 C 
BRANCH  15  16
ATOM     16  C   UNL     1       8.826   9.934  18.804  0.00  0.00    +0.000 C 
BRANCH  16  17
ATOM     17  C   UNL     1       9.500  11.135  18.117  0.00  0.00    +0.000 C 
BRANCH  17  27
ATOM     18  O   UNL     1       7.421  12.340  16.561  0.00  0.00    +0.000 OA
ATOM     19  C   UNL     1       7.882  12.894  17.548  0.00  0.00    +0.000 A 
ATOM     20  S   UNL     1       7.367  14.502  18.071  0.00  0.00    +0.000 S 
ATOM     21  C   UNL     1       8.501  14.465  19.431  0.00  0.00    +0.000 A 
ATOM     22  C   UNL     1       8.702  15.475  20.366  0.00  0.00    +0.000 A 
ATOM     23  C   UNL     1       9.646  15.270  21.367  0.00  0.00    +0.000 A 
ATOM     24  C   UNL     1      10.378  14.075  21.416  0.00  0.00    +0.000 A 
ATOM     25  C   UNL     1      10.169  13.067  20.462  0.00  0.00    +0.000 A 
ATOM     26  C   UNL     1       9.222  13.271  19.466  0.00  0.00    +0.000 A 
ATOM     27  N   UNL     1       8.865  12.401  18.403  0.00  0.00    +0.000 N 
ENDBRANCH  17  27
ENDBRANCH  16  17
ENDBRANCH  15  16
ENDBRANCH   1  15
TORSDOF 6
ENDMDL
MODEL 5
REMARK VINA RESULT:      -7.6      7.716     10.943
REMARK  Name = 
REMARK  6 active torsions:
REMARK  status: ('A' for Active; 'I' for Inactive)
REMARK    1  A    between atoms: N_10  and  C_11
REMARK    2  A    between atoms: C_11  and  C_12
REMARK    3  A    between atoms: C_12  and  C_13
REMARK    4  A    between atoms: C_13  and  C_14
REMARK    5  A    between atoms: C_14  and  N_15
REMARK    6  A    between atoms: N_18  and  C_19
REMARK                            x       y       z     vdW  Elec       q    Type
REMARK                         _______ _______ _______ _____ _____    ______ ____
ROOT
ATOM      1  C   UNL     1       1.700   8.990  17.918  0.00  0.00    +0.000 C 
ENDROOT
BRANCH   1   2
ATOM      2  N   UNL     1       1.001   9.958  18.729  0.00  0.00    +0.000 NA
ATOM      3  C   UNL     1       0.992   9.739  20.181  0.00  0.00    +0.000 C 
ATOM      4  C   UNL     1       0.587  11.046  20.918  0.00  0.00    +0.000 C 
ATOM      5  N   UNL     1      -0.661  11.589  20.353  0.00  0.00    +0.000 N 
ATOM      6  C   UNL     1      -0.705  11.684  18.886  0.00  0.00    +0.000 C 
ATOM      7  C   UNL     1      -0.336  10.328  18.260  0.00  0.00    +0.000 C 
BRANCH   5   8
ATOM      8  C   UNL     1      -1.711  12.001  21.143  0.00  0.00    +0.000 A 
ATOM      9  C   UNL     1      -1.713  11.790  22.530  0.00  0.00    +0.000 A 
ATOM     10  C   UNL     1      -2.793  12.172  23.329  0.00  0.00    +0.000 A 
ATOM     11  C   UNL     1      -3.910  12.775  22.750  0.00  0.00    +0.000 A 
ATOM     12  C   UNL     1      -3.922  13.000  21.379  0.00  0.00    +0.000 A 
ATOM     13 CL   UNL     1      -5.298  13.725  20.643  0.00  0.00    +0.000 Cl
ATOM     14  C   UNL     1      -2.836  12.628  20.590  0.00  0.00    +0.000 A 
ENDBRANCH   5   8
ENDBRANCH   1   2
BRANCH   1  15
ATOM     15  C   UNL     1       2.407   7.813  18.589  0.00  0.00    +0.000 C 
BRANCH  15  16
ATOM     16  C   UNL     1       3.365   7.131  17.590  0.00  0.00    +0.000 C 
BRANCH  16  17
ATOM     17  C   UNL     1       4.304   6.111  18.258  0.00  0.00    +0.000 C 
BRANCH  17  27
ATOM     18  O   UNL     1       4.622   4.192  16.158  0.00  0.00    +0.000 OA
ATOM     19  C   UNL     1       3.985   3.932  17.168  0.00  0.00    +0.000 A 
ATOM     20  S   UNL     1       3.151   2.392  17.404  0.00  0.00    +0.000 S 
ATOM     21  C   UNL     1       2.552   2.915  18.987  0.00  0.00    +0.000 A 
ATOM     22  C   UNL     1       1.737   2.184  19.844  0.00  0.00    +0.000 A 
ATOM     23  C   UNL     1       1.357   2.764  21.051  0.00  0.00    +0.000 A 
ATOM     24  C   UNL     1       1.786   4.058  21.379  0.00  0.00    +0.000 A 
ATOM     25  C   UNL     1       2.603   4.787  20.502  0.00  0.00    +0.000 A 
ATOM     26  C   UNL     1       2.985   4.204  19.300  0.00  0.00    +0.000 A 
ATOM     27  N   UNL     1       3.786   4.762  18.268  0.00  0.00    +0.000 N 
ENDBRANCH  17  27
ENDBRANCH  16  17
ENDBRANCH  15  16
ENDBRANCH   1  15
TORSDOF 6
ENDMDL
MODEL 6
REMARK VINA RESULT:      -7.6      8.061     11.302
REMARK  Name = 
REMARK  6 active torsions:
REMARK  status: ('A' for Active; 'I' for Inactive)
REMARK    1  A    between atoms: N_10  and  C_11
REMARK    2  A    between atoms: C_11  and  C_12
REMARK    3  A    between atoms: C_12  and  C_13
REMARK    4  A    between atoms: C_13  and  C_14
REMARK    5  A    between atoms: C_14  and  N_15
REMARK    6  A    between atoms: N_18  and  C_19
REMARK                            x       y       z     vdW  Elec       q    Type
REMARK                         _______ _______ _______ _____ _____    ______ ____
ROOT
ATOM      1  C   UNL     1       0.408   9.796  18.649  0.00  0.00    +0.000 C 
ENDROOT
BRANCH   1   2
ATOM      2  N   UNL     1       0.164  10.608  19.816  0.00  0.00    +0.000 NA
ATOM      3  C   UNL     1      -0.419   9.944  20.989  0.00  0.00    +0.000 C 
ATOM      4  C   UNL     1      -0.224  10.822  22.256  0.00  0.00    +0.000 C 
ATOM      5  N   UNL     1      -0.699  12.195  22.007  0.00  0.00    +0.000 N 
ATOM      6  C   UNL     1      -0.222  12.816  20.762  0.00  0.00    +0.000 C 
ATOM      7  C   UNL     1      -0.507  11.887  19.568  0.00  0.00    +0.000 C 
BRANCH   5   8
ATOM      8  C   UNL     1      -1.517  12.864  22.888  0.00  0.00    +0.000 A 
ATOM      9  C   UNL     1      -1.154  14.107  23.429  0.00  0.00    +0.000 A 
ATOM     10  C   UNL     1      -1.965  14.771  24.353  0.00  0.00    +0.000 A 
ATOM     11  C   UNL     1      -3.166  14.196  24.767  0.00  0.00    +0.000 A 
ATOM     12  C   UNL     1      -3.546  12.969  24.236  0.00  0.00    +0.000 A 
ATOM     13 CL   UNL     1      -5.016  12.234  24.747  0.00  0.00    +0.000 Cl
ATOM     14  C   UNL     1      -2.740  12.319  23.305  0.00  0.00    +0.000 A 
ENDBRANCH   5   8
ENDBRANCH   1   2
BRANCH   1  15
ATOM     15  C   UNL     1       1.844   9.555  18.184  0.00  0.00    +0.000 C 
BRANCH  15  16
ATOM     16  C   UNL     1       2.019   8.087  17.743  0.00  0.00    +0.000 C 
BRANCH  16  17
ATOM     17  C   UNL     1       2.741   7.226  18.794  0.00  0.00    +0.000 C 
BRANCH  17  27
ATOM     18  O   UNL     1       4.825   6.687  16.907  0.00  0.00    +0.000 OA
ATOM     19  C   UNL     1       4.136   5.790  17.369  0.00  0.00    +0.000 A 
ATOM     20  S   UNL     1       4.309   4.101  16.879  0.00  0.00    +0.000 S 
ATOM     21  C   UNL     1       2.996   3.612  17.964  0.00  0.00    +0.000 A 
ATOM     22  C   UNL     1       2.499   2.324  18.129  0.00  0.00    +0.000 A 
ATOM     23  C   UNL     1       1.453   2.129  19.027  0.00  0.00    +0.000 A 
ATOM     24  C   UNL     1       0.917   3.215  19.734  0.00  0.00    +0.000 A 
ATOM     25  C   UNL     1       1.425   4.510  19.552  0.00  0.00    +0.000 A 
ATOM     26  C   UNL     1       2.472   4.702  18.659  0.00  0.00    +0.000 A 
ATOM     27  N   UNL     1       3.120   5.917  18.313  0.00  0.00    +0.000 N 
ENDBRANCH  17  27
ENDBRANCH  16  17
ENDBRANCH  15  16
ENDBRANCH   1  15
TORSDOF 6
ENDMDL
MODEL 7
REMARK VINA RESULT:      -7.5      1.551      1.808
REMARK  Name = 
REMARK  6 active torsions:
REMARK  status: ('A' for Active; 'I' for Inactive)
REMARK    1  A    between atoms: N_10  and  C_11
REMARK    2  A    between atoms: C_11  and  C_12
REMARK    3  A    between atoms: C_12  and  C_13
REMARK    4  A    between atoms: C_13  and  C_14
REMARK    5  A    between atoms: C_14  and  N_15
REMARK    6  A    between atoms: N_18  and  C_19
REMARK                            x       y       z     vdW  Elec       q    Type
REMARK                         _______ _______ _______ _____ _____    ______ ____
ROOT
ATOM      1  C   UNL     1       8.100   7.941  17.243  0.00  0.00    +0.000 C 
ENDROOT
BRANCH   1   2
ATOM      2  N   UNL     1       7.171   6.836  17.264  0.00  0.00    +0.000 NA
ATOM      3  C   UNL     1       5.809   7.092  16.780  0.00  0.00    +0.000 C 
ATOM      4  C   UNL     1       5.088   5.750  16.472  0.00  0.00    +0.000 C 
ATOM      5  N   UNL     1       5.187   4.837  17.624  0.00  0.00    +0.000 N 
ATOM      6  C   UNL     1       6.534   4.682  18.197  0.00  0.00    +0.000 C 
ATOM      7  C   UNL     1       7.134   6.065  18.508  0.00  0.00    +0.000 C 
BRANCH   5   8
ATOM      8  C   UNL     1       4.100   4.155  18.122  0.00  0.00    +0.000 A 
ATOM      9  C   UNL     1       3.265   3.397  17.288  0.00  0.00    +0.000 A 
ATOM     10  C   UNL     1       2.138   2.736  17.784  0.00  0.00    +0.000 A 
ATOM     11  C   UNL     1       1.816   2.825  19.138  0.00  0.00    +0.000 A 
ATOM     12  C   UNL     1       2.637   3.564  19.980  0.00  0.00    +0.000 A 
ATOM     13 CL   UNL     1       2.247   3.702  21.651  0.00  0.00    +0.000 Cl
ATOM     14  C   UNL     1       3.766   4.211  19.482  0.00  0.00    +0.000 A 
ENDBRANCH   5   8
ENDBRANCH   1   2
BRANCH   1  15
ATOM     15  C   UNL     1       7.722   9.256  17.923  0.00  0.00    +0.000 C 
BRANCH  15  16
ATOM     16  C   UNL     1       8.854   9.707  18.870  0.00  0.00    +0.000 C 
BRANCH  16  17
ATOM     17  C   UNL     1       9.756  10.791  18.256  0.00  0.00    +0.000 C 
BRANCH  17  27
ATOM     18  O   UNL     1      11.377  11.548  20.491  0.00  0.00    +0.000 OA
ATOM     19  C   UNL     1      10.521  12.295  20.042  0.00  0.00    +0.000 A 
ATOM     20  S   UNL     1      10.154  13.870  20.756  0.00  0.00    +0.000 S 
ATOM     21  C   UNL     1       8.888  14.165  19.552  0.00  0.00    +0.000 A 
ATOM     22  C   UNL     1       8.071  15.287  19.472  0.00  0.00    +0.000 A 
ATOM     23  C   UNL     1       7.121  15.341  18.457  0.00  0.00    +0.000 A 
ATOM     24  C   UNL     1       6.995  14.280  17.548  0.00  0.00    +0.000 A 
ATOM     25  C   UNL     1       7.823  13.151  17.645  0.00  0.00    +0.000 A 
ATOM     26  C   UNL     1       8.774  13.101  18.657  0.00  0.00    +0.000 A 
ATOM     27  N   UNL     1       9.695  12.060  18.946  0.00  0.00    +0.000 N 
ENDBRANCH  17  27
ENDBRANCH  16  17
ENDBRANCH  15  16
ENDBRANCH   1  15
TORSDOF 6
ENDMDL
MODEL 8
REMARK VINA RESULT:      -7.4      8.685     10.592
REMARK  Name = 
REMARK  6 active torsions:
REMARK  status: ('A' for Active; 'I' for Inactive)
REMARK    1  A    between atoms: N_10  and  C_11
REMARK    2  A    between atoms: C_11  and  C_12
REMARK    3  A    between atoms: C_12  and  C_13
REMARK    4  A    between atoms: C_13  and  C_14
REMARK    5  A    between atoms: C_14  and  N_15
REMARK    6  A    between atoms: N_18  and  C_19
REMARK                            x       y       z     vdW  Elec       q    Type
REMARK                         _______ _______ _______ _____ _____    ______ ____
ROOT
ATOM      1  C   UNL     1       0.723  10.682  19.463  0.00  0.00    +0.000 C 
ENDROOT
BRANCH   1   2
ATOM      2  N   UNL     1       1.468   9.469  19.229  0.00  0.00    +0.000 NA
ATOM      3  C   UNL     1       1.703   9.082  17.832  0.00  0.00    +0.000 C 
ATOM      4  C   UNL     1       2.845   8.031  17.752  0.00  0.00    +0.000 C 
ATOM      5  N   UNL     1       2.584   6.916  18.680  0.00  0.00    +0.000 N 
ATOM      6  C   UNL     1       2.215   7.304  20.050  0.00  0.00    +0.000 C 
ATOM      7  C   UNL     1       1.048   8.306  20.016  0.00  0.00    +0.000 C 
BRANCH   5   8
ATOM      8  C   UNL     1       2.696   5.598  18.300  0.00  0.00    +0.000 A 
ATOM      9  C   UNL     1       3.741   5.158  17.473  0.00  0.00    +0.000 A 
ATOM     10  C   UNL     1       3.836   3.829  17.054  0.00  0.00    +0.000 A 
ATOM     11  C   UNL     1       2.875   2.901  17.454  0.00  0.00    +0.000 A 
ATOM     12  C   UNL     1       1.839   3.316  18.281  0.00  0.00    +0.000 A 
ATOM     13 CL   UNL     1       0.632   2.190  18.770  0.00  0.00    +0.000 Cl
ATOM     14  C   UNL     1       1.756   4.640  18.705  0.00  0.00    +0.000 A 
ENDBRANCH   5   8
ENDBRANCH   1   2
BRANCH   1  15
ATOM     15  C   UNL     1      -0.792  10.612  19.650  0.00  0.00    +0.000 C 
BRANCH  15  16
ATOM     16  C   UNL     1      -1.493  10.556  18.277  0.00  0.00    +0.000 C 
BRANCH  16  17
ATOM     17  C   UNL     1      -2.301  11.827  17.962  0.00  0.00    +0.000 C 
BRANCH  17  27
ATOM     18  O   UNL     1      -4.393  10.833  16.278  0.00  0.00    +0.000 OA
ATOM     19  C   UNL     1      -4.625  11.258  17.400  0.00  0.00    +0.000 A 
ATOM     20  S   UNL     1      -6.259  11.362  18.065  0.00  0.00    +0.000 S 
ATOM     21  C   UNL     1      -5.642  12.053  19.575  0.00  0.00    +0.000 A 
ATOM     22  C   UNL     1      -6.400  12.450  20.671  0.00  0.00    +0.000 A 
ATOM     23  C   UNL     1      -5.739  12.981  21.775  0.00  0.00    +0.000 A 
ATOM     24  C   UNL     1      -4.343  13.116  21.765  0.00  0.00    +0.000 A 
ATOM     25  C   UNL     1      -3.592  12.717  20.649  0.00  0.00    +0.000 A 
ATOM     26  C   UNL     1      -4.253  12.183  19.551  0.00  0.00    +0.000 A 
ATOM     27  N   UNL     1      -3.697  11.734  18.324  0.00  0.00    +0.000 N 
ENDBRANCH  17  27
ENDBRANCH  16  17
ENDBRANCH  15  16
ENDBRANCH   1  15
TORSDOF 6
ENDMDL
MODEL 9
REMARK VINA RESULT:      -7.4      1.557      2.805
REMARK  Name = 
REMARK  6 active torsions:
REMARK  status: ('A' for Active; 'I' for Inactive)
REMARK    1  A    between atoms: N_10  and  C_11
REMARK    2  A    between atoms: C_11  and  C_12
REMARK    3  A    between atoms: C_12  and  C_13
REMARK    4  A    between atoms: C_13  and  C_14
REMARK    5  A    between atoms: C_14  and  N_15
REMARK    6  A    between atoms: N_18  and  C_19
REMARK                            x       y       z     vdW  Elec       q    Type
REMARK                         _______ _______ _______ _____ _____    ______ ____
ROOT
ATOM      1  C   UNL     1       7.978   7.851  17.473  0.00  0.00    +0.000 C 
ENDROOT
BRANCH   1   2
ATOM      2  N   UNL     1       6.849   7.103  17.969  0.00  0.00    +0.000 NA
ATOM      3  C   UNL     1       7.124   5.810  18.608  0.00  0.00    +0.000 C 
ATOM      4  C   UNL     1       5.896   5.350  19.442  0.00  0.00    +0.000 C 
ATOM      5  N   UNL     1       4.671   5.401  18.624  0.00  0.00    +0.000 N 
ATOM      6  C   UNL     1       4.460   6.650  17.875  0.00  0.00    +0.000 C 
ATOM      7  C   UNL     1       5.715   6.985  17.049  0.00  0.00    +0.000 C 
BRANCH   5   8
ATOM      8  C   UNL     1       3.771   4.362  18.577  0.00  0.00    +0.000 A 
ATOM      9  C   UNL     1       3.576   3.611  17.408  0.00  0.00    +0.000 A 
ATOM     10  C   UNL     1       2.635   2.580  17.346  0.00  0.00    +0.000 A 
ATOM     11  C   UNL     1       1.856   2.278  18.462  0.00  0.00    +0.000 A 
ATOM     12  C   UNL     1       2.041   3.005  19.632  0.00  0.00    +0.000 A 
ATOM     13 CL   UNL     1       1.076   2.662  21.015  0.00  0.00    +0.000 Cl
ATOM     14  C   UNL     1       2.990   4.024  19.691  0.00  0.00    +0.000 A 
ENDBRANCH   5   8
ENDBRANCH   1   2
BRANCH   1  15
ATOM     15  C   UNL     1       8.016   9.368  17.652  0.00  0.00    +0.000 C 
BRANCH  15  16
ATOM     16  C   UNL     1       8.846   9.733  18.901  0.00  0.00    +0.000 C 
BRANCH  16  17
ATOM     17  C   UNL     1       9.979  10.730  18.599  0.00  0.00    +0.000 C 
BRANCH  17  27
ATOM     18  O   UNL     1      10.371  13.152  17.125  0.00  0.00    +0.000 OA
ATOM     19  C   UNL     1       9.988  13.167  18.285  0.00  0.00    +0.000 A 
ATOM     20  S   UNL     1       9.705  14.664  19.181  0.00  0.00    +0.000 S 
ATOM     21  C   UNL     1       9.247  13.755  20.631  0.00  0.00    +0.000 A 
ATOM     22  C   UNL     1       8.880  14.292  21.860  0.00  0.00    +0.000 A 
ATOM     23  C   UNL     1       8.557  13.417  22.894  0.00  0.00    +0.000 A 
ATOM     24  C   UNL     1       8.614  12.031  22.690  0.00  0.00    +0.000 A 
ATOM     25  C   UNL     1       8.993  11.503  21.447  0.00  0.00    +0.000 A 
ATOM     26  C   UNL     1       9.310  12.378  20.415  0.00  0.00    +0.000 A 
ATOM     27  N   UNL     1       9.729  12.064  19.095  0.00  0.00    +0.000 N 
ENDBRANCH  17  27
ENDBRANCH  16  17
ENDBRANCH  15  16
ENDBRANCH   1  15
TORSDOF 6
ENDMDL
