MODEL 1
REMARK VINA RESULT:      -9.1      0.000      0.000
REMARK  Name = 
REMARK  3 active torsions:
REMARK  status: ('A' for Active; 'I' for Inactive)
REMARK    1  A    between atoms: N_1  and  C_2
REMARK    2  A    between atoms: C_7  and  N_8
REMARK    3  A    between atoms: N_8  and  C_9
REMARK                            x       y       z     vdW  Elec       q    Type
REMARK                         _______ _______ _______ _____ _____    ______ ____
ROOT
ATOM      1  C   UNL     1       6.250   5.853  16.234  0.00  0.00    +0.000 A 
ATOM      2  C   UNL     1       5.234   6.812  16.197  0.00  0.00    +0.000 A 
ATOM      3  C   UNL     1       4.082   6.622  16.958  0.00  0.00    +0.000 A 
ATOM      4  C   UNL     1       4.029   5.575  17.880  0.00  0.00    +0.000 A 
ATOM      5  C   UNL     1       5.249   5.028  18.225  0.00  0.00    +0.000 A 
ATOM      6  C   UNL     1       6.346   5.084  17.370  0.00  0.00    +0.000 A 
ATOM      7  C   UNL     1       5.481   4.322  19.463  0.00  0.00    +0.000 C 
ATOM      8  O   UNL     1       6.323   4.695  20.264  0.00  0.00    +0.000 OA
ATOM      9  C   UNL     1       4.633   3.135  19.633  0.00  0.00    +0.000 C 
ATOM     10  C   UNL     1       3.243   3.534  19.995  0.00  0.00    +0.000 A 
ATOM     11  C   UNL     1       2.721   2.987  21.168  0.00  0.00    +0.000 A 
ATOM     12  C   UNL     1       1.369   2.728  21.243  0.00  0.00    +0.000 A 
ATOM     13  C   UNL     1       0.565   3.015  20.145  0.00  0.00    +0.000 A 
ATOM     14  C   UNL     1       1.076   3.787  19.092  0.00  0.00    +0.000 A 
ATOM     15  C   UNL     1       2.419   4.161  19.068  0.00  0.00    +0.000 A 
ATOM     16  O   UNL     1       2.757   5.174  18.212  0.00  0.00    +0.000 OA
ENDROOT
BRANCH   1  17
ATOM     17  N   UNL     1       7.195   5.704  15.204  0.00  0.00    +0.000 N 
ATOM     18  H   UNL     1       8.129   5.505  15.554  0.00  0.00    +0.000 HD
BRANCH  17  24
ATOM     19  C   UNL     1       7.761   5.146  12.911  0.00  0.00    +0.000 A 
ATOM     20  C   UNL     1       7.496   4.429  11.729  0.00  0.00    +0.000 A 
ATOM     21  C   UNL     1       6.439   3.520  11.686  0.00  0.00    +0.000 A 
ATOM     22  C   UNL     1       5.717   3.211  12.832  0.00  0.00    +0.000 A 
ATOM     23  C   UNL     1       6.018   3.864  14.021  0.00  0.00    +0.000 A 
ATOM     24  C   UNL     1       6.980   4.889  14.050  0.00  0.00    +0.000 A 
BRANCH  19  25
ATOM     25  N   UNL     1       8.902   5.964  13.018  0.00  0.00    +0.000 N 
ATOM     26  H   UNL     1       8.729   6.818  13.540  0.00  0.00    +0.000 HD
ATOM     27  H   UNL     1       9.680   5.434  13.408  0.00  0.00    +0.000 HD
ENDBRANCH  19  25
ENDBRANCH  17  24
ENDBRANCH   1  17
TORSDOF 3
ENDMDL
MODEL 2
REMARK VINA RESULT:      -8.9      5.559      7.904
REMARK  Name = 
REMARK  3 active torsions:
REMARK  status: ('A' for Active; 'I' for Inactive)
REMARK    1  A    between atoms: N_1  and  C_2
REMARK    2  A    between atoms: C_7  and  N_8
REMARK    3  A    between atoms: N_8  and  C_9
REMARK                            x       y       z     vdW  Elec       q    Type
REMARK                         _______ _______ _______ _____ _____    ______ ____
ROOT
ATOM      1  C   UNL     1       0.936   9.910  18.850  0.00  0.00    +0.000 A 
ATOM      2  C   UNL     1       1.011   9.864  20.245  0.00  0.00    +0.000 A 
ATOM      3  C   UNL     1       1.324   8.663  20.878  0.00  0.00    +0.000 A 
ATOM      4  C   UNL     1       1.732   7.568  20.115  0.00  0.00    +0.000 A 
ATOM      5  C   UNL     1       2.141   7.862  18.829  0.00  0.00    +0.000 A 
ATOM      6  C   UNL     1       1.679   8.987  18.152  0.00  0.00    +0.000 A 
ATOM      7  C   UNL     1       3.033   7.019  18.067  0.00  0.00    +0.000 C 
ATOM      8  O   UNL     1       4.101   7.435  17.645  0.00  0.00    +0.000 OA
ATOM      9  C   UNL     1       2.518   5.661  17.848  0.00  0.00    +0.000 C 
ATOM     10  C   UNL     1       2.640   4.850  19.092  0.00  0.00    +0.000 A 
ATOM     11  C   UNL     1       3.343   3.650  18.989  0.00  0.00    +0.000 A 
ATOM     12  C   UNL     1       2.969   2.583  19.779  0.00  0.00    +0.000 A 
ATOM     13  C   UNL     1       1.898   2.734  20.652  0.00  0.00    +0.000 A 
ATOM     14  C   UNL     1       1.384   4.013  20.908  0.00  0.00    +0.000 A 
ATOM     15  C   UNL     1       1.845   5.122  20.199  0.00  0.00    +0.000 A 
ATOM     16  O   UNL     1       1.554   6.351  20.727  0.00  0.00    +0.000 OA
ENDROOT
BRANCH   1  17
ATOM     17  N   UNL     1       0.202  10.889  18.157  0.00  0.00    +0.000 N 
ATOM     18  H   UNL     1       0.624  11.137  17.265  0.00  0.00    +0.000 HD
BRANCH  17  24
ATOM     19  C   UNL     1      -1.997  11.836  18.546  0.00  0.00    +0.000 A 
ATOM     20  C   UNL     1      -3.399  11.740  18.465  0.00  0.00    +0.000 A 
ATOM     21  C   UNL     1      -3.988  10.626  17.866  0.00  0.00    +0.000 A 
ATOM     22  C   UNL     1      -3.213   9.665  17.229  0.00  0.00    +0.000 A 
ATOM     23  C   UNL     1      -1.830   9.790  17.244  0.00  0.00    +0.000 A 
ATOM     24  C   UNL     1      -1.212  10.825  17.969  0.00  0.00    +0.000 A 
BRANCH  19  25
ATOM     25  N   UNL     1      -1.383  13.010  19.022  0.00  0.00    +0.000 N 
ATOM     26  H   UNL     1      -0.369  12.937  19.063  0.00  0.00    +0.000 HD
ATOM     27  H   UNL     1      -1.681  13.813  18.470  0.00  0.00    +0.000 HD
ENDBRANCH  19  25
ENDBRANCH  17  24
ENDBRANCH   1  17
TORSDOF 3
ENDMDL
MODEL 3
REMARK VINA RESULT:      -8.4      5.233      7.170
REMARK  Name = 
REMARK  3 active torsions:
REMARK  status: ('A' for Active; 'I' for Inactive)
REMARK    1  A    between atoms: N_1  and  C_2
REMARK    2  A    between atoms: C_7  and  N_8
REMARK    3  A    between atoms: N_8  and  C_9
REMARK                            x       y       z     vdW  Elec       q    Type
REMARK                         _______ _______ _______ _____ _____    ______ ____
ROOT
ATOM      1  C   UNL     1       2.668   6.881  19.642  0.00  0.00    +0.000 A 
ATOM      2  C   UNL     1       2.995   7.360  18.370  0.00  0.00    +0.000 A 
ATOM      3  C   UNL     1       2.208   8.351  17.786  0.00  0.00    +0.000 A 
ATOM      4  C   UNL     1       1.217   8.979  18.541  0.00  0.00    +0.000 A 
ATOM      5  C   UNL     1       1.328   8.825  19.909  0.00  0.00    +0.000 A 
ATOM      6  C   UNL     1       1.976   7.730  20.474  0.00  0.00    +0.000 A 
ATOM      7  C   UNL     1       0.752   9.745  20.861  0.00  0.00    +0.000 C 
ATOM      8  O   UNL     1       1.442  10.337  21.676  0.00  0.00    +0.000 OA
ATOM      9  C   UNL     1      -0.708   9.869  20.754  0.00  0.00    +0.000 C 
ATOM     10  C   UNL     1      -1.077  10.694  19.569  0.00  0.00    +0.000 A 
ATOM     11  C   UNL     1      -1.885  11.806  19.809  0.00  0.00    +0.000 A 
ATOM     12  C   UNL     1      -2.786  12.200  18.843  0.00  0.00    +0.000 A 
ATOM     13  C   UNL     1      -2.866  11.476  17.659  0.00  0.00    +0.000 A 
ATOM     14  C   UNL     1      -1.877  10.532  17.354  0.00  0.00    +0.000 A 
ATOM     15  C   UNL     1      -0.883  10.213  18.280  0.00  0.00    +0.000 A 
ATOM     16  O   UNL     1       0.217   9.558  17.797  0.00  0.00    +0.000 OA
ENDROOT
BRANCH   1  17
ATOM     17  N   UNL     1       3.075   5.619  20.109  0.00  0.00    +0.000 N 
ATOM     18  H   UNL     1       2.856   5.475  21.092  0.00  0.00    +0.000 HD
BRANCH  17  24
ATOM     19  C   UNL     1       3.888   3.696  18.873  0.00  0.00    +0.000 A 
ATOM     20  C   UNL     1       3.637   2.547  18.099  0.00  0.00    +0.000 A 
ATOM     21  C   UNL     1       2.324   2.155  17.839  0.00  0.00    +0.000 A 
ATOM     22  C   UNL     1       1.253   2.805  18.440  0.00  0.00    +0.000 A 
ATOM     23  C   UNL     1       1.496   3.897  19.262  0.00  0.00    +0.000 A 
ATOM     24  C   UNL     1       2.801   4.399  19.418  0.00  0.00    +0.000 A 
BRANCH  19  25
ATOM     25  N   UNL     1       5.200   4.030  19.260  0.00  0.00    +0.000 N 
ATOM     26  H   UNL     1       5.815   4.195  18.468  0.00  0.00    +0.000 HD
ATOM     27  H   UNL     1       5.188   4.823  19.900  0.00  0.00    +0.000 HD
ENDBRANCH  19  25
ENDBRANCH  17  24
ENDBRANCH   1  17
TORSDOF 3
ENDMDL
MODEL 4
REMARK VINA RESULT:      -8.2      5.532      7.994
REMARK  Name = 
REMARK  3 active torsions:
REMARK  status: ('A' for Active; 'I' for Inactive)
REMARK    1  A    between atoms: N_1  and  C_2
REMARK    2  A    between atoms: C_7  and  N_8
REMARK    3  A    between atoms: N_8  and  C_9
REMARK                            x       y       z     vdW  Elec       q    Type
REMARK                         _______ _______ _______ _____ _____    ______ ____
ROOT
ATOM      1  C   UNL     1       1.035   9.756  18.893  0.00  0.00    +0.000 A 
ATOM      2  C   UNL     1       1.105   9.678  20.287  0.00  0.00    +0.000 A 
ATOM      3  C   UNL     1       1.384   8.455  20.895  0.00  0.00    +0.000 A 
ATOM      4  C   UNL     1       1.765   7.366  20.109  0.00  0.00    +0.000 A 
ATOM      5  C   UNL     1       2.184   7.676  18.831  0.00  0.00    +0.000 A 
ATOM      6  C   UNL     1       1.755   8.828  18.177  0.00  0.00    +0.000 A 
ATOM      7  C   UNL     1       3.055   6.827  18.052  0.00  0.00    +0.000 C 
ATOM      8  O   UNL     1       4.135   7.222  17.642  0.00  0.00    +0.000 OA
ATOM      9  C   UNL     1       2.504   5.488  17.803  0.00  0.00    +0.000 C 
ATOM     10  C   UNL     1       2.601   4.647  19.030  0.00  0.00    +0.000 A 
ATOM     11  C   UNL     1       3.272   3.431  18.902  0.00  0.00    +0.000 A 
ATOM     12  C   UNL     1       2.867   2.358  19.669  0.00  0.00    +0.000 A 
ATOM     13  C   UNL     1       1.799   2.519  20.543  0.00  0.00    +0.000 A 
ATOM     14  C   UNL     1       1.319   3.806  20.825  0.00  0.00    +0.000 A 
ATOM     15  C   UNL     1       1.811   4.917  20.141  0.00  0.00    +0.000 A 
ATOM     16  O   UNL     1       1.552   6.141  20.695  0.00  0.00    +0.000 OA
ENDROOT
BRANCH   1  17
ATOM     17  N   UNL     1       0.330  10.769  18.221  0.00  0.00    +0.000 N 
ATOM     18  H   UNL     1       0.402  10.691  17.209  0.00  0.00    +0.000 HD
BRANCH  17  24
ATOM     19  C   UNL     1      -2.024  10.753  17.634  0.00  0.00    +0.000 A 
ATOM     20  C   UNL     1      -3.343  11.189  17.866  0.00  0.00    +0.000 A 
ATOM     21  C   UNL     1      -3.620  12.027  18.946  0.00  0.00    +0.000 A 
ATOM     22  C   UNL     1      -2.639  12.339  19.878  0.00  0.00    +0.000 A 
ATOM     23  C   UNL     1      -1.349  11.855  19.694  0.00  0.00    +0.000 A 
ATOM     24  C   UNL     1      -1.015  11.132  18.535  0.00  0.00    +0.000 A 
BRANCH  19  25
ATOM     25  N   UNL     1      -1.746   9.801  16.635  0.00  0.00    +0.000 N 
ATOM     26  H   UNL     1      -1.435  10.223  15.764  0.00  0.00    +0.000 HD
ATOM     27  H   UNL     1      -1.079   9.113  16.980  0.00  0.00    +0.000 HD
ENDBRANCH  19  25
ENDBRANCH  17  24
ENDBRANCH   1  17
TORSDOF 3
ENDMDL
MODEL 5
REMARK VINA RESULT:      -8.2      5.334      7.755
REMARK  Name = 
REMARK  3 active torsions:
REMARK  status: ('A' for Active; 'I' for Inactive)
REMARK    1  A    between atoms: N_1  and  C_2
REMARK    2  A    between atoms: C_7  and  N_8
REMARK    3  A    between atoms: N_8  and  C_9
REMARK                            x       y       z     vdW  Elec       q    Type
REMARK                         _______ _______ _______ _____ _____    ______ ____
ROOT
ATOM      1  C   UNL     1       1.070   9.758  18.908  0.00  0.00    +0.000 A 
ATOM      2  C   UNL     1       1.099   9.675  20.303  0.00  0.00    +0.000 A 
ATOM      3  C   UNL     1       1.358   8.449  20.914  0.00  0.00    +0.000 A 
ATOM      4  C   UNL     1       1.760   7.362  20.136  0.00  0.00    +0.000 A 
ATOM      5  C   UNL     1       2.216   7.676  18.871  0.00  0.00    +0.000 A 
ATOM      6  C   UNL     1       1.808   8.831  18.209  0.00  0.00    +0.000 A 
ATOM      7  C   UNL     1       3.107   6.828  18.114  0.00  0.00    +0.000 C 
ATOM      8  O   UNL     1       4.199   7.223  17.737  0.00  0.00    +0.000 OA
ATOM      9  C   UNL     1       2.562   5.491  17.844  0.00  0.00    +0.000 C 
ATOM     10  C   UNL     1       2.621   4.646  19.071  0.00  0.00    +0.000 A 
ATOM     11  C   UNL     1       3.294   3.428  18.957  0.00  0.00    +0.000 A 
ATOM     12  C   UNL     1       2.865   2.354  19.708  0.00  0.00    +0.000 A 
ATOM     13  C   UNL     1       1.772   2.514  20.551  0.00  0.00    +0.000 A 
ATOM     14  C   UNL     1       1.287   3.800  20.824  0.00  0.00    +0.000 A 
ATOM     15  C   UNL     1       1.801   4.913  20.159  0.00  0.00    +0.000 A 
ATOM     16  O   UNL     1       1.528   6.136  20.710  0.00  0.00    +0.000 OA
ENDROOT
BRANCH   1  17
ATOM     17  N   UNL     1       0.386  10.775  18.220  0.00  0.00    +0.000 N 
ATOM     18  H   UNL     1      -0.577  10.525  18.007  0.00  0.00    +0.000 HD
BRANCH  17  24
ATOM     19  C   UNL     1       1.574  12.883  18.387  0.00  0.00    +0.000 A 
ATOM     20  C   UNL     1       1.655  14.204  18.868  0.00  0.00    +0.000 A 
ATOM     21  C   UNL     1       0.603  14.741  19.609  0.00  0.00    +0.000 A 
ATOM     22  C   UNL     1      -0.585  14.040  19.776  0.00  0.00    +0.000 A 
ATOM     23  C   UNL     1      -0.698  12.761  19.244  0.00  0.00    +0.000 A 
ATOM     24  C   UNL     1       0.402  12.145  18.622  0.00  0.00    +0.000 A 
BRANCH  19  25
ATOM     25  N   UNL     1       2.561  12.369  17.524  0.00  0.00    +0.000 N 
ATOM     26  H   UNL     1       2.226  11.595  16.958  0.00  0.00    +0.000 HD
ATOM     27  H   UNL     1       2.951  13.115  16.950  0.00  0.00    +0.000 HD
ENDBRANCH  19  25
ENDBRANCH  17  24
ENDBRANCH   1  17
TORSDOF 3
ENDMDL
MODEL 6
REMARK VINA RESULT:      -8.1      5.530      7.447
REMARK  Name = 
REMARK  3 active torsions:
REMARK  status: ('A' for Active; 'I' for Inactive)
REMARK    1  A    between atoms: N_1  and  C_2
REMARK    2  A    between atoms: C_7  and  N_8
REMARK    3  A    between atoms: N_8  and  C_9
REMARK                            x       y       z     vdW  Elec       q    Type
REMARK                         _______ _______ _______ _____ _____    ______ ____
ROOT
ATOM      1  C   UNL     1       2.558   6.896  19.645  0.00  0.00    +0.000 A 
ATOM      2  C   UNL     1       2.890   7.422  18.393  0.00  0.00    +0.000 A 
ATOM      3  C   UNL     1       2.125   8.457  17.858  0.00  0.00    +0.000 A 
ATOM      4  C   UNL     1       1.154   9.076  18.647  0.00  0.00    +0.000 A 
ATOM      5  C   UNL     1       1.269   8.860  20.006  0.00  0.00    +0.000 A 
ATOM      6  C   UNL     1       1.893   7.725  20.518  0.00  0.00    +0.000 A 
ATOM      7  C   UNL     1       0.722   9.751  21.001  0.00  0.00    +0.000 C 
ATOM      8  O   UNL     1       1.432  10.290  21.837  0.00  0.00    +0.000 OA
ATOM      9  C   UNL     1      -0.735   9.915  20.910  0.00  0.00    +0.000 C 
ATOM     10  C   UNL     1      -1.089  10.801  19.764  0.00  0.00    +0.000 A 
ATOM     11  C   UNL     1      -1.868  11.920  20.058  0.00  0.00    +0.000 A 
ATOM     12  C   UNL     1      -2.764  12.379  19.116  0.00  0.00    +0.000 A 
ATOM     13  C   UNL     1      -2.870  11.709  17.903  0.00  0.00    +0.000 A 
ATOM     14  C   UNL     1      -1.906  10.755  17.549  0.00  0.00    +0.000 A 
ATOM     15  C   UNL     1      -0.916  10.372  18.454  0.00  0.00    +0.000 A 
ATOM     16  O   UNL     1       0.165   9.711  17.936  0.00  0.00    +0.000 OA
ENDROOT
BRANCH   1  17
ATOM     17  N   UNL     1       2.937   5.605  20.053  0.00  0.00    +0.000 N 
ATOM     18  H   UNL     1       2.598   5.374  20.985  0.00  0.00    +0.000 HD
BRANCH  17  24
ATOM     19  C   UNL     1       1.713   3.582  19.511  0.00  0.00    +0.000 A 
ATOM     20  C   UNL     1       1.603   2.379  18.787  0.00  0.00    +0.000 A 
ATOM     21  C   UNL     1       2.579   2.036  17.852  0.00  0.00    +0.000 A 
ATOM     22  C   UNL     1       3.597   2.923  17.525  0.00  0.00    +0.000 A 
ATOM     23  C   UNL     1       3.673   4.143  18.185  0.00  0.00    +0.000 A 
ATOM     24  C   UNL     1       2.786   4.445  19.234  0.00  0.00    +0.000 A 
BRANCH  19  25
ATOM     25  N   UNL     1       0.672   4.012  20.356  0.00  0.00    +0.000 N 
ATOM     26  H   UNL     1      -0.191   4.203  19.854  0.00  0.00    +0.000 HD
ATOM     27  H   UNL     1       0.530   3.341  21.109  0.00  0.00    +0.000 HD
ENDBRANCH  19  25
ENDBRANCH  17  24
ENDBRANCH   1  17
TORSDOF 3
ENDMDL
MODEL 7
REMARK VINA RESULT:      -8.1      5.528      7.781
REMARK  Name = 
REMARK  3 active torsions:
REMARK  status: ('A' for Active; 'I' for Inactive)
REMARK    1  A    between atoms: N_1  and  C_2
REMARK    2  A    between atoms: C_7  and  N_8
REMARK    3  A    between atoms: N_8  and  C_9
REMARK                            x       y       z     vdW  Elec       q    Type
REMARK                         _______ _______ _______ _____ _____    ______ ____
ROOT
ATOM      1  C   UNL     1       2.549   7.185  18.893  0.00  0.00    +0.000 A 
ATOM      2  C   UNL     1       2.771   8.170  17.926  0.00  0.00    +0.000 A 
ATOM      3  C   UNL     1       2.017   9.341  17.950  0.00  0.00    +0.000 A 
ATOM      4  C   UNL     1       1.178   9.598  19.036  0.00  0.00    +0.000 A 
ATOM      5  C   UNL     1       1.428   8.849  20.168  0.00  0.00    +0.000 A 
ATOM      6  C   UNL     1       2.035   7.598  20.101  0.00  0.00    +0.000 A 
ATOM      7  C   UNL     1       1.049   9.267  21.497  0.00  0.00    +0.000 C 
ATOM      8  O   UNL     1       1.877   9.413  22.383  0.00  0.00    +0.000 OA
ATOM      9  C   UNL     1      -0.397   9.469  21.662  0.00  0.00    +0.000 C 
ATOM     10  C   UNL     1      -0.821  10.747  21.021  0.00  0.00    +0.000 A 
ATOM     11  C   UNL     1      -1.494  11.660  21.834  0.00  0.00    +0.000 A 
ATOM     12  C   UNL     1      -2.459  12.470  21.275  0.00  0.00    +0.000 A 
ATOM     13  C   UNL     1      -2.738  12.350  19.919  0.00  0.00    +0.000 A 
ATOM     14  C   UNL     1      -1.878  11.610  19.095  0.00  0.00    +0.000 A 
ATOM     15  C   UNL     1      -0.819  10.883  19.639  0.00  0.00    +0.000 A 
ATOM     16  O   UNL     1       0.156  10.477  18.768  0.00  0.00    +0.000 OA
ENDROOT
BRANCH   1  17
ATOM     17  N   UNL     1       2.891   5.836  18.699  0.00  0.00    +0.000 N 
ATOM     18  H   UNL     1       3.894   5.695  18.608  0.00  0.00    +0.000 HD
BRANCH  17  24
ATOM     19  C   UNL     1       1.373   3.958  18.936  0.00  0.00    +0.000 A 
ATOM     20  C   UNL     1       0.770   2.969  19.737  0.00  0.00    +0.000 A 
ATOM     21  C   UNL     1       1.131   2.843  21.079  0.00  0.00    +0.000 A 
ATOM     22  C   UNL     1       2.171   3.594  21.612  0.00  0.00    +0.000 A 
ATOM     23  C   UNL     1       2.818   4.524  20.808  0.00  0.00    +0.000 A 
ATOM     24  C   UNL     1       2.372   4.770  19.497  0.00  0.00    +0.000 A 
BRANCH  19  25
ATOM     25  N   UNL     1       1.125   4.013  17.552  0.00  0.00    +0.000 N 
ATOM     26  H   UNL     1       1.931   4.329  17.018  0.00  0.00    +0.000 HD
ATOM     27  H   UNL     1       0.781   3.114  17.219  0.00  0.00    +0.000 HD
ENDBRANCH  19  25
ENDBRANCH  17  24
ENDBRANCH   1  17
TORSDOF 3
ENDMDL
MODEL 8
REMARK VINA RESULT:      -8.1      5.741      7.742
REMARK  Name = 
REMARK  3 active torsions:
REMARK  status: ('A' for Active; 'I' for Inactive)
REMARK    1  A    between atoms: N_1  and  C_2
REMARK    2  A    between atoms: C_7  and  N_8
REMARK    3  A    between atoms: N_8  and  C_9
REMARK                            x       y       z     vdW  Elec       q    Type
REMARK                         _______ _______ _______ _____ _____    ______ ____
ROOT
ATOM      1  C   UNL     1       2.153   7.403  18.922  0.00  0.00    +0.000 A 
ATOM      2  C   UNL     1       2.311   8.484  18.051  0.00  0.00    +0.000 A 
ATOM      3  C   UNL     1       1.637   9.677  18.306  0.00  0.00    +0.000 A 
ATOM      4  C   UNL     1       0.959   9.840  19.514  0.00  0.00    +0.000 A 
ATOM      5  C   UNL     1       1.305   8.951  20.513  0.00  0.00    +0.000 A 
ATOM      6  C   UNL     1       1.822   7.691  20.226  0.00  0.00    +0.000 A 
ATOM      7  C   UNL     1       1.122   9.225  21.919  0.00  0.00    +0.000 C 
ATOM      8  O   UNL     1       2.063   9.228  22.697  0.00  0.00    +0.000 OA
ATOM      9  C   UNL     1      -0.277   9.472  22.295  0.00  0.00    +0.000 C 
ATOM     10  C   UNL     1      -0.701  10.834  21.863  0.00  0.00    +0.000 A 
ATOM     11  C   UNL     1      -1.209  11.673  22.855  0.00  0.00    +0.000 A 
ATOM     12  C   UNL     1      -2.187  12.587  22.523  0.00  0.00    +0.000 A 
ATOM     13  C   UNL     1      -2.641  12.642  21.210  0.00  0.00    +0.000 A 
ATOM     14  C   UNL     1      -1.938  11.967  20.202  0.00  0.00    +0.000 A 
ATOM     15  C   UNL     1      -0.865  11.134  20.516  0.00  0.00    +0.000 A 
ATOM     16  O   UNL     1      -0.034  10.790  19.485  0.00  0.00    +0.000 OA
ENDROOT
BRANCH   1  17
ATOM     17  N   UNL     1       2.387   6.071  18.535  0.00  0.00    +0.000 N 
ATOM     18  H   UNL     1       3.223   5.970  17.965  0.00  0.00    +0.000 HD
BRANCH  17  24
ATOM     19  C   UNL     1       3.537   4.274  19.689  0.00  0.00    +0.000 A 
ATOM     20  C   UNL     1       3.500   3.121  20.496  0.00  0.00    +0.000 A 
ATOM     21  C   UNL     1       2.283   2.656  20.993  0.00  0.00    +0.000 A 
ATOM     22  C   UNL     1       1.113   3.385  20.813  0.00  0.00    +0.000 A 
ATOM     23  C   UNL     1       1.154   4.562  20.076  0.00  0.00    +0.000 A 
ATOM     24  C   UNL     1       2.342   4.969  19.443  0.00  0.00    +0.000 A 
BRANCH  19  25
ATOM     25  N   UNL     1       4.766   4.836  19.293  0.00  0.00    +0.000 N 
ATOM     26  H   UNL     1       4.772   5.124  18.318  0.00  0.00    +0.000 HD
ATOM     27  H   UNL     1       5.020   5.603  19.914  0.00  0.00    +0.000 HD
ENDBRANCH  19  25
ENDBRANCH  17  24
ENDBRANCH   1  17
TORSDOF 3
ENDMDL
MODEL 9
REMARK VINA RESULT:      -8.1      5.564      7.942
REMARK  Name = 
REMARK  3 active torsions:
REMARK  status: ('A' for Active; 'I' for Inactive)
REMARK    1  A    between atoms: N_1  and  C_2
REMARK    2  A    between atoms: C_7  and  N_8
REMARK    3  A    between atoms: N_8  and  C_9
REMARK                            x       y       z     vdW  Elec       q    Type
REMARK                         _______ _______ _______ _____ _____    ______ ____
ROOT
ATOM      1  C   UNL     1       1.076   9.802  19.016  0.00  0.00    +0.000 A 
ATOM      2  C   UNL     1       1.116   9.687  20.408  0.00  0.00    +0.000 A 
ATOM      3  C   UNL     1       1.360   8.443  20.988  0.00  0.00    +0.000 A 
ATOM      4  C   UNL     1       1.738   7.369  20.182  0.00  0.00    +0.000 A 
ATOM      5  C   UNL     1       2.190   7.705  18.921  0.00  0.00    +0.000 A 
ATOM      6  C   UNL     1       1.794   8.881  18.289  0.00  0.00    +0.000 A 
ATOM      7  C   UNL     1       3.061   6.860  18.138  0.00  0.00    +0.000 C 
ATOM      8  O   UNL     1       4.156   7.247  17.760  0.00  0.00    +0.000 OA
ATOM      9  C   UNL     1       2.492   5.539  17.841  0.00  0.00    +0.000 C 
ATOM     10  C   UNL     1       2.548   4.664  19.048  0.00  0.00    +0.000 A 
ATOM     11  C   UNL     1       3.200   3.440  18.900  0.00  0.00    +0.000 A 
ATOM     12  C   UNL     1       2.761   2.355  19.630  0.00  0.00    +0.000 A 
ATOM     13  C   UNL     1       1.678   2.512  20.486  0.00  0.00    +0.000 A 
ATOM     14  C   UNL     1       1.215   3.799  20.793  0.00  0.00    +0.000 A 
ATOM     15  C   UNL     1       1.741   4.919  20.149  0.00  0.00    +0.000 A 
ATOM     16  O   UNL     1       1.492   6.133  20.730  0.00  0.00    +0.000 OA
ENDROOT
BRANCH   1  17
ATOM     17  N   UNL     1       0.403  10.845  18.356  0.00  0.00    +0.000 N 
ATOM     18  H   UNL     1      -0.607  10.721  18.356  0.00  0.00    +0.000 HD
BRANCH  17  24
ATOM     19  C   UNL     1      -0.422  13.106  18.663  0.00  0.00    +0.000 A 
ATOM     20  C   UNL     1      -0.179  14.487  18.789  0.00  0.00    +0.000 A 
ATOM     21  C   UNL     1       1.130  14.968  18.788  0.00  0.00    +0.000 A 
ATOM     22  C   UNL     1       2.211  14.096  18.794  0.00  0.00    +0.000 A 
ATOM     23  C   UNL     1       1.979  12.727  18.740  0.00  0.00    +0.000 A 
ATOM     24  C   UNL     1       0.672  12.228  18.592  0.00  0.00    +0.000 A 
BRANCH  19  25
ATOM     25  N   UNL     1      -1.724  12.589  18.799  0.00  0.00    +0.000 N 
ATOM     26  H   UNL     1      -1.737  11.648  19.183  0.00  0.00    +0.000 HD
ATOM     27  H   UNL     1      -2.302  13.227  19.344  0.00  0.00    +0.000 HD
ENDBRANCH  19  25
ENDBRANCH  17  24
ENDBRANCH   1  17
TORSDOF 3
ENDMDL
