MODEL 1
REMARK VINA RESULT:      -8.4      0.000      0.000
REMARK  Name = 
REMARK  8 active torsions:
REMARK  status: ('A' for Active; 'I' for Inactive)
REMARK    1  A    between atoms: C_4  and  O_5
REMARK    2  A    between atoms: C_6  and  C_7
REMARK    3  A    between atoms: C_7  and  C_8
REMARK    4  A    between atoms: C_12  and  C_13
REMARK    5  A    between atoms: C_13  and  C_14
REMARK    6  A    between atoms: C_14  and  N_15
REMARK    7  A    between atoms: N_15  and  S_16
REMARK    8  A    between atoms: S_16  and  C_19
REMARK                            x       y       z     vdW  Elec       q    Type
REMARK                         _______ _______ _______ _____ _____    ______ ____
ROOT
ATOM      1  C   UNL     1       2.801   4.439  17.505  0.00  0.00    +0.000 A 
ATOM      2  C   UNL     1       4.007   4.643  16.827  0.00  0.00    +0.000 A 
ATOM      3  C   UNL     1       4.673   5.867  16.915  0.00  0.00    +0.000 A 
ATOM      4  C   UNL     1       4.114   6.921  17.637  0.00  0.00    +0.000 A 
ATOM      5  C   UNL     1       2.888   6.752  18.292  0.00  0.00    +0.000 A 
ATOM      6  C   UNL     1       2.268   5.493  18.257  0.00  0.00    +0.000 A 
ENDROOT
BRANCH   1   7
ATOM      7  C   UNL     1       2.048   3.132  17.401  0.00  0.00    +0.000 C 
BRANCH   7  12
ATOM      8  O   UNL     1       5.165   2.134  20.553  0.00  0.00    +0.000 OA
ATOM      9  C   UNL     1       4.045   2.194  20.069  0.00  0.00    +0.000 C 
ATOM     10  C   UNL     1       2.907   2.786  20.784  0.00  0.00    +0.000 C 
ATOM     11  C   UNL     1       1.888   2.709  19.926  0.00  0.00    +0.000 C 
ATOM     12  C   UNL     1       2.212   2.142  18.570  0.00  0.00    +0.000 C 
ATOM     13  C   UNL     1       3.640   1.618  18.742  0.00  0.00    +0.000 C 
BRANCH  11  14
ATOM     14  O   UNL     1       0.595   3.067  20.195  0.00  0.00    +0.000 OA
ATOM     15  H   UNL     1       0.078   2.261  20.377  0.00  0.00    +0.000 HD
ENDBRANCH  11  14
ENDBRANCH   7  12
ENDBRANCH   1   7
BRANCH   5  16
ATOM     16  C   UNL     1       2.182   7.918  18.949  0.00  0.00    +0.000 C 
BRANCH  16  17
ATOM     17  C   UNL     1       2.190   9.124  18.000  0.00  0.00    +0.000 C 
BRANCH  17  18
ATOM     18  N   UNL     1       0.841   9.661  17.771  0.00  0.00    +0.000 NA
ATOM     19  H   UNL     1       0.086   8.993  17.613  0.00  0.00    +0.000 HD
BRANCH  18  20
ATOM     20  S   UNL     1       0.343  10.869  18.848  0.00  0.00    +0.000 S 
ATOM     21  O   UNL     1       0.463  10.302  20.172  0.00  0.00    +0.000 OA
ATOM     22  O   UNL     1       1.004  12.101  18.482  0.00  0.00    +0.000 OA
BRANCH  20  23
ATOM     23  C   UNL     1      -1.394  11.027  18.499  0.00  0.00    +0.000 A 
ATOM     24  C   UNL     1      -1.959  10.264  17.475  0.00  0.00    +0.000 A 
ATOM     25  C   UNL     1      -3.332  10.351  17.228  0.00  0.00    +0.000 A 
ATOM     26  C   UNL     1      -4.126  11.193  18.009  0.00  0.00    +0.000 A 
ATOM     27 CL   UNL     1      -5.817  11.295  17.705  0.00  0.00    +0.000 Cl
ATOM     28  C   UNL     1      -3.562  11.948  19.037  0.00  0.00    +0.000 A 
ATOM     29  C   UNL     1      -2.190  11.865  19.290  0.00  0.00    +0.000 A 
ENDBRANCH  20  23
ENDBRANCH  18  20
ENDBRANCH  17  18
ENDBRANCH  16  17
ENDBRANCH   5  16
TORSDOF 8
ENDMDL
MODEL 2
REMARK VINA RESULT:      -8.3      2.179      3.530
REMARK  Name = 
REMARK  8 active torsions:
REMARK  status: ('A' for Active; 'I' for Inactive)
REMARK    1  A    between atoms: C_4  and  O_5
REMARK    2  A    between atoms: C_6  and  C_7
REMARK    3  A    between atoms: C_7  and  C_8
REMARK    4  A    between atoms: C_12  and  C_13
REMARK    5  A    between atoms: C_13  and  C_14
REMARK    6  A    between atoms: C_14  and  N_15
REMARK    7  A    between atoms: N_15  and  S_16
REMARK    8  A    between atoms: S_16  and  C_19
REMARK                            x       y       z     vdW  Elec       q    Type
REMARK                         _______ _______ _______ _____ _____    ______ ____
ROOT
ATOM      1  C   UNL     1       3.198   5.878  18.384  0.00  0.00    +0.000 A 
ATOM      2  C   UNL     1       2.739   4.595  18.700  0.00  0.00    +0.000 A 
ATOM      3  C   UNL     1       1.829   4.402  19.742  0.00  0.00    +0.000 A 
ATOM      4  C   UNL     1       1.411   5.484  20.518  0.00  0.00    +0.000 A 
ATOM      5  C   UNL     1       1.888   6.771  20.245  0.00  0.00    +0.000 A 
ATOM      6  C   UNL     1       2.742   6.960  19.147  0.00  0.00    +0.000 A 
ENDROOT
BRANCH   1   7
ATOM      7  C   UNL     1       4.205   6.106  17.279  0.00  0.00    +0.000 C 
BRANCH   7  12
ATOM      8  O   UNL     1       7.696   5.197  14.518  0.00  0.00    +0.000 OA
ATOM      9  C   UNL     1       6.906   4.989  15.425  0.00  0.00    +0.000 C 
ATOM     10  C   UNL     1       7.339   4.616  16.778  0.00  0.00    +0.000 C 
ATOM     11  C   UNL     1       6.211   4.522  17.484  0.00  0.00    +0.000 C 
ATOM     12  C   UNL     1       4.944   4.865  16.747  0.00  0.00    +0.000 C 
ATOM     13  C   UNL     1       5.410   4.996  15.294  0.00  0.00    +0.000 C 
BRANCH  11  14
ATOM     14  O   UNL     1       6.121   4.112  18.786  0.00  0.00    +0.000 OA
ATOM     15  H   UNL     1       6.866   4.492  19.287  0.00  0.00    +0.000 HD
ENDBRANCH  11  14
ENDBRANCH   7  12
ENDBRANCH   1   7
BRANCH   5  16
ATOM     16  C   UNL     1       1.577   7.933  21.162  0.00  0.00    +0.000 C 
BRANCH  16  17
ATOM     17  C   UNL     1       0.430   8.762  20.569  0.00  0.00    +0.000 C 
BRANCH  17  18
ATOM     18  N   UNL     1       0.805  10.170  20.369  0.00  0.00    +0.000 NA
ATOM     19  H   UNL     1       1.644  10.507  20.843  0.00  0.00    +0.000 HD
BRANCH  18  20
ATOM     20  S   UNL     1       0.775  10.714  18.766  0.00  0.00    +0.000 S 
ATOM     21  O   UNL     1       1.318  12.053  18.785  0.00  0.00    +0.000 OA
ATOM     22  O   UNL     1       1.328   9.676  17.926  0.00  0.00    +0.000 OA
BRANCH  20  23
ATOM     23  C   UNL     1      -0.964  10.858  18.424  0.00  0.00    +0.000 A 
ATOM     24  C   UNL     1      -1.549  10.011  17.479  0.00  0.00    +0.000 A 
ATOM     25  C   UNL     1      -2.924  10.090  17.241  0.00  0.00    +0.000 A 
ATOM     26  C   UNL     1      -3.701  11.007  17.951  0.00  0.00    +0.000 A 
ATOM     27 CL   UNL     1      -5.394  11.099  17.658  0.00  0.00    +0.000 Cl
ATOM     28  C   UNL     1      -3.117  11.847  18.899  0.00  0.00    +0.000 A 
ATOM     29  C   UNL     1      -1.743  11.773  19.144  0.00  0.00    +0.000 A 
ENDBRANCH  20  23
ENDBRANCH  18  20
ENDBRANCH  17  18
ENDBRANCH  16  17
ENDBRANCH   5  16
TORSDOF 8
ENDMDL
MODEL 3
REMARK VINA RESULT:      -8.3      0.468      1.039
REMARK  Name = 
REMARK  8 active torsions:
REMARK  status: ('A' for Active; 'I' for Inactive)
REMARK    1  A    between atoms: C_4  and  O_5
REMARK    2  A    between atoms: C_6  and  C_7
REMARK    3  A    between atoms: C_7  and  C_8
REMARK    4  A    between atoms: C_12  and  C_13
REMARK    5  A    between atoms: C_13  and  C_14
REMARK    6  A    between atoms: C_14  and  N_15
REMARK    7  A    between atoms: N_15  and  S_16
REMARK    8  A    between atoms: S_16  and  C_19
REMARK                            x       y       z     vdW  Elec       q    Type
REMARK                         _______ _______ _______ _____ _____    ______ ____
ROOT
ATOM      1  C   UNL     1       2.743   4.414  17.521  0.00  0.00    +0.000 A 
ATOM      2  C   UNL     1       4.066   4.617  17.115  0.00  0.00    +0.000 A 
ATOM      3  C   UNL     1       4.662   5.873  17.238  0.00  0.00    +0.000 A 
ATOM      4  C   UNL     1       3.925   6.956  17.717  0.00  0.00    +0.000 A 
ATOM      5  C   UNL     1       2.588   6.785  18.093  0.00  0.00    +0.000 A 
ATOM      6  C   UNL     1       2.025   5.500  18.035  0.00  0.00    +0.000 A 
ENDROOT
BRANCH   1   7
ATOM      7  C   UNL     1       2.069   3.069  17.371  0.00  0.00    +0.000 C 
BRANCH   7  12
ATOM      8  O   UNL     1       5.153   2.045  20.546  0.00  0.00    +0.000 OA
ATOM      9  C   UNL     1       4.037   2.119  20.056  0.00  0.00    +0.000 C 
ATOM     10  C   UNL     1       2.905   2.736  20.760  0.00  0.00    +0.000 C 
ATOM     11  C   UNL     1       1.889   2.669  19.898  0.00  0.00    +0.000 C 
ATOM     12  C   UNL     1       2.210   2.086  18.548  0.00  0.00    +0.000 C 
ATOM     13  C   UNL     1       3.629   1.539  18.732  0.00  0.00    +0.000 C 
BRANCH  11  14
ATOM     14  O   UNL     1       0.601   3.050  20.158  0.00  0.00    +0.000 OA
ATOM     15  H   UNL     1       0.407   2.884  21.098  0.00  0.00    +0.000 HD
ENDBRANCH  11  14
ENDBRANCH   7  12
ENDBRANCH   1   7
BRANCH   5  16
ATOM     16  C   UNL     1       1.720   7.967  18.465  0.00  0.00    +0.000 C 
BRANCH  16  17
ATOM     17  C   UNL     1       2.445   9.270  18.104  0.00  0.00    +0.000 C 
BRANCH  17  18
ATOM     18  N   UNL     1       1.524  10.299  17.600  0.00  0.00    +0.000 NA
ATOM     19  H   UNL     1       0.797  10.004  16.946  0.00  0.00    +0.000 HD
BRANCH  18  20
ATOM     20  S   UNL     1       0.877  11.338  18.770  0.00  0.00    +0.000 S 
ATOM     21  O   UNL     1       1.181  10.741  20.050  0.00  0.00    +0.000 OA
ATOM     22  O   UNL     1       1.272  12.689  18.443  0.00  0.00    +0.000 OA
BRANCH  20  23
ATOM     23  C   UNL     1      -0.877  11.181  18.521  0.00  0.00    +0.000 A 
ATOM     24  C   UNL     1      -1.742  12.074  19.158  0.00  0.00    +0.000 A 
ATOM     25  C   UNL     1      -3.118  11.983  18.928  0.00  0.00    +0.000 A 
ATOM     26  C   UNL     1      -3.615  11.007  18.061  0.00  0.00    +0.000 A 
ATOM     27 CL   UNL     1      -5.309  10.901  17.778  0.00  0.00    +0.000 Cl
ATOM     28  C   UNL     1      -2.749  10.121  17.420  0.00  0.00    +0.000 A 
ATOM     29  C   UNL     1      -1.373  10.207  17.644  0.00  0.00    +0.000 A 
ENDBRANCH  20  23
ENDBRANCH  18  20
ENDBRANCH  17  18
ENDBRANCH  16  17
ENDBRANCH   5  16
TORSDOF 8
ENDMDL
MODEL 4
REMARK VINA RESULT:      -8.2      4.966      7.161
REMARK  Name = 
REMARK  8 active torsions:
REMARK  status: ('A' for Active; 'I' for Inactive)
REMARK    1  A    between atoms: C_4  and  O_5
REMARK    2  A    between atoms: C_6  and  C_7
REMARK    3  A    between atoms: C_7  and  C_8
REMARK    4  A    between atoms: C_12  and  C_13
REMARK    5  A    between atoms: C_13  and  C_14
REMARK    6  A    between atoms: C_14  and  N_15
REMARK    7  A    between atoms: N_15  and  S_16
REMARK    8  A    between atoms: S_16  and  C_19
REMARK                            x       y       z     vdW  Elec       q    Type
REMARK                         _______ _______ _______ _____ _____    ______ ____
ROOT
ATOM      1  C   UNL     1       6.393   5.455  16.614  0.00  0.00    +0.000 A 
ATOM      2  C   UNL     1       7.259   6.394  17.182  0.00  0.00    +0.000 A 
ATOM      3  C   UNL     1       7.486   6.410  18.560  0.00  0.00    +0.000 A 
ATOM      4  C   UNL     1       6.806   5.523  19.394  0.00  0.00    +0.000 A 
ATOM      5  C   UNL     1       5.905   4.599  18.852  0.00  0.00    +0.000 A 
ATOM      6  C   UNL     1       5.744   4.545  17.458  0.00  0.00    +0.000 A 
ENDROOT
BRANCH   1   7
ATOM      7  C   UNL     1       6.111   5.437  15.129  0.00  0.00    +0.000 C 
BRANCH   7  12
ATOM      8  O   UNL     1       5.315   2.830  11.494  0.00  0.00    +0.000 OA
ATOM      9  C   UNL     1       5.995   3.447  12.299  0.00  0.00    +0.000 C 
ATOM     10  C   UNL     1       7.001   4.435  11.888  0.00  0.00    +0.000 C 
ATOM     11  C   UNL     1       7.492   4.917  13.031  0.00  0.00    +0.000 C 
ATOM     12  C   UNL     1       6.864   4.386  14.292  0.00  0.00    +0.000 C 
ATOM     13  C   UNL     1       5.977   3.245  13.787  0.00  0.00    +0.000 C 
BRANCH  11  14
ATOM     14  O   UNL     1       8.523   5.810  13.138  0.00  0.00    +0.000 OA
ATOM     15  H   UNL     1       8.531   6.378  12.346  0.00  0.00    +0.000 HD
ENDBRANCH  11  14
ENDBRANCH   7  12
ENDBRANCH   1   7
BRANCH   5  16
ATOM     16  C   UNL     1       5.038   3.734  19.740  0.00  0.00    +0.000 C 
BRANCH  16  17
ATOM     17  C   UNL     1       4.070   2.917  18.874  0.00  0.00    +0.000 C 
BRANCH  17  18
ATOM     18  N   UNL     1       3.065   2.208  19.680  0.00  0.00    +0.000 NA
ATOM     19  H   UNL     1       3.351   1.867  20.599  0.00  0.00    +0.000 HD
BRANCH  18  20
ATOM     20  S   UNL     1       1.546   2.949  19.773  0.00  0.00    +0.000 S 
ATOM     21  O   UNL     1       0.753   2.376  18.710  0.00  0.00    +0.000 OA
ATOM     22  O   UNL     1       1.112   2.917  21.152  0.00  0.00    +0.000 OA
BRANCH  20  23
ATOM     23  C   UNL     1       1.892   4.634  19.323  0.00  0.00    +0.000 A 
ATOM     24  C   UNL     1       2.018   4.970  17.973  0.00  0.00    +0.000 A 
ATOM     25  C   UNL     1       2.243   6.301  17.613  0.00  0.00    +0.000 A 
ATOM     26  C   UNL     1       2.337   7.283  18.601  0.00  0.00    +0.000 A 
ATOM     27 CL   UNL     1       2.611   8.921  18.154  0.00  0.00    +0.000 Cl
ATOM     28  C   UNL     1       2.203   6.947  19.949  0.00  0.00    +0.000 A 
ATOM     29  C   UNL     1       1.976   5.618  20.316  0.00  0.00    +0.000 A 
ENDBRANCH  20  23
ENDBRANCH  18  20
ENDBRANCH  17  18
ENDBRANCH  16  17
ENDBRANCH   5  16
TORSDOF 8
ENDMDL
MODEL 5
REMARK VINA RESULT:      -8.2      0.887      1.333
REMARK  Name = 
REMARK  8 active torsions:
REMARK  status: ('A' for Active; 'I' for Inactive)
REMARK    1  A    between atoms: C_4  and  O_5
REMARK    2  A    between atoms: C_6  and  C_7
REMARK    3  A    between atoms: C_7  and  C_8
REMARK    4  A    between atoms: C_12  and  C_13
REMARK    5  A    between atoms: C_13  and  C_14
REMARK    6  A    between atoms: C_14  and  N_15
REMARK    7  A    between atoms: N_15  and  S_16
REMARK    8  A    between atoms: S_16  and  C_19
REMARK                            x       y       z     vdW  Elec       q    Type
REMARK                         _______ _______ _______ _____ _____    ______ ____
ROOT
ATOM      1  C   UNL     1       2.677   4.501  17.665  0.00  0.00    +0.000 A 
ATOM      2  C   UNL     1       3.920   4.111  17.156  0.00  0.00    +0.000 A 
ATOM      3  C   UNL     1       4.918   5.058  16.915  0.00  0.00    +0.000 A 
ATOM      4  C   UNL     1       4.666   6.413  17.127  0.00  0.00    +0.000 A 
ATOM      5  C   UNL     1       3.416   6.830  17.600  0.00  0.00    +0.000 A 
ATOM      6  C   UNL     1       2.449   5.861  17.909  0.00  0.00    +0.000 A 
ENDROOT
BRANCH   1   7
ATOM      7  C   UNL     1       1.572   3.497  17.907  0.00  0.00    +0.000 C 
BRANCH   7  12
ATOM      8  O   UNL     1       5.086   2.044  20.394  0.00  0.00    +0.000 OA
ATOM      9  C   UNL     1       3.909   2.190  20.101  0.00  0.00    +0.000 C 
ATOM     10  C   UNL     1       2.919   2.716  21.049  0.00  0.00    +0.000 C 
ATOM     11  C   UNL     1       1.779   2.770  20.358  0.00  0.00    +0.000 C 
ATOM     12  C   UNL     1       1.869   2.367  18.910  0.00  0.00    +0.000 C 
ATOM     13  C   UNL     1       3.284   1.792  18.795  0.00  0.00    +0.000 C 
BRANCH  11  14
ATOM     14  O   UNL     1       0.559   3.122  20.866  0.00  0.00    +0.000 OA
ATOM     15  H   UNL     1      -0.094   2.441  20.617  0.00  0.00    +0.000 HD
ENDBRANCH  11  14
ENDBRANCH   7  12
ENDBRANCH   1   7
BRANCH   5  16
ATOM     16  C   UNL     1       3.062   8.299  17.690  0.00  0.00    +0.000 C 
BRANCH  16  17
ATOM     17  C   UNL     1       1.916   8.489  18.692  0.00  0.00    +0.000 C 
BRANCH  17  18
ATOM     18  N   UNL     1       1.508   9.897  18.810  0.00  0.00    +0.000 NA
ATOM     19  H   UNL     1       1.258  10.390  17.952  0.00  0.00    +0.000 HD
BRANCH  18  20
ATOM     20  S   UNL     1       0.383  10.232  20.030  0.00  0.00    +0.000 S 
ATOM     21  O   UNL     1       0.156   8.985  20.722  0.00  0.00    +0.000 OA
ATOM     22  O   UNL     1       0.814  11.424  20.725  0.00  0.00    +0.000 OA
BRANCH  20  23
ATOM     23  C   UNL     1      -1.098  10.607  19.120  0.00  0.00    +0.000 A 
ATOM     24  C   UNL     1      -1.953  11.608  19.585  0.00  0.00    +0.000 A 
ATOM     25  C   UNL     1      -3.094  11.937  18.848  0.00  0.00    +0.000 A 
ATOM     26  C   UNL     1      -3.367  11.268  17.653  0.00  0.00    +0.000 A 
ATOM     27 CL   UNL     1      -4.770  11.678  16.747  0.00  0.00    +0.000 Cl
ATOM     28  C   UNL     1      -2.508  10.273  17.186  0.00  0.00    +0.000 A 
ATOM     29  C   UNL     1      -1.364   9.940  17.917  0.00  0.00    +0.000 A 
ENDBRANCH  20  23
ENDBRANCH  18  20
ENDBRANCH  17  18
ENDBRANCH  16  17
ENDBRANCH   5  16
TORSDOF 8
ENDMDL
MODEL 6
REMARK VINA RESULT:      -8.1      2.177      3.574
REMARK  Name = 
REMARK  8 active torsions:
REMARK  status: ('A' for Active; 'I' for Inactive)
REMARK    1  A    between atoms: C_4  and  O_5
REMARK    2  A    between atoms: C_6  and  C_7
REMARK    3  A    between atoms: C_7  and  C_8
REMARK    4  A    between atoms: C_12  and  C_13
REMARK    5  A    between atoms: C_13  and  C_14
REMARK    6  A    between atoms: C_14  and  N_15
REMARK    7  A    between atoms: N_15  and  S_16
REMARK    8  A    between atoms: S_16  and  C_19
REMARK                            x       y       z     vdW  Elec       q    Type
REMARK                         _______ _______ _______ _____ _____    ______ ____
ROOT
ATOM      1  C   UNL     1       3.144   4.970  18.505  0.00  0.00    +0.000 A 
ATOM      2  C   UNL     1       3.115   3.741  19.173  0.00  0.00    +0.000 A 
ATOM      3  C   UNL     1       2.418   3.601  20.375  0.00  0.00    +0.000 A 
ATOM      4  C   UNL     1       1.789   4.704  20.954  0.00  0.00    +0.000 A 
ATOM      5  C   UNL     1       1.838   5.952  20.323  0.00  0.00    +0.000 A 
ATOM      6  C   UNL     1       2.477   6.059  19.078  0.00  0.00    +0.000 A 
ENDROOT
BRANCH   1   7
ATOM      7  C   UNL     1       3.915   5.151  17.217  0.00  0.00    +0.000 C 
BRANCH   7  12
ATOM      8  O   UNL     1       7.691   5.126  14.690  0.00  0.00    +0.000 OA
ATOM      9  C   UNL     1       6.983   4.842  15.644  0.00  0.00    +0.000 C 
ATOM     10  C   UNL     1       7.415   5.043  17.034  0.00  0.00    +0.000 C 
ATOM     11  C   UNL     1       6.372   4.666  17.773  0.00  0.00    +0.000 C 
ATOM     12  C   UNL     1       5.144   4.245  17.011  0.00  0.00    +0.000 C 
ATOM     13  C   UNL     1       5.635   4.187  15.562  0.00  0.00    +0.000 C 
BRANCH  11  14
ATOM     14  O   UNL     1       6.349   4.601  19.140  0.00  0.00    +0.000 OA
ATOM     15  H   UNL     1       5.422   4.565  19.438  0.00  0.00    +0.000 HD
ENDBRANCH  11  14
ENDBRANCH   7  12
ENDBRANCH   1   7
BRANCH   5  16
ATOM     16  C   UNL     1       1.302   7.195  21.000  0.00  0.00    +0.000 C 
BRANCH  16  17
ATOM     17  C   UNL     1       1.633   8.427  20.148  0.00  0.00    +0.000 C 
BRANCH  17  18
ATOM     18  N   UNL     1       0.832   9.599  20.530  0.00  0.00    +0.000 NA
ATOM     19  H   UNL     1       0.930   9.948  21.484  0.00  0.00    +0.000 HD
BRANCH  18  20
ATOM     20  S   UNL     1       0.846  10.885  19.428  0.00  0.00    +0.000 S 
ATOM     21  O   UNL     1       1.047  12.083  20.210  0.00  0.00    +0.000 OA
ATOM     22  O   UNL     1       1.721  10.531  18.333  0.00  0.00    +0.000 OA
BRANCH  20  23
ATOM     23  C   UNL     1      -0.829  10.922  18.832  0.00  0.00    +0.000 A 
ATOM     24  C   UNL     1      -1.728  11.844  19.372  0.00  0.00    +0.000 A 
ATOM     25  C   UNL     1      -3.032  11.908  18.873  0.00  0.00    +0.000 A 
ATOM     26  C   UNL     1      -3.424  11.054  17.839  0.00  0.00    +0.000 A 
ATOM     27 CL   UNL     1      -5.029  11.138  17.226  0.00  0.00    +0.000 Cl
ATOM     28  C   UNL     1      -2.522  10.139  17.296  0.00  0.00    +0.000 A 
ATOM     29  C   UNL     1      -1.216  10.071  17.788  0.00  0.00    +0.000 A 
ENDBRANCH  20  23
ENDBRANCH  18  20
ENDBRANCH  17  18
ENDBRANCH  16  17
ENDBRANCH   5  16
TORSDOF 8
ENDMDL
MODEL 7
REMARK VINA RESULT:      -8.1      3.538      8.465
REMARK  Name = 
REMARK  8 active torsions:
REMARK  status: ('A' for Active; 'I' for Inactive)
REMARK    1  A    between atoms: C_4  and  O_5
REMARK    2  A    between atoms: C_6  and  C_7
REMARK    3  A    between atoms: C_7  and  C_8
REMARK    4  A    between atoms: C_12  and  C_13
REMARK    5  A    between atoms: C_13  and  C_14
REMARK    6  A    between atoms: C_14  and  N_15
REMARK    7  A    between atoms: N_15  and  S_16
REMARK    8  A    between atoms: S_16  and  C_19
REMARK                            x       y       z     vdW  Elec       q    Type
REMARK                         _______ _______ _______ _____ _____    ______ ____
ROOT
ATOM      1  C   UNL     1       0.935   9.392  19.763  0.00  0.00    +0.000 A 
ATOM      2  C   UNL     1       0.895   8.455  20.800  0.00  0.00    +0.000 A 
ATOM      3  C   UNL     1       1.651   7.284  20.729  0.00  0.00    +0.000 A 
ATOM      4  C   UNL     1       2.414   7.008  19.594  0.00  0.00    +0.000 A 
ATOM      5  C   UNL     1       2.439   7.914  18.527  0.00  0.00    +0.000 A 
ATOM      6  C   UNL     1       1.734   9.122  18.645  0.00  0.00    +0.000 A 
ENDROOT
BRANCH   1   7
ATOM      7  C   UNL     1       0.102  10.654  19.806  0.00  0.00    +0.000 C 
BRANCH   7  12
ATOM      8  O   UNL     1      -3.630   9.527  17.473  0.00  0.00    +0.000 OA
ATOM      9  C   UNL     1      -2.714  10.249  17.834  0.00  0.00    +0.000 C 
ATOM     10  C   UNL     1      -2.935  11.611  18.337  0.00  0.00    +0.000 C 
ATOM     11  C   UNL     1      -1.721  12.054  18.667  0.00  0.00    +0.000 C 
ATOM     12  C   UNL     1      -0.594  11.071  18.496  0.00  0.00    +0.000 C 
ATOM     13  C   UNL     1      -1.254   9.909  17.749  0.00  0.00    +0.000 C 
BRANCH  11  14
ATOM     14  O   UNL     1      -1.428  13.317  19.105  0.00  0.00    +0.000 OA
ATOM     15  H   UNL     1      -1.071  13.834  18.360  0.00  0.00    +0.000 HD
ENDBRANCH  11  14
ENDBRANCH   7  12
ENDBRANCH   1   7
BRANCH   5  16
ATOM     16  C   UNL     1       3.129   7.572  17.224  0.00  0.00    +0.000 C 
BRANCH  16  17
ATOM     17  C   UNL     1       4.522   7.000  17.516  0.00  0.00    +0.000 C 
BRANCH  17  18
ATOM     18  N   UNL     1       5.043   6.204  16.394  0.00  0.00    +0.000 NA
ATOM     19  H   UNL     1       5.742   6.638  15.791  0.00  0.00    +0.000 HD
BRANCH  18  20
ATOM     20  S   UNL     1       5.493   4.616  16.771  0.00  0.00    +0.000 S 
ATOM     21  O   UNL     1       5.375   3.862  15.544  0.00  0.00    +0.000 OA
ATOM     22  O   UNL     1       6.727   4.664  17.523  0.00  0.00    +0.000 OA
BRANCH  20  23
ATOM     23  C   UNL     1       4.188   4.073  17.850  0.00  0.00    +0.000 A 
ATOM     24  C   UNL     1       4.459   3.869  19.205  0.00  0.00    +0.000 A 
ATOM     25  C   UNL     1       3.426   3.487  20.064  0.00  0.00    +0.000 A 
ATOM     26  C   UNL     1       2.133   3.318  19.565  0.00  0.00    +0.000 A 
ATOM     27 CL   UNL     1       0.862   2.852  20.627  0.00  0.00    +0.000 Cl
ATOM     28  C   UNL     1       1.862   3.530  18.213  0.00  0.00    +0.000 A 
ATOM     29  C   UNL     1       2.890   3.914  17.348  0.00  0.00    +0.000 A 
ENDBRANCH  20  23
ENDBRANCH  18  20
ENDBRANCH  17  18
ENDBRANCH  16  17
ENDBRANCH   5  16
TORSDOF 8
ENDMDL
MODEL 8
REMARK VINA RESULT:      -8.1      3.061      4.322
REMARK  Name = 
REMARK  8 active torsions:
REMARK  status: ('A' for Active; 'I' for Inactive)
REMARK    1  A    between atoms: C_4  and  O_5
REMARK    2  A    between atoms: C_6  and  C_7
REMARK    3  A    between atoms: C_7  and  C_8
REMARK    4  A    between atoms: C_12  and  C_13
REMARK    5  A    between atoms: C_13  and  C_14
REMARK    6  A    between atoms: C_14  and  N_15
REMARK    7  A    between atoms: N_15  and  S_16
REMARK    8  A    between atoms: S_16  and  C_19
REMARK                            x       y       z     vdW  Elec       q    Type
REMARK                         _______ _______ _______ _____ _____    ______ ____
ROOT
ATOM      1  C   UNL     1       3.481   4.407  17.400  0.00  0.00    +0.000 A 
ATOM      2  C   UNL     1       2.796   3.345  17.999  0.00  0.00    +0.000 A 
ATOM      3  C   UNL     1       1.897   3.577  19.042  0.00  0.00    +0.000 A 
ATOM      4  C   UNL     1       1.714   4.868  19.537  0.00  0.00    +0.000 A 
ATOM      5  C   UNL     1       2.418   5.941  18.978  0.00  0.00    +0.000 A 
ATOM      6  C   UNL     1       3.261   5.703  17.881  0.00  0.00    +0.000 A 
ENDROOT
BRANCH   1   7
ATOM      7  C   UNL     1       4.480   4.176  16.288  0.00  0.00    +0.000 C 
BRANCH   7  12
ATOM      8  O   UNL     1       7.594   7.427  16.897  0.00  0.00    +0.000 OA
ATOM      9  C   UNL     1       7.086   6.326  17.041  0.00  0.00    +0.000 C 
ATOM     10  C   UNL     1       6.832   5.742  18.365  0.00  0.00    +0.000 C 
ATOM     11  C   UNL     1       6.236   4.575  18.114  0.00  0.00    +0.000 C 
ATOM     12  C   UNL     1       5.970   4.271  16.664  0.00  0.00    +0.000 C 
ATOM     13  C   UNL     1       6.724   5.383  15.930  0.00  0.00    +0.000 C 
BRANCH  11  14
ATOM     14  O   UNL     1       5.891   3.642  19.053  0.00  0.00    +0.000 OA
ATOM     15  H   UNL     1       4.923   3.531  19.045  0.00  0.00    +0.000 HD
ENDBRANCH  11  14
ENDBRANCH   7  12
ENDBRANCH   1   7
BRANCH   5  16
ATOM     16  C   UNL     1       2.360   7.323  19.593  0.00  0.00    +0.000 C 
BRANCH  16  17
ATOM     17  C   UNL     1       1.474   7.290  20.845  0.00  0.00    +0.000 C 
BRANCH  17  18
ATOM     18  N   UNL     1       1.665   8.476  21.694  0.00  0.00    +0.000 NA
ATOM     19  H   UNL     1       2.319   9.189  21.369  0.00  0.00    +0.000 HD
BRANCH  18  20
ATOM     20  S   UNL     1       0.248   9.197  22.274  0.00  0.00    +0.000 S 
ATOM     21  O   UNL     1      -0.829   8.291  21.945  0.00  0.00    +0.000 OA
ATOM     22  O   UNL     1       0.488   9.639  23.629  0.00  0.00    +0.000 OA
BRANCH  20  23
ATOM     23  C   UNL     1       0.068  10.626  21.231  0.00  0.00    +0.000 A 
ATOM     24  C   UNL     1      -0.335  11.839  21.794  0.00  0.00    +0.000 A 
ATOM     25  C   UNL     1      -0.432  12.975  20.986  0.00  0.00    +0.000 A 
ATOM     26  C   UNL     1      -0.121  12.891  19.627  0.00  0.00    +0.000 A 
ATOM     27 CL   UNL     1      -0.238  14.293  18.636  0.00  0.00    +0.000 Cl
ATOM     28  C   UNL     1       0.289  11.681  19.068  0.00  0.00    +0.000 A 
ATOM     29  C   UNL     1       0.390  10.541  19.870  0.00  0.00    +0.000 A 
ENDBRANCH  20  23
ENDBRANCH  18  20
ENDBRANCH  17  18
ENDBRANCH  16  17
ENDBRANCH   5  16
TORSDOF 8
ENDMDL
MODEL 9
REMARK VINA RESULT:      -8.0      2.323      2.745
REMARK  Name = 
REMARK  8 active torsions:
REMARK  status: ('A' for Active; 'I' for Inactive)
REMARK    1  A    between atoms: C_4  and  O_5
REMARK    2  A    between atoms: C_6  and  C_7
REMARK    3  A    between atoms: C_7  and  C_8
REMARK    4  A    between atoms: C_12  and  C_13
REMARK    5  A    between atoms: C_13  and  C_14
REMARK    6  A    between atoms: C_14  and  N_15
REMARK    7  A    between atoms: N_15  and  S_16
REMARK    8  A    between atoms: S_16  and  C_19
REMARK                            x       y       z     vdW  Elec       q    Type
REMARK                         _______ _______ _______ _____ _____    ______ ____
ROOT
ATOM      1  C   UNL     1       2.617   4.710  17.602  0.00  0.00    +0.000 A 
ATOM      2  C   UNL     1       3.936   4.623  17.144  0.00  0.00    +0.000 A 
ATOM      3  C   UNL     1       4.765   5.747  17.148  0.00  0.00    +0.000 A 
ATOM      4  C   UNL     1       4.268   6.984  17.559  0.00  0.00    +0.000 A 
ATOM      5  C   UNL     1       2.941   7.102  17.985  0.00  0.00    +0.000 A 
ATOM      6  C   UNL     1       2.142   5.949  18.046  0.00  0.00    +0.000 A 
ENDROOT
BRANCH   1   7
ATOM      7  C   UNL     1       1.694   3.513  17.580  0.00  0.00    +0.000 C 
BRANCH   7  12
ATOM      8  O   UNL     1       5.033   2.155  20.345  0.00  0.00    +0.000 OA
ATOM      9  C   UNL     1       3.878   2.309  19.981  0.00  0.00    +0.000 C 
ATOM     10  C   UNL     1       2.857   2.929  20.836  0.00  0.00    +0.000 C 
ATOM     11  C   UNL     1       1.756   2.962  20.084  0.00  0.00    +0.000 C 
ATOM     12  C   UNL     1       1.906   2.452  18.676  0.00  0.00    +0.000 C 
ATOM     13  C   UNL     1       3.307   1.833  18.676  0.00  0.00    +0.000 C 
BRANCH  11  14
ATOM     14  O   UNL     1       0.522   3.382  20.500  0.00  0.00    +0.000 OA
ATOM     15  H   UNL     1       0.073   2.643  20.950  0.00  0.00    +0.000 HD
ENDBRANCH  11  14
ENDBRANCH   7  12
ENDBRANCH   1   7
BRANCH   5  16
ATOM     16  C   UNL     1       2.330   8.454  18.285  0.00  0.00    +0.000 C 
BRANCH  16  17
ATOM     17  C   UNL     1       1.322   8.318  19.433  0.00  0.00    +0.000 C 
BRANCH  17  18
ATOM     18  N   UNL     1       1.387   9.450  20.369  0.00  0.00    +0.000 NA
ATOM     19  H   UNL     1       1.247  10.387  19.988  0.00  0.00    +0.000 HD
BRANCH  18  20
ATOM     20  S   UNL     1       0.514   9.262  21.807  0.00  0.00    +0.000 S 
ATOM     21  O   UNL     1      -0.288   8.072  21.638  0.00  0.00    +0.000 OA
ATOM     22  O   UNL     1       1.430   9.415  22.915  0.00  0.00    +0.000 OA
BRANCH  20  23
ATOM     23  C   UNL     1      -0.596  10.652  21.788  0.00  0.00    +0.000 A 
ATOM     24  C   UNL     1      -1.146  11.106  22.989  0.00  0.00    +0.000 A 
ATOM     25  C   UNL     1      -1.982  12.225  22.984  0.00  0.00    +0.000 A 
ATOM     26  C   UNL     1      -2.255  12.884  21.783  0.00  0.00    +0.000 A 
ATOM     27 CL   UNL     1      -3.281  14.265  21.781  0.00  0.00    +0.000 Cl
ATOM     28  C   UNL     1      -1.698  12.434  20.586  0.00  0.00    +0.000 A 
ATOM     29  C   UNL     1      -0.861  11.316  20.583  0.00  0.00    +0.000 A 
ENDBRANCH  20  23
ENDBRANCH  18  20
ENDBRANCH  17  18
ENDBRANCH  16  17
ENDBRANCH   5  16
TORSDOF 8
ENDMDL
