MODEL 1
REMARK VINA RESULT:      -7.8      0.000      0.000
REMARK  Name = 
REMARK  9 active torsions:
REMARK  status: ('A' for Active; 'I' for Inactive)
REMARK    1  A    between atoms: C_1  and  C_2
REMARK    2  A    between atoms: C_5  and  N_6
REMARK    3  A    between atoms: C_7  and  C_9
REMARK    4  A    between atoms: C_9  and  N_10
REMARK    5  A    between atoms: C_13  and  C_14
REMARK    6  A    between atoms: N_16  and  C_17
REMARK    7  A    between atoms: C_17  and  C_18
REMARK    8  A    between atoms: C_18  and  C_19
REMARK    9  A    between atoms: C_25  and  N_26
REMARK                            x       y       z     vdW  Elec       q    Type
REMARK                         _______ _______ _______ _____ _____    ______ ____
ROOT
ATOM      1  N   UNL     1       1.482   8.803  19.006  0.00  0.00    +0.000 N 
ATOM      2  N   UNL     1       1.938   9.029  17.755  0.00  0.00    +0.000 NA
ATOM      3  N   UNL     1       2.814   8.077  17.469  0.00  0.00    +0.000 NA
ATOM      4  C   UNL     1       2.917   7.240  18.560  0.00  0.00    +0.000 A 
ATOM      5  C   UNL     1       2.088   7.707  19.568  0.00  0.00    +0.000 A 
ENDROOT
BRANCH   4   6
ATOM      6  C   UNL     1       3.729   6.032  18.576  0.00  0.00    +0.000 C 
ATOM      7  O   UNL     1       4.461   5.735  19.517  0.00  0.00    +0.000 OA
ATOM      8  N   UNL     1       3.566   5.233  17.464  0.00  0.00    +0.000 N 
ATOM      9  H   UNL     1       2.989   5.592  16.711  0.00  0.00    +0.000 HD
BRANCH   8  10
ATOM     10  C   UNL     1       4.237   3.954  17.312  0.00  0.00    +0.000 C 
BRANCH  10  11
ATOM     11  C   UNL     1       3.308   2.758  17.552  0.00  0.00    +0.000 C 
BRANCH  11  12
ATOM     12  C   UNL     1       2.629   2.812  18.899  0.00  0.00    +0.000 A 
ATOM     13  C   UNL     1       3.358   2.560  20.069  0.00  0.00    +0.000 A 
ATOM     14  C   UNL     1       2.739   2.627  21.318  0.00  0.00    +0.000 A 
ATOM     15  C   UNL     1       1.385   2.943  21.409  0.00  0.00    +0.000 A 
ATOM     16  C   UNL     1       0.649   3.188  20.252  0.00  0.00    +0.000 A 
ATOM     17  C   UNL     1       1.266   3.119  19.000  0.00  0.00    +0.000 A 
ENDBRANCH  11  12
ENDBRANCH  10  11
ENDBRANCH   8  10
ENDBRANCH   4   6
BRANCH   5  18
ATOM     18  N   UNL     1       1.850   7.253  20.821  0.00  0.00    +0.000 N 
ATOM     19  H   UNL     1       2.517   6.585  21.222  0.00  0.00    +0.000 HD
ATOM     20  H   UNL     1       0.921   7.150  21.220  0.00  0.00    +0.000 HD
ENDBRANCH   5  18
BRANCH   1  21
ATOM     21  C   UNL     1       0.417   9.622  19.532  0.00  0.00    +0.000 C 
BRANCH  21  23
ATOM     22  N   UNL     1       0.688  11.911  18.601  0.00  0.00    +0.000 N 
ATOM     23  C   UNL     1       0.718  11.092  19.713  0.00  0.00    +0.000 C 
ATOM     24  O   UNL     1       0.949  11.481  20.864  0.00  0.00    +0.000 OA
ATOM     25  H   UNL     1       0.246  11.544  17.758  0.00  0.00    +0.000 HD
BRANCH  22  30
ATOM     26  C   UNL     1       2.184  17.454  18.301  0.00  0.00    +0.000 C 
ATOM     27  C   UNL     1       1.826  16.000  18.411  0.00  0.00    +0.000 A 
ATOM     28  C   UNL     1       0.528  15.648  18.790  0.00  0.00    +0.000 A 
ATOM     29  C   UNL     1       0.145  14.308  18.873  0.00  0.00    +0.000 A 
ATOM     30  C   UNL     1       1.043  13.282  18.571  0.00  0.00    +0.000 A 
ATOM     31  C   UNL     1       2.354  13.622  18.232  0.00  0.00    +0.000 A 
ATOM     32  C   UNL     1       2.739  14.970  18.144  0.00  0.00    +0.000 A 
ATOM     33 CL   UNL     1       4.369  15.320  17.684  0.00  0.00    +0.000 Cl
ENDBRANCH  22  30
ENDBRANCH  21  23
ENDBRANCH   1  21
TORSDOF 8
ENDMDL
MODEL 2
REMARK VINA RESULT:      -7.7      1.151      1.708
REMARK  Name = 
REMARK  9 active torsions:
REMARK  status: ('A' for Active; 'I' for Inactive)
REMARK    1  A    between atoms: C_1  and  C_2
REMARK    2  A    between atoms: C_5  and  N_6
REMARK    3  A    between atoms: C_7  and  C_9
REMARK    4  A    between atoms: C_9  and  N_10
REMARK    5  A    between atoms: C_13  and  C_14
REMARK    6  A    between atoms: N_16  and  C_17
REMARK    7  A    between atoms: C_17  and  C_18
REMARK    8  A    between atoms: C_18  and  C_19
REMARK    9  A    between atoms: C_25  and  N_26
REMARK                            x       y       z     vdW  Elec       q    Type
REMARK                         _______ _______ _______ _____ _____    ______ ____
ROOT
ATOM      1  N   UNL     1       1.796   8.636  18.784  0.00  0.00    +0.000 N 
ATOM      2  N   UNL     1       2.217   9.056  17.570  0.00  0.00    +0.000 NA
ATOM      3  N   UNL     1       3.100   8.174  17.125  0.00  0.00    +0.000 NA
ATOM      4  C   UNL     1       3.244   7.186  18.075  0.00  0.00    +0.000 A 
ATOM      5  C   UNL     1       2.434   7.480  19.160  0.00  0.00    +0.000 A 
ENDROOT
BRANCH   4   6
ATOM      6  C   UNL     1       4.076   6.006  17.890  0.00  0.00    +0.000 C 
ATOM      7  O   UNL     1       5.264   5.973  18.201  0.00  0.00    +0.000 OA
ATOM      8  N   UNL     1       3.399   4.917  17.381  0.00  0.00    +0.000 N 
ATOM      9  H   UNL     1       2.436   5.058  17.094  0.00  0.00    +0.000 HD
BRANCH   8  10
ATOM     10  C   UNL     1       4.030   3.626  17.179  0.00  0.00    +0.000 C 
BRANCH  10  11
ATOM     11  C   UNL     1       3.149   2.453  17.624  0.00  0.00    +0.000 C 
BRANCH  11  12
ATOM     12  C   UNL     1       2.537   2.671  18.987  0.00  0.00    +0.000 A 
ATOM     13  C   UNL     1       1.187   3.025  19.107  0.00  0.00    +0.000 A 
ATOM     14  C   UNL     1       0.612   3.210  20.366  0.00  0.00    +0.000 A 
ATOM     15  C   UNL     1       1.383   3.045  21.515  0.00  0.00    +0.000 A 
ATOM     16  C   UNL     1       2.729   2.702  21.406  0.00  0.00    +0.000 A 
ATOM     17  C   UNL     1       3.306   2.518  20.147  0.00  0.00    +0.000 A 
ENDBRANCH  11  12
ENDBRANCH  10  11
ENDBRANCH   8  10
ENDBRANCH   4   6
BRANCH   5  18
ATOM     18  N   UNL     1       2.234   6.839  20.336  0.00  0.00    +0.000 N 
ATOM     19  H   UNL     1       1.901   5.869  20.300  0.00  0.00    +0.000 HD
ATOM     20  H   UNL     1       1.961   7.304  21.197  0.00  0.00    +0.000 HD
ENDBRANCH   5  18
BRANCH   1  21
ATOM     21  C   UNL     1       0.731   9.345  19.450  0.00  0.00    +0.000 C 
BRANCH  21  23
ATOM     22  N   UNL     1       0.920  11.650  18.537  0.00  0.00    +0.000 N 
ATOM     23  C   UNL     1       0.928  10.831  19.650  0.00  0.00    +0.000 C 
ATOM     24  O   UNL     1       1.058  11.230  20.813  0.00  0.00    +0.000 OA
ATOM     25  H   UNL     1       0.558  11.258  17.668  0.00  0.00    +0.000 HD
BRANCH  22  30
ATOM     26  C   UNL     1       1.950  17.304  18.683  0.00  0.00    +0.000 C 
ATOM     27  C   UNL     1       1.650  15.835  18.612  0.00  0.00    +0.000 A 
ATOM     28  C   UNL     1       2.677  14.948  18.279  0.00  0.00    +0.000 A 
ATOM     29  C   UNL     1       2.447  13.571  18.234  0.00  0.00    +0.000 A 
ATOM     30  C   UNL     1       1.190  13.041  18.529  0.00  0.00    +0.000 A 
ATOM     31  C   UNL     1       0.146  13.922  18.822  0.00  0.00    +0.000 A 
ATOM     32  C   UNL     1       0.377  15.306  18.873  0.00  0.00    +0.000 A 
ATOM     33 CL   UNL     1      -0.952  16.336  19.277  0.00  0.00    +0.000 Cl
ENDBRANCH  22  30
ENDBRANCH  21  23
ENDBRANCH   1  21
TORSDOF 8
ENDMDL
MODEL 3
REMARK VINA RESULT:      -7.5      5.412      6.229
REMARK  Name = 
REMARK  9 active torsions:
REMARK  status: ('A' for Active; 'I' for Inactive)
REMARK    1  A    between atoms: C_1  and  C_2
REMARK    2  A    between atoms: C_5  and  N_6
REMARK    3  A    between atoms: C_7  and  C_9
REMARK    4  A    between atoms: C_9  and  N_10
REMARK    5  A    between atoms: C_13  and  C_14
REMARK    6  A    between atoms: N_16  and  C_17
REMARK    7  A    between atoms: C_17  and  C_18
REMARK    8  A    between atoms: C_18  and  C_19
REMARK    9  A    between atoms: C_25  and  N_26
REMARK                            x       y       z     vdW  Elec       q    Type
REMARK                         _______ _______ _______ _____ _____    ______ ____
ROOT
ATOM      1  N   UNL     1       8.097   7.907  18.298  0.00  0.00    +0.000 N 
ATOM      2  N   UNL     1       7.448   8.244  17.162  0.00  0.00    +0.000 NA
ATOM      3  N   UNL     1       6.693   7.213  16.810  0.00  0.00    +0.000 NA
ATOM      4  C   UNL     1       6.874   6.208  17.735  0.00  0.00    +0.000 A 
ATOM      5  C   UNL     1       7.794   6.625  18.684  0.00  0.00    +0.000 A 
ENDROOT
BRANCH   4   6
ATOM      6  C   UNL     1       6.139   4.951  17.714  0.00  0.00    +0.000 C 
ATOM      7  O   UNL     1       6.504   3.956  18.334  0.00  0.00    +0.000 OA
ATOM      8  N   UNL     1       4.974   4.996  16.975  0.00  0.00    +0.000 N 
ATOM      9  H   UNL     1       4.788   5.842  16.447  0.00  0.00    +0.000 HD
BRANCH   8  10
ATOM     10  C   UNL     1       4.065   3.868  16.877  0.00  0.00    +0.000 C 
BRANCH  10  11
ATOM     11  C   UNL     1       2.668   4.176  17.426  0.00  0.00    +0.000 C 
BRANCH  11  12
ATOM     12  C   UNL     1       2.486   3.701  18.848  0.00  0.00    +0.000 A 
ATOM     13  C   UNL     1       3.441   2.865  19.441  0.00  0.00    +0.000 A 
ATOM     14  C   UNL     1       3.288   2.438  20.761  0.00  0.00    +0.000 A 
ATOM     15  C   UNL     1       2.177   2.841  21.499  0.00  0.00    +0.000 A 
ATOM     16  C   UNL     1       1.217   3.666  20.916  0.00  0.00    +0.000 A 
ATOM     17  C   UNL     1       1.368   4.093  19.595  0.00  0.00    +0.000 A 
ENDBRANCH  11  12
ENDBRANCH  10  11
ENDBRANCH   8  10
ENDBRANCH   4   6
BRANCH   5  18
ATOM     18  N   UNL     1       8.312   6.006  19.771  0.00  0.00    +0.000 N 
ATOM     19  H   UNL     1       8.054   6.369  20.695  0.00  0.00    +0.000 HD
ATOM     20  H   UNL     1       9.215   5.542  19.783  0.00  0.00    +0.000 HD
ENDBRANCH   5  18
BRANCH   1  21
ATOM     21  C   UNL     1       8.899   8.895  18.977  0.00  0.00    +0.000 C 
BRANCH  21  23
ATOM     22  N   UNL     1      10.081  11.049  18.594  0.00  0.00    +0.000 N 
ATOM     23  C   UNL     1       8.974  10.263  18.337  0.00  0.00    +0.000 C 
ATOM     24  O   UNL     1       8.042  10.588  17.593  0.00  0.00    +0.000 OA
ATOM     25  H   UNL     1      10.895  10.594  19.009  0.00  0.00    +0.000 HD
BRANCH  22  30
ATOM     26  C   UNL     1      10.874  16.524  17.029  0.00  0.00    +0.000 C 
ATOM     27  C   UNL     1      10.623  15.098  17.426  0.00  0.00    +0.000 A 
ATOM     28  C   UNL     1      11.335  14.080  16.786  0.00  0.00    +0.000 A 
ATOM     29  C   UNL     1      11.154  12.743  17.148  0.00  0.00    +0.000 A 
ATOM     30  C   UNL     1      10.266  12.386  18.165  0.00  0.00    +0.000 A 
ATOM     31  C   UNL     1       9.520  13.392  18.782  0.00  0.00    +0.000 A 
ATOM     32  C   UNL     1       9.704  14.737  18.422  0.00  0.00    +0.000 A 
ATOM     33 CL   UNL     1       8.773  15.935  19.253  0.00  0.00    +0.000 Cl
ENDBRANCH  22  30
ENDBRANCH  21  23
ENDBRANCH   1  21
TORSDOF 8
ENDMDL
MODEL 4
REMARK VINA RESULT:      -7.5      5.399      6.180
REMARK  Name = 
REMARK  9 active torsions:
REMARK  status: ('A' for Active; 'I' for Inactive)
REMARK    1  A    between atoms: C_1  and  C_2
REMARK    2  A    between atoms: C_5  and  N_6
REMARK    3  A    between atoms: C_7  and  C_9
REMARK    4  A    between atoms: C_9  and  N_10
REMARK    5  A    between atoms: C_13  and  C_14
REMARK    6  A    between atoms: N_16  and  C_17
REMARK    7  A    between atoms: C_17  and  C_18
REMARK    8  A    between atoms: C_18  and  C_19
REMARK    9  A    between atoms: C_25  and  N_26
REMARK                            x       y       z     vdW  Elec       q    Type
REMARK                         _______ _______ _______ _____ _____    ______ ____
ROOT
ATOM      1  N   UNL     1       7.682   6.536  17.919  0.00  0.00    +0.000 N 
ATOM      2  N   UNL     1       7.890   6.718  16.596  0.00  0.00    +0.000 NA
ATOM      3  N   UNL     1       7.065   5.910  15.946  0.00  0.00    +0.000 NA
ATOM      4  C   UNL     1       6.330   5.202  16.873  0.00  0.00    +0.000 A 
ATOM      5  C   UNL     1       6.733   5.571  18.147  0.00  0.00    +0.000 A 
ENDROOT
BRANCH   4   6
ATOM      6  C   UNL     1       5.264   4.276  16.519  0.00  0.00    +0.000 C 
ATOM      7  O   UNL     1       4.781   4.218  15.391  0.00  0.00    +0.000 OA
ATOM      8  N   UNL     1       4.882   3.441  17.548  0.00  0.00    +0.000 N 
ATOM      9  H   UNL     1       5.293   3.606  18.461  0.00  0.00    +0.000 HD
BRANCH   8  10
ATOM     10  C   UNL     1       3.879   2.405  17.385  0.00  0.00    +0.000 C 
BRANCH  10  11
ATOM     11  C   UNL     1       2.446   2.950  17.400  0.00  0.00    +0.000 C 
BRANCH  11  12
ATOM     12  C   UNL     1       2.168   3.814  18.607  0.00  0.00    +0.000 A 
ATOM     13  C   UNL     1       2.354   5.201  18.541  0.00  0.00    +0.000 A 
ATOM     14  C   UNL     1       2.080   6.006  19.648  0.00  0.00    +0.000 A 
ATOM     15  C   UNL     1       1.620   5.432  20.831  0.00  0.00    +0.000 A 
ATOM     16  C   UNL     1       1.439   4.053  20.910  0.00  0.00    +0.000 A 
ATOM     17  C   UNL     1       1.715   3.245  19.804  0.00  0.00    +0.000 A 
ENDBRANCH  11  12
ENDBRANCH  10  11
ENDBRANCH   8  10
ENDBRANCH   4   6
BRANCH   5  18
ATOM     18  N   UNL     1       6.334   5.158  19.373  0.00  0.00    +0.000 N 
ATOM     19  H   UNL     1       7.062   4.931  20.060  0.00  0.00    +0.000 HD
ATOM     20  H   UNL     1       5.473   4.648  19.547  0.00  0.00    +0.000 HD
ENDBRANCH   5  18
BRANCH   1  21
ATOM     21  C   UNL     1       8.363   7.384  18.867  0.00  0.00    +0.000 C 
BRANCH  21  23
ATOM     22  N   UNL     1       9.429   9.613  19.143  0.00  0.00    +0.000 N 
ATOM     23  C   UNL     1       8.462   8.851  18.515  0.00  0.00    +0.000 C 
ATOM     24  O   UNL     1       7.683   9.277  17.655  0.00  0.00    +0.000 OA
ATOM     25  H   UNL     1      10.172   9.117  19.636  0.00  0.00    +0.000 HD
BRANCH  22  30
ATOM     26  C   UNL     1      10.037  15.285  18.430  0.00  0.00    +0.000 C 
ATOM     27  C   UNL     1       9.924  13.800  18.620  0.00  0.00    +0.000 A 
ATOM     28  C   UNL     1       9.195  13.309  19.706  0.00  0.00    +0.000 A 
ATOM     29  C   UNL     1       9.038  11.934  19.900  0.00  0.00    +0.000 A 
ATOM     30  C   UNL     1       9.596  11.013  19.011  0.00  0.00    +0.000 A 
ATOM     31  C   UNL     1      10.360  11.494  17.945  0.00  0.00    +0.000 A 
ATOM     32  C   UNL     1      10.514  12.876  17.747  0.00  0.00    +0.000 A 
ATOM     33 CL   UNL     1      11.444  13.401  16.386  0.00  0.00    +0.000 Cl
ENDBRANCH  22  30
ENDBRANCH  21  23
ENDBRANCH   1  21
TORSDOF 8
ENDMDL
MODEL 5
REMARK VINA RESULT:      -7.5      4.934      7.709
REMARK  Name = 
REMARK  9 active torsions:
REMARK  status: ('A' for Active; 'I' for Inactive)
REMARK    1  A    between atoms: C_1  and  C_2
REMARK    2  A    between atoms: C_5  and  N_6
REMARK    3  A    between atoms: C_7  and  C_9
REMARK    4  A    between atoms: C_9  and  N_10
REMARK    5  A    between atoms: C_13  and  C_14
REMARK    6  A    between atoms: N_16  and  C_17
REMARK    7  A    between atoms: C_17  and  C_18
REMARK    8  A    between atoms: C_18  and  C_19
REMARK    9  A    between atoms: C_25  and  N_26
REMARK                            x       y       z     vdW  Elec       q    Type
REMARK                         _______ _______ _______ _____ _____    ______ ____
ROOT
ATOM      1  N   UNL     1       4.515   5.024  18.956  0.00  0.00    +0.000 N 
ATOM      2  N   UNL     1       5.459   4.756  19.885  0.00  0.00    +0.000 NA
ATOM      3  N   UNL     1       6.587   5.325  19.485  0.00  0.00    +0.000 NA
ATOM      4  C   UNL     1       6.353   5.956  18.283  0.00  0.00    +0.000 A 
ATOM      5  C   UNL     1       5.033   5.751  17.913  0.00  0.00    +0.000 A 
ENDROOT
BRANCH   4   6
ATOM      6  C   UNL     1       7.348   6.758  17.586  0.00  0.00    +0.000 C 
ATOM      7  O   UNL     1       7.697   6.528  16.430  0.00  0.00    +0.000 OA
ATOM      8  N   UNL     1       7.826   7.822  18.322  0.00  0.00    +0.000 N 
ATOM      9  H   UNL     1       7.527   7.894  19.288  0.00  0.00    +0.000 HD
BRANCH   8  10
ATOM     10  C   UNL     1       8.779   8.779  17.788  0.00  0.00    +0.000 C 
BRANCH  10  11
ATOM     11  C   UNL     1       8.442  10.228  18.157  0.00  0.00    +0.000 C 
BRANCH  11  12
ATOM     12  C   UNL     1       9.638  10.986  18.681  0.00  0.00    +0.000 A 
ATOM     13  C   UNL     1       9.794  11.195  20.058  0.00  0.00    +0.000 A 
ATOM     14  C   UNL     1      10.908  11.879  20.549  0.00  0.00    +0.000 A 
ATOM     15  C   UNL     1      11.874  12.361  19.668  0.00  0.00    +0.000 A 
ATOM     16  C   UNL     1      11.724  12.166  18.297  0.00  0.00    +0.000 A 
ATOM     17  C   UNL     1      10.609  11.484  17.804  0.00  0.00    +0.000 A 
ENDBRANCH  11  12
ENDBRANCH  10  11
ENDBRANCH   8  10
ENDBRANCH   4   6
BRANCH   5  18
ATOM     18  N   UNL     1       4.329   6.145  16.826  0.00  0.00    +0.000 N 
ATOM     19  H   UNL     1       4.146   5.447  16.097  0.00  0.00    +0.000 HD
ATOM     20  H   UNL     1       4.344   7.091  16.453  0.00  0.00    +0.000 HD
ENDBRANCH   5  18
BRANCH   1  21
ATOM     21  C   UNL     1       3.149   4.628  19.199  0.00  0.00    +0.000 C 
BRANCH  21  23
ATOM     22  N   UNL     1       2.350   6.966  19.484  0.00  0.00    +0.000 N 
ATOM     23  C   UNL     1       2.260   5.644  19.879  0.00  0.00    +0.000 C 
ATOM     24  O   UNL     1       1.478   5.222  20.738  0.00  0.00    +0.000 OA
ATOM     25  H   UNL     1       2.834   7.162  18.608  0.00  0.00    +0.000 HD
BRANCH  22  30
ATOM     26  C   UNL     1      -0.545  11.371  21.779  0.00  0.00    +0.000 C 
ATOM     27  C   UNL     1       0.244  10.250  21.167  0.00  0.00    +0.000 A 
ATOM     28  C   UNL     1       0.675   9.199  21.981  0.00  0.00    +0.000 A 
ATOM     29  C   UNL     1       1.383   8.122  21.444  0.00  0.00    +0.000 A 
ATOM     30  C   UNL     1       1.672   8.057  20.080  0.00  0.00    +0.000 A 
ATOM     31  C   UNL     1       1.281   9.122  19.265  0.00  0.00    +0.000 A 
ATOM     32  C   UNL     1       0.565  10.204  19.802  0.00  0.00    +0.000 A 
ATOM     33 CL   UNL     1       0.082  11.471  18.729  0.00  0.00    +0.000 Cl
ENDBRANCH  22  30
ENDBRANCH  21  23
ENDBRANCH   1  21
TORSDOF 8
ENDMDL
MODEL 6
REMARK VINA RESULT:      -7.4      2.726      4.549
REMARK  Name = 
REMARK  9 active torsions:
REMARK  status: ('A' for Active; 'I' for Inactive)
REMARK    1  A    between atoms: C_1  and  C_2
REMARK    2  A    between atoms: C_5  and  N_6
REMARK    3  A    between atoms: C_7  and  C_9
REMARK    4  A    between atoms: C_9  and  N_10
REMARK    5  A    between atoms: C_13  and  C_14
REMARK    6  A    between atoms: N_16  and  C_17
REMARK    7  A    between atoms: C_17  and  C_18
REMARK    8  A    between atoms: C_18  and  C_19
REMARK    9  A    between atoms: C_25  and  N_26
REMARK                            x       y       z     vdW  Elec       q    Type
REMARK                         _______ _______ _______ _____ _____    ______ ____
ROOT
ATOM      1  N   UNL     1       1.870   7.446  20.134  0.00  0.00    +0.000 N 
ATOM      2  N   UNL     1       2.162   8.131  19.007  0.00  0.00    +0.000 NA
ATOM      3  N   UNL     1       2.839   7.318  18.208  0.00  0.00    +0.000 NA
ATOM      4  C   UNL     1       2.981   6.104  18.844  0.00  0.00    +0.000 A 
ATOM      5  C   UNL     1       2.388   6.176  20.095  0.00  0.00    +0.000 A 
ENDROOT
BRANCH   4   6
ATOM      6  C   UNL     1       3.603   4.940  18.229  0.00  0.00    +0.000 C 
ATOM      7  O   UNL     1       3.229   3.791  18.451  0.00  0.00    +0.000 OA
ATOM      8  N   UNL     1       4.613   5.248  17.342  0.00  0.00    +0.000 N 
ATOM      9  H   UNL     1       4.894   6.220  17.273  0.00  0.00    +0.000 HD
BRANCH   8  10
ATOM     10  C   UNL     1       5.319   4.236  16.577  0.00  0.00    +0.000 C 
BRANCH  10  11
ATOM     11  C   UNL     1       6.652   4.737  16.009  0.00  0.00    +0.000 C 
BRANCH  11  12
ATOM     12  C   UNL     1       6.760   4.533  14.517  0.00  0.00    +0.000 A 
ATOM     13  C   UNL     1       5.923   3.616  13.867  0.00  0.00    +0.000 A 
ATOM     14  C   UNL     1       6.005   3.437  12.485  0.00  0.00    +0.000 A 
ATOM     15  C   UNL     1       6.927   4.171  11.741  0.00  0.00    +0.000 A 
ATOM     16  C   UNL     1       7.770   5.079  12.379  0.00  0.00    +0.000 A 
ATOM     17  C   UNL     1       7.690   5.258  13.762  0.00  0.00    +0.000 A 
ENDBRANCH  11  12
ENDBRANCH  10  11
ENDBRANCH   8  10
ENDBRANCH   4   6
BRANCH   5  18
ATOM     18  N   UNL     1       2.275   5.268  21.093  0.00  0.00    +0.000 N 
ATOM     19  H   UNL     1       3.139   4.849  21.456  0.00  0.00    +0.000 HD
ATOM     20  H   UNL     1       1.474   4.656  21.215  0.00  0.00    +0.000 HD
ENDBRANCH   5  18
BRANCH   1  21
ATOM     21  C   UNL     1       1.024   8.053  21.134  0.00  0.00    +0.000 C 
BRANCH  21  23
ATOM     22  N   UNL     1       0.286  10.123  19.970  0.00  0.00    +0.000 N 
ATOM     23  C   UNL     1       0.884   9.557  21.080  0.00  0.00    +0.000 C 
ATOM     24  O   UNL     1       1.293  10.196  22.057  0.00  0.00    +0.000 OA
ATOM     25  H   UNL     1      -0.235   9.502  19.350  0.00  0.00    +0.000 HD
BRANCH  22  30
ATOM     26  C   UNL     1      -0.159  15.718  18.729  0.00  0.00    +0.000 C 
ATOM     27  C   UNL     1      -0.007  14.267  19.081  0.00  0.00    +0.000 A 
ATOM     28  C   UNL     1      -1.072  13.602  19.694  0.00  0.00    +0.000 A 
ATOM     29  C   UNL     1      -0.983  12.244  20.008  0.00  0.00    +0.000 A 
ATOM     30  C   UNL     1       0.166  11.510  19.709  0.00  0.00    +0.000 A 
ATOM     31  C   UNL     1       1.251  12.174  19.133  0.00  0.00    +0.000 A 
ATOM     32  C   UNL     1       1.161  13.538  18.813  0.00  0.00    +0.000 A 
ATOM     33 CL   UNL     1       2.530  14.290  18.069  0.00  0.00    +0.000 Cl
ENDBRANCH  22  30
ENDBRANCH  21  23
ENDBRANCH   1  21
TORSDOF 8
ENDMDL
MODEL 7
REMARK VINA RESULT:      -7.4      1.804      3.221
REMARK  Name = 
REMARK  9 active torsions:
REMARK  status: ('A' for Active; 'I' for Inactive)
REMARK    1  A    between atoms: C_1  and  C_2
REMARK    2  A    between atoms: C_5  and  N_6
REMARK    3  A    between atoms: C_7  and  C_9
REMARK    4  A    between atoms: C_9  and  N_10
REMARK    5  A    between atoms: C_13  and  C_14
REMARK    6  A    between atoms: N_16  and  C_17
REMARK    7  A    between atoms: C_17  and  C_18
REMARK    8  A    between atoms: C_18  and  C_19
REMARK    9  A    between atoms: C_25  and  N_26
REMARK                            x       y       z     vdW  Elec       q    Type
REMARK                         _______ _______ _______ _____ _____    ______ ____
ROOT
ATOM      1  N   UNL     1       1.213   8.964  19.494  0.00  0.00    +0.000 N 
ATOM      2  N   UNL     1       1.510   9.137  18.187  0.00  0.00    +0.000 NA
ATOM      3  N   UNL     1       2.299   8.138  17.819  0.00  0.00    +0.000 NA
ATOM      4  C   UNL     1       2.508   7.325  18.912  0.00  0.00    +0.000 A 
ATOM      5  C   UNL     1       1.840   7.855  20.005  0.00  0.00    +0.000 A 
ENDROOT
BRANCH   4   6
ATOM      6  C   UNL     1       3.263   6.081  18.859  0.00  0.00    +0.000 C 
ATOM      7  O   UNL     1       3.722   5.538  19.861  0.00  0.00    +0.000 OA
ATOM      8  N   UNL     1       3.372   5.546  17.592  0.00  0.00    +0.000 N 
ATOM      9  H   UNL     1       3.016   6.099  16.819  0.00  0.00    +0.000 HD
BRANCH   8  10
ATOM     10  C   UNL     1       4.032   4.280  17.331  0.00  0.00    +0.000 C 
BRANCH  10  11
ATOM     11  C   UNL     1       5.353   4.439  16.570  0.00  0.00    +0.000 C 
BRANCH  11  12
ATOM     12  C   UNL     1       6.336   5.326  17.294  0.00  0.00    +0.000 A 
ATOM     13  C   UNL     1       6.655   6.592  16.784  0.00  0.00    +0.000 A 
ATOM     14  C   UNL     1       7.549   7.423  17.460  0.00  0.00    +0.000 A 
ATOM     15  C   UNL     1       8.135   6.997  18.650  0.00  0.00    +0.000 A 
ATOM     16  C   UNL     1       7.832   5.736  19.162  0.00  0.00    +0.000 A 
ATOM     17  C   UNL     1       6.938   4.902  18.486  0.00  0.00    +0.000 A 
ENDBRANCH  11  12
ENDBRANCH  10  11
ENDBRANCH   8  10
ENDBRANCH   4   6
BRANCH   5  18
ATOM     18  N   UNL     1       1.749   7.444  21.292  0.00  0.00    +0.000 N 
ATOM     19  H   UNL     1       2.244   7.992  22.004  0.00  0.00    +0.000 HD
ATOM     20  H   UNL     1       1.633   6.474  21.571  0.00  0.00    +0.000 HD
ENDBRANCH   5  18
BRANCH   1  21
ATOM     21  C   UNL     1       0.262   9.844  20.129  0.00  0.00    +0.000 C 
BRANCH  21  23
ATOM     22  N   UNL     1       0.971  11.898  18.919  0.00  0.00    +0.000 N 
ATOM     23  C   UNL     1       0.592  11.319  20.116  0.00  0.00    +0.000 C 
ATOM     24  O   UNL     1       0.473  11.932  21.183  0.00  0.00    +0.000 OA
ATOM     25  H   UNL     1       0.793  11.370  18.065  0.00  0.00    +0.000 HD
BRANCH  22  30
ATOM     26  C   UNL     1       2.809  17.274  18.042  0.00  0.00    +0.000 C 
ATOM     27  C   UNL     1       2.361  15.865  18.304  0.00  0.00    +0.000 A 
ATOM     28  C   UNL     1       1.044  15.637  18.712  0.00  0.00    +0.000 A 
ATOM     29  C   UNL     1       0.579  14.339  18.935  0.00  0.00    +0.000 A 
ATOM     30  C   UNL     1       1.410  13.233  18.746  0.00  0.00    +0.000 A 
ATOM     31  C   UNL     1       2.740  13.453  18.378  0.00  0.00    +0.000 A 
ATOM     32  C   UNL     1       3.207  14.757  18.150  0.00  0.00    +0.000 A 
ATOM     33 CL   UNL     1       4.855  14.954  17.661  0.00  0.00    +0.000 Cl
ENDBRANCH  22  30
ENDBRANCH  21  23
ENDBRANCH   1  21
TORSDOF 8
ENDMDL
MODEL 8
REMARK VINA RESULT:      -7.4      0.503      1.027
REMARK  Name = 
REMARK  9 active torsions:
REMARK  status: ('A' for Active; 'I' for Inactive)
REMARK    1  A    between atoms: C_1  and  C_2
REMARK    2  A    between atoms: C_5  and  N_6
REMARK    3  A    between atoms: C_7  and  C_9
REMARK    4  A    between atoms: C_9  and  N_10
REMARK    5  A    between atoms: C_13  and  C_14
REMARK    6  A    between atoms: N_16  and  C_17
REMARK    7  A    between atoms: C_17  and  C_18
REMARK    8  A    between atoms: C_18  and  C_19
REMARK    9  A    between atoms: C_25  and  N_26
REMARK                            x       y       z     vdW  Elec       q    Type
REMARK                         _______ _______ _______ _____ _____    ______ ____
ROOT
ATOM      1  N   UNL     1       1.503   8.968  18.777  0.00  0.00    +0.000 N 
ATOM      2  N   UNL     1       1.879   9.424  17.562  0.00  0.00    +0.000 NA
ATOM      3  N   UNL     1       2.807   8.602  17.094  0.00  0.00    +0.000 NA
ATOM      4  C   UNL     1       3.025   7.615  18.031  0.00  0.00    +0.000 A 
ATOM      5  C   UNL     1       2.216   7.849  19.132  0.00  0.00    +0.000 A 
ENDROOT
BRANCH   4   6
ATOM      6  C   UNL     1       3.924   6.489  17.821  0.00  0.00    +0.000 C 
ATOM      7  O   UNL     1       5.135   6.561  18.011  0.00  0.00    +0.000 OA
ATOM      8  N   UNL     1       3.286   5.327  17.438  0.00  0.00    +0.000 N 
ATOM      9  H   UNL     1       2.292   5.382  17.245  0.00  0.00    +0.000 HD
BRANCH   8  10
ATOM     10  C   UNL     1       3.993   4.076  17.238  0.00  0.00    +0.000 C 
BRANCH  10  11
ATOM     11  C   UNL     1       3.131   2.846  17.546  0.00  0.00    +0.000 C 
BRANCH  11  12
ATOM     12  C   UNL     1       2.554   2.877  18.941  0.00  0.00    +0.000 A 
ATOM     13  C   UNL     1       1.186   3.113  19.135  0.00  0.00    +0.000 A 
ATOM     14  C   UNL     1       0.645   3.125  20.421  0.00  0.00    +0.000 A 
ATOM     15  C   UNL     1       1.466   2.903  21.526  0.00  0.00    +0.000 A 
ATOM     16  C   UNL     1       2.828   2.676  21.345  0.00  0.00    +0.000 A 
ATOM     17  C   UNL     1       3.373   2.666  20.058  0.00  0.00    +0.000 A 
ENDBRANCH  11  12
ENDBRANCH  10  11
ENDBRANCH   8  10
ENDBRANCH   4   6
BRANCH   5  18
ATOM     18  N   UNL     1       2.074   7.186  20.304  0.00  0.00    +0.000 N 
ATOM     19  H   UNL     1       2.263   6.178  20.307  0.00  0.00    +0.000 HD
ATOM     20  H   UNL     1       1.416   7.453  21.030  0.00  0.00    +0.000 HD
ENDBRANCH   5  18
BRANCH   1  21
ATOM     21  C   UNL     1       0.408   9.605  19.467  0.00  0.00    +0.000 C 
BRANCH  21  23
ATOM     22  N   UNL     1       0.780  11.895  18.571  0.00  0.00    +0.000 N 
ATOM     23  C   UNL     1       0.513  11.099  19.670  0.00  0.00    +0.000 C 
ATOM     24  O   UNL     1       0.324  11.527  20.814  0.00  0.00    +0.000 OA
ATOM     25  H   UNL     1       0.667  11.474  17.648  0.00  0.00    +0.000 HD
BRANCH  22  30
ATOM     26  C   UNL     1       1.781  17.555  18.491  0.00  0.00    +0.000 C 
ATOM     27  C   UNL     1       1.552  16.072  18.544  0.00  0.00    +0.000 A 
ATOM     28  C   UNL     1       0.286  15.593  18.892  0.00  0.00    +0.000 A 
ATOM     29  C   UNL     1       0.023  14.222  18.922  0.00  0.00    +0.000 A 
ATOM     30  C   UNL     1       1.011  13.292  18.595  0.00  0.00    +0.000 A 
ATOM     31  C   UNL     1       2.291  13.759  18.286  0.00  0.00    +0.000 A 
ATOM     32  C   UNL     1       2.555  15.138  18.252  0.00  0.00    +0.000 A 
ATOM     33 CL   UNL     1       4.153  15.647  17.826  0.00  0.00    +0.000 Cl
ENDBRANCH  22  30
ENDBRANCH  21  23
ENDBRANCH   1  21
TORSDOF 8
ENDMDL
MODEL 9
REMARK VINA RESULT:      -7.4      2.601      4.372
REMARK  Name = 
REMARK  9 active torsions:
REMARK  status: ('A' for Active; 'I' for Inactive)
REMARK    1  A    between atoms: C_1  and  C_2
REMARK    2  A    between atoms: C_5  and  N_6
REMARK    3  A    between atoms: C_7  and  C_9
REMARK    4  A    between atoms: C_9  and  N_10
REMARK    5  A    between atoms: C_13  and  C_14
REMARK    6  A    between atoms: N_16  and  C_17
REMARK    7  A    between atoms: C_17  and  C_18
REMARK    8  A    between atoms: C_18  and  C_19
REMARK    9  A    between atoms: C_25  and  N_26
REMARK                            x       y       z     vdW  Elec       q    Type
REMARK                         _______ _______ _______ _____ _____    ______ ____
ROOT
ATOM      1  N   UNL     1       1.622   8.643  19.376  0.00  0.00    +0.000 N 
ATOM      2  N   UNL     1       1.996   9.064  18.148  0.00  0.00    +0.000 NA
ATOM      3  N   UNL     1       2.722   8.102  17.598  0.00  0.00    +0.000 NA
ATOM      4  C   UNL     1       2.814   7.060  18.496  0.00  0.00    +0.000 A 
ATOM      5  C   UNL     1       2.135   7.401  19.656  0.00  0.00    +0.000 A 
ENDROOT
BRANCH   4   6
ATOM      6  C   UNL     1       3.472   5.796  18.199  0.00  0.00    +0.000 C 
ATOM      7  O   UNL     1       3.300   4.783  18.873  0.00  0.00    +0.000 OA
ATOM      8  N   UNL     1       4.263   5.827  17.070  0.00  0.00    +0.000 N 
ATOM      9  H   UNL     1       4.393   6.725  16.616  0.00  0.00    +0.000 HD
BRANCH   8  10
ATOM     10  C   UNL     1       4.956   4.655  16.566  0.00  0.00    +0.000 C 
BRANCH  10  11
ATOM     11  C   UNL     1       6.389   4.957  16.113  0.00  0.00    +0.000 C 
BRANCH  11  12
ATOM     12  C   UNL     1       6.606   4.670  14.647  0.00  0.00    +0.000 A 
ATOM     13  C   UNL     1       5.812   3.721  13.987  0.00  0.00    +0.000 A 
ATOM     14  C   UNL     1       5.996   3.466  12.627  0.00  0.00    +0.000 A 
ATOM     15  C   UNL     1       6.977   4.154  11.915  0.00  0.00    +0.000 A 
ATOM     16  C   UNL     1       7.777   5.093  12.563  0.00  0.00    +0.000 A 
ATOM     17  C   UNL     1       7.596   5.348  13.925  0.00  0.00    +0.000 A 
ENDBRANCH  11  12
ENDBRANCH  10  11
ENDBRANCH   8  10
ENDBRANCH   4   6
BRANCH   5  18
ATOM     18  N   UNL     1       1.949   6.735  20.820  0.00  0.00    +0.000 N 
ATOM     19  H   UNL     1       2.442   5.844  20.944  0.00  0.00    +0.000 HD
ATOM     20  H   UNL     1       1.094   6.778  21.367  0.00  0.00    +0.000 HD
ENDBRANCH   5  18
BRANCH   1  21
ATOM     21  C   UNL     1       0.712   9.447  20.155  0.00  0.00    +0.000 C 
BRANCH  21  23
ATOM     22  N   UNL     1       0.861  11.640  18.994  0.00  0.00    +0.000 N 
ATOM     23  C   UNL     1       0.972  10.936  20.178  0.00  0.00    +0.000 C 
ATOM     24  O   UNL     1       1.244  11.443  21.272  0.00  0.00    +0.000 OA
ATOM     25  H   UNL     1       0.392  11.179  18.215  0.00  0.00    +0.000 HD
BRANCH  22  30
ATOM     26  C   UNL     1       2.041  17.239  18.435  0.00  0.00    +0.000 C 
ATOM     27  C   UNL     1       1.702  15.781  18.547  0.00  0.00    +0.000 A 
ATOM     28  C   UNL     1       2.702  14.832  18.321  0.00  0.00    +0.000 A 
ATOM     29  C   UNL     1       2.436  13.467  18.448  0.00  0.00    +0.000 A 
ATOM     30  C   UNL     1       1.168  13.011  18.813  0.00  0.00    +0.000 A 
ATOM     31  C   UNL     1       0.150  13.950  19.001  0.00  0.00    +0.000 A 
ATOM     32  C   UNL     1       0.418  15.323  18.878  0.00  0.00    +0.000 A 
ATOM     33 CL   UNL     1      -0.879  16.431  19.160  0.00  0.00    +0.000 Cl
ENDBRANCH  22  30
ENDBRANCH  21  23
ENDBRANCH   1  21
TORSDOF 8
ENDMDL
