MODEL 1
REMARK VINA RESULT:      -9.7      0.000      0.000
REMARK  Name = 
REMARK  6 active torsions:
REMARK  status: ('A' for Active; 'I' for Inactive)
REMARK    1  A    between atoms: C_2  and  C_19
REMARK    2  A    between atoms: N_3  and  C_4
REMARK    3  A    between atoms: C_11  and  C_13
REMARK    4  A    between atoms: C_23  and  N_24
REMARK    5  A    between atoms: N_24  and  C_25
REMARK    6  A    between atoms: C_25  and  C_26
REMARK                            x       y       z     vdW  Elec       q    Type
REMARK                         _______ _______ _______ _____ _____    ______ ____
ROOT
ATOM      1  O   UNL     1       3.256   4.965  19.808  0.00  0.00    +0.000 OA
ATOM      2  C   UNL     1       3.940   5.408  18.897  0.00  0.00    +0.000 C 
ATOM      3  N   UNL     1       3.743   6.614  18.213  0.00  0.00    +0.000 N 
ATOM      4  H   UNL     1       4.335   6.767  17.407  0.00  0.00    +0.000 HD
ENDROOT
BRANCH   3   5
ATOM      5  C   UNL     1       2.754   7.601  18.421  0.00  0.00    +0.000 A 
ATOM      6  C   UNL     1       2.302   8.462  17.428  0.00  0.00    +0.000 A 
ATOM      7  C   UNL     1       1.325   9.435  17.706  0.00  0.00    +0.000 A 
ATOM      8  C   UNL     1       0.809   9.574  19.012  0.00  0.00    +0.000 A 
ATOM      9  N   UNL     1      -0.133  10.504  19.433  0.00  0.00    +0.000 NA
ATOM     10  C   UNL     1      -0.307  10.407  20.728  0.00  0.00    +0.000 A 
ATOM     11  N   UNL     1      -1.149  11.267  21.390  0.00  0.00    +0.000 N 
ATOM     12  C   UNL     1      -1.216  11.481  22.748  0.00  0.00    +0.000 C 
ATOM     13  O   UNL     1      -0.568  10.935  23.624  0.00  0.00    +0.000 OA
ATOM     14  S   UNL     1       0.522   9.134  21.498  0.00  0.00    +0.000 S 
ATOM     15  C   UNL     1       1.271   8.708  20.001  0.00  0.00    +0.000 A 
ATOM     16  C   UNL     1       2.213   7.695  19.720  0.00  0.00    +0.000 A 
ATOM     17  H   UNL     1      -1.648  11.886  20.770  0.00  0.00    +0.000 HD
BRANCH  12  18
ATOM     18  C   UNL     1      -2.184  12.571  23.106  0.00  0.00    +0.000 C 
ATOM     19  C   UNL     1      -3.556  12.642  22.468  0.00  0.00    +0.000 C 
ATOM     20  C   UNL     1      -3.427  12.244  23.908  0.00  0.00    +0.000 C 
ENDBRANCH  12  18
ENDBRANCH   3   5
BRANCH   2  21
ATOM     21  C   UNL     1       5.129   4.631  18.295  0.00  0.00    +0.000 C 
ATOM     22  C   UNL     1       4.861   3.884  16.979  0.00  0.00    +0.000 C 
ATOM     23  C   UNL     1       5.224   4.613  15.685  0.00  0.00    +0.000 C 
ATOM     24  C   UNL     1       6.543   5.357  15.779  0.00  0.00    +0.000 C 
ATOM     25  C   UNL     1       6.525   6.330  16.959  0.00  0.00    +0.000 C 
ATOM     26  C   UNL     1       6.383   5.523  18.262  0.00  0.00    +0.000 C 
BRANCH  25  27
ATOM     27  N   UNL     1       7.756   7.129  17.038  0.00  0.00    +0.000 NA
ATOM     28  H   UNL     1       7.703   7.929  16.410  0.00  0.00    +0.000 HD
BRANCH  27  29
ATOM     29  C   UNL     1       8.028   7.614  18.394  0.00  0.00    +0.000 C 
BRANCH  29  30
ATOM     30  C   UNL     1       8.390   9.079  18.399  0.00  0.00    +0.000 A 
ATOM     31  C   UNL     1       7.797   9.950  17.482  0.00  0.00    +0.000 A 
ATOM     32  C   UNL     1       8.140  11.303  17.473  0.00  0.00    +0.000 A 
ATOM     33  C   UNL     1       9.079  11.810  18.382  0.00  0.00    +0.000 A 
ATOM     34  C   UNL     1       9.422  13.170  18.392  0.00  0.00    +0.000 A 
ATOM     35  C   UNL     1      10.356  13.662  19.305  0.00  0.00    +0.000 A 
ATOM     36  C   UNL     1      10.963  12.800  20.215  0.00  0.00    +0.000 A 
ATOM     37  C   UNL     1      10.633  11.444  20.218  0.00  0.00    +0.000 A 
ATOM     38  C   UNL     1       9.690  10.936  19.310  0.00  0.00    +0.000 A 
ATOM     39  C   UNL     1       9.338   9.577  19.304  0.00  0.00    +0.000 A 
ENDBRANCH  29  30
ENDBRANCH  27  29
ENDBRANCH  25  27
ENDBRANCH   2  21
TORSDOF 6
ENDMDL
MODEL 2
REMARK VINA RESULT:      -9.5      2.816      4.508
REMARK  Name = 
REMARK  6 active torsions:
REMARK  status: ('A' for Active; 'I' for Inactive)
REMARK    1  A    between atoms: C_2  and  C_19
REMARK    2  A    between atoms: N_3  and  C_4
REMARK    3  A    between atoms: C_11  and  C_13
REMARK    4  A    between atoms: C_23  and  N_24
REMARK    5  A    between atoms: N_24  and  C_25
REMARK    6  A    between atoms: C_25  and  C_26
REMARK                            x       y       z     vdW  Elec       q    Type
REMARK                         _______ _______ _______ _____ _____    ______ ____
ROOT
ATOM      1  O   UNL     1       2.465   6.383  18.796  0.00  0.00    +0.000 OA
ATOM      2  C   UNL     1       2.091   6.155  19.937  0.00  0.00    +0.000 C 
ATOM      3  N   UNL     1       1.471   7.056  20.811  0.00  0.00    +0.000 N 
ATOM      4  H   UNL     1       1.337   6.731  21.760  0.00  0.00    +0.000 HD
ENDROOT
BRANCH   3   5
ATOM      5  C   UNL     1       1.107   8.403  20.586  0.00  0.00    +0.000 A 
ATOM      6  C   UNL     1       1.456   9.116  19.446  0.00  0.00    +0.000 A 
ATOM      7  C   UNL     1       1.075  10.461  19.292  0.00  0.00    +0.000 A 
ATOM      8  C   UNL     1       0.355  11.120  20.312  0.00  0.00    +0.000 A 
ATOM      9  N   UNL     1      -0.060  12.445  20.306  0.00  0.00    +0.000 NA
ATOM     10  C   UNL     1      -0.618  12.742  21.453  0.00  0.00    +0.000 A 
ATOM     11  N   UNL     1      -1.055  14.018  21.713  0.00  0.00    +0.000 N 
ATOM     12  C   UNL     1      -1.386  14.549  22.939  0.00  0.00    +0.000 C 
ATOM     13  O   UNL     1      -1.384  13.989  24.021  0.00  0.00    +0.000 OA
ATOM     14  S   UNL     1      -0.806  11.451  22.548  0.00  0.00    +0.000 S 
ATOM     15  C   UNL     1       0.012  10.396  21.452  0.00  0.00    +0.000 A 
ATOM     16  C   UNL     1       0.346   9.032  21.593  0.00  0.00    +0.000 A 
ATOM     17  H   UNL     1      -0.973  14.633  20.918  0.00  0.00    +0.000 HD
BRANCH  12  18
ATOM     18  C   UNL     1      -1.725  16.010  22.855  0.00  0.00    +0.000 C 
ATOM     19  C   UNL     1      -2.474  16.574  21.667  0.00  0.00    +0.000 C 
ATOM     20  C   UNL     1      -3.164  16.461  22.993  0.00  0.00    +0.000 C 
ENDBRANCH  12  18
ENDBRANCH   3   5
BRANCH   2  21
ATOM     21  C   UNL     1       2.327   4.798  20.634  0.00  0.00    +0.000 C 
ATOM     22  C   UNL     1       1.082   3.927  20.871  0.00  0.00    +0.000 C 
ATOM     23  C   UNL     1       0.777   2.860  19.820  0.00  0.00    +0.000 C 
ATOM     24  C   UNL     1       2.020   2.138  19.337  0.00  0.00    +0.000 C 
ATOM     25  C   UNL     1       3.047   3.139  18.804  0.00  0.00    +0.000 C 
ATOM     26  C   UNL     1       3.491   4.052  19.961  0.00  0.00    +0.000 C 
BRANCH  25  27
ATOM     27  N   UNL     1       4.235   2.475  18.251  0.00  0.00    +0.000 NA
ATOM     28  H   UNL     1       4.087   1.469  18.193  0.00  0.00    +0.000 HD
BRANCH  27  29
ATOM     29  C   UNL     1       4.592   2.973  16.919  0.00  0.00    +0.000 C 
BRANCH  29  30
ATOM     30  C   UNL     1       5.242   4.332  16.989  0.00  0.00    +0.000 A 
ATOM     31  C   UNL     1       4.840   5.348  16.119  0.00  0.00    +0.000 A 
ATOM     32  C   UNL     1       5.449   6.602  16.169  0.00  0.00    +0.000 A 
ATOM     33  C   UNL     1       6.471   6.865  17.093  0.00  0.00    +0.000 A 
ATOM     34  C   UNL     1       7.081   8.125  17.163  0.00  0.00    +0.000 A 
ATOM     35  C   UNL     1       8.095   8.375  18.089  0.00  0.00    +0.000 A 
ATOM     36  C   UNL     1       8.513   7.366  18.954  0.00  0.00    +0.000 A 
ATOM     37  C   UNL     1       7.916   6.107  18.896  0.00  0.00    +0.000 A 
ATOM     38  C   UNL     1       6.891   5.843  17.974  0.00  0.00    +0.000 A 
ATOM     39  C   UNL     1       6.271   4.585  17.909  0.00  0.00    +0.000 A 
ENDBRANCH  29  30
ENDBRANCH  27  29
ENDBRANCH  25  27
ENDBRANCH   2  21
TORSDOF 6
ENDMDL
MODEL 3
REMARK VINA RESULT:      -9.5      0.681      1.287
REMARK  Name = 
REMARK  6 active torsions:
REMARK  status: ('A' for Active; 'I' for Inactive)
REMARK    1  A    between atoms: C_2  and  C_19
REMARK    2  A    between atoms: N_3  and  C_4
REMARK    3  A    between atoms: C_11  and  C_13
REMARK    4  A    between atoms: C_23  and  N_24
REMARK    5  A    between atoms: N_24  and  C_25
REMARK    6  A    between atoms: C_25  and  C_26
REMARK                            x       y       z     vdW  Elec       q    Type
REMARK                         _______ _______ _______ _____ _____    ______ ____
ROOT
ATOM      1  O   UNL     1       2.790   4.921  20.042  0.00  0.00    +0.000 OA
ATOM      2  C   UNL     1       3.619   5.392  19.277  0.00  0.00    +0.000 C 
ATOM      3  N   UNL     1       3.555   6.635  18.635  0.00  0.00    +0.000 N 
ATOM      4  H   UNL     1       4.271   6.813  17.943  0.00  0.00    +0.000 HD
ENDROOT
BRANCH   3   5
ATOM      5  C   UNL     1       2.562   7.635  18.735  0.00  0.00    +0.000 A 
ATOM      6  C   UNL     1       2.169   8.441  17.673  0.00  0.00    +0.000 A 
ATOM      7  C   UNL     1       1.185   9.430  17.843  0.00  0.00    +0.000 A 
ATOM      8  C   UNL     1       0.600   9.644  19.110  0.00  0.00    +0.000 A 
ATOM      9  N   UNL     1      -0.357  10.598  19.428  0.00  0.00    +0.000 NA
ATOM     10  C   UNL     1      -0.601  10.574  20.715  0.00  0.00    +0.000 A 
ATOM     11  N   UNL     1      -1.472  11.472  21.283  0.00  0.00    +0.000 N 
ATOM     12  C   UNL     1      -1.610  11.761  22.621  0.00  0.00    +0.000 C 
ATOM     13  O   UNL     1      -1.013  11.263  23.559  0.00  0.00    +0.000 OA
ATOM     14  S   UNL     1       0.178   9.343  21.598  0.00  0.00    +0.000 S 
ATOM     15  C   UNL     1       1.003   8.833  20.169  0.00  0.00    +0.000 A 
ATOM     16  C   UNL     1       1.953   7.803  19.995  0.00  0.00    +0.000 A 
ATOM     17  H   UNL     1      -1.934  12.057  20.604  0.00  0.00    +0.000 HD
BRANCH  12  18
ATOM     18  C   UNL     1      -2.590  12.873  22.866  0.00  0.00    +0.000 C 
ATOM     19  C   UNL     1      -3.936  12.897  22.173  0.00  0.00    +0.000 C 
ATOM     20  C   UNL     1      -3.862  12.601  23.641  0.00  0.00    +0.000 C 
ENDBRANCH  12  18
ENDBRANCH   3   5
BRANCH   2  21
ATOM     21  C   UNL     1       4.876   4.616  18.832  0.00  0.00    +0.000 C 
ATOM     22  C   UNL     1       4.816   3.956  17.444  0.00  0.00    +0.000 C 
ATOM     23  C   UNL     1       5.405   4.749  16.277  0.00  0.00    +0.000 C 
ATOM     24  C   UNL     1       6.704   5.445  16.635  0.00  0.00    +0.000 C 
ATOM     25  C   UNL     1       6.510   6.348  17.855  0.00  0.00    +0.000 C 
ATOM     26  C   UNL     1       6.135   5.470  19.062  0.00  0.00    +0.000 C 
BRANCH  25  27
ATOM     27  N   UNL     1       7.725   7.103  18.186  0.00  0.00    +0.000 NA
ATOM     28  H   UNL     1       8.546   6.502  18.130  0.00  0.00    +0.000 HD
BRANCH  27  29
ATOM     29  C   UNL     1       7.930   8.258  17.306  0.00  0.00    +0.000 C 
BRANCH  29  30
ATOM     30  C   UNL     1       8.457   9.450  18.066  0.00  0.00    +0.000 A 
ATOM     31  C   UNL     1       9.036   9.278  19.325  0.00  0.00    +0.000 A 
ATOM     32  C   UNL     1       9.512  10.379  20.038  0.00  0.00    +0.000 A 
ATOM     33  C   UNL     1       9.421  11.672  19.504  0.00  0.00    +0.000 A 
ATOM     34  C   UNL     1       9.907  12.785  20.204  0.00  0.00    +0.000 A 
ATOM     35  C   UNL     1       9.813  14.066  19.659  0.00  0.00    +0.000 A 
ATOM     36  C   UNL     1       9.226  14.251  18.409  0.00  0.00    +0.000 A 
ATOM     37  C   UNL     1       8.737  13.154  17.700  0.00  0.00    +0.000 A 
ATOM     38  C   UNL     1       8.831  11.858  18.233  0.00  0.00    +0.000 A 
ATOM     39  C   UNL     1       8.353  10.741  17.529  0.00  0.00    +0.000 A 
ENDBRANCH  29  30
ENDBRANCH  27  29
ENDBRANCH  25  27
ENDBRANCH   2  21
TORSDOF 6
ENDMDL
MODEL 4
REMARK VINA RESULT:      -9.3      4.163     11.457
REMARK  Name = 
REMARK  6 active torsions:
REMARK  status: ('A' for Active; 'I' for Inactive)
REMARK    1  A    between atoms: C_2  and  C_19
REMARK    2  A    between atoms: N_3  and  C_4
REMARK    3  A    between atoms: C_11  and  C_13
REMARK    4  A    between atoms: C_23  and  N_24
REMARK    5  A    between atoms: N_24  and  C_25
REMARK    6  A    between atoms: C_25  and  C_26
REMARK                            x       y       z     vdW  Elec       q    Type
REMARK                         _______ _______ _______ _____ _____    ______ ____
ROOT
ATOM      1  O   UNL     1      -0.519  13.674  22.757  0.00  0.00    +0.000 OA
ATOM      2  C   UNL     1      -1.415  12.842  22.769  0.00  0.00    +0.000 C 
ATOM      3  N   UNL     1      -1.512  11.705  21.958  0.00  0.00    +0.000 N 
ATOM      4  H   UNL     1      -2.382  11.191  22.021  0.00  0.00    +0.000 HD
ENDROOT
BRANCH   3   5
ATOM      5  C   UNL     1      -0.612  11.235  20.976  0.00  0.00    +0.000 A 
ATOM      6  C   UNL     1      -0.283  11.946  19.828  0.00  0.00    +0.000 A 
ATOM      7  C   UNL     1       0.609  11.413  18.881  0.00  0.00    +0.000 A 
ATOM      8  C   UNL     1       1.163  10.127  19.066  0.00  0.00    +0.000 A 
ATOM      9  N   UNL     1       2.029   9.469  18.204  0.00  0.00    +0.000 NA
ATOM     10  C   UNL     1       2.264   8.258  18.646  0.00  0.00    +0.000 A 
ATOM     11  N   UNL     1       3.047   7.387  17.929  0.00  0.00    +0.000 N 
ATOM     12  C   UNL     1       3.148   6.025  18.103  0.00  0.00    +0.000 C 
ATOM     13  O   UNL     1       2.589   5.335  18.937  0.00  0.00    +0.000 OA
ATOM     14  S   UNL     1       1.588   7.874  20.162  0.00  0.00    +0.000 S 
ATOM     15  C   UNL     1       0.823   9.421  20.219  0.00  0.00    +0.000 A 
ATOM     16  C   UNL     1      -0.031   9.970  21.200  0.00  0.00    +0.000 A 
ATOM     17  H   UNL     1       3.461   7.809  17.113  0.00  0.00    +0.000 HD
BRANCH  12  18
ATOM     18  C   UNL     1       4.024   5.381  17.067  0.00  0.00    +0.000 C 
ATOM     19  C   UNL     1       5.336   6.011  16.650  0.00  0.00    +0.000 C 
ATOM     20  C   UNL     1       5.344   4.760  17.475  0.00  0.00    +0.000 C 
ENDBRANCH  12  18
ENDBRANCH   3   5
BRANCH   2  21
ATOM     21  C   UNL     1      -2.659  12.973  23.672  0.00  0.00    +0.000 C 
ATOM     22  C   UNL     1      -2.867  14.335  24.355  0.00  0.00    +0.000 C 
ATOM     23  C   UNL     1      -3.792  15.327  23.650  0.00  0.00    +0.000 C 
ATOM     24  C   UNL     1      -5.031  14.668  23.074  0.00  0.00    +0.000 C 
ATOM     25  C   UNL     1      -4.641  13.530  22.129  0.00  0.00    +0.000 C 
ATOM     26  C   UNL     1      -3.904  12.447  22.938  0.00  0.00    +0.000 C 
BRANCH  25  27
ATOM     27  N   UNL     1      -5.811  12.916  21.486  0.00  0.00    +0.000 NA
ATOM     28  H   UNL     1      -6.616  12.942  22.110  0.00  0.00    +0.000 HD
BRANCH  27  29
ATOM     29  C   UNL     1      -6.173  13.574  20.227  0.00  0.00    +0.000 C 
BRANCH  29  30
ATOM     30  C   UNL     1      -5.591  12.855  19.036  0.00  0.00    +0.000 A 
ATOM     31  C   UNL     1      -6.180  12.993  17.777  0.00  0.00    +0.000 A 
ATOM     32  C   UNL     1      -5.654  12.319  16.675  0.00  0.00    +0.000 A 
ATOM     33  C   UNL     1      -4.528  11.494  16.810  0.00  0.00    +0.000 A 
ATOM     34  C   UNL     1      -3.981  10.821  15.708  0.00  0.00    +0.000 A 
ATOM     35  C   UNL     1      -2.858  10.007  15.856  0.00  0.00    +0.000 A 
ATOM     36  C   UNL     1      -2.270   9.851  17.109  0.00  0.00    +0.000 A 
ATOM     37  C   UNL     1      -2.801  10.513  18.216  0.00  0.00    +0.000 A 
ATOM     38  C   UNL     1      -3.928  11.342  18.081  0.00  0.00    +0.000 A 
ATOM     39  C   UNL     1      -4.470  12.024  19.181  0.00  0.00    +0.000 A 
ENDBRANCH  29  30
ENDBRANCH  27  29
ENDBRANCH  25  27
ENDBRANCH   2  21
TORSDOF 6
ENDMDL
MODEL 5
REMARK VINA RESULT:      -9.1      4.717     11.385
REMARK  Name = 
REMARK  6 active torsions:
REMARK  status: ('A' for Active; 'I' for Inactive)
REMARK    1  A    between atoms: C_2  and  C_19
REMARK    2  A    between atoms: N_3  and  C_4
REMARK    3  A    between atoms: C_11  and  C_13
REMARK    4  A    between atoms: C_23  and  N_24
REMARK    5  A    between atoms: N_24  and  C_25
REMARK    6  A    between atoms: C_25  and  C_26
REMARK                            x       y       z     vdW  Elec       q    Type
REMARK                         _______ _______ _______ _____ _____    ______ ____
ROOT
ATOM      1  O   UNL     1      -0.336  13.235  23.150  0.00  0.00    +0.000 OA
ATOM      2  C   UNL     1      -1.439  13.123  22.635  0.00  0.00    +0.000 C 
ATOM      3  N   UNL     1      -1.736  12.484  21.425  0.00  0.00    +0.000 N 
ATOM      4  H   UNL     1      -2.686  12.590  21.091  0.00  0.00    +0.000 HD
ENDROOT
BRANCH   3   5
ATOM      5  C   UNL     1      -0.867  11.806  20.541  0.00  0.00    +0.000 A 
ATOM      6  C   UNL     1      -0.586  12.240  19.251  0.00  0.00    +0.000 A 
ATOM      7  C   UNL     1       0.277  11.508  18.416  0.00  0.00    +0.000 A 
ATOM      8  C   UNL     1       0.850  10.299  18.867  0.00  0.00    +0.000 A 
ATOM      9  N   UNL     1       1.693   9.465  18.144  0.00  0.00    +0.000 NA
ATOM     10  C   UNL     1       1.956   8.386  18.839  0.00  0.00    +0.000 A 
ATOM     11  N   UNL     1       2.722   7.377  18.309  0.00  0.00    +0.000 N 
ATOM     12  C   UNL     1       2.844   6.090  18.783  0.00  0.00    +0.000 C 
ATOM     13  O   UNL     1       2.323   5.606  19.772  0.00  0.00    +0.000 OA
ATOM     14  S   UNL     1       1.339   8.354  20.427  0.00  0.00    +0.000 S 
ATOM     15  C   UNL     1       0.560   9.872  20.161  0.00  0.00    +0.000 A 
ATOM     16  C   UNL     1      -0.264  10.626  21.024  0.00  0.00    +0.000 A 
ATOM     17  H   UNL     1       3.103   7.605  17.403  0.00  0.00    +0.000 HD
BRANCH  12  18
ATOM     18  C   UNL     1       3.690   5.231  17.887  0.00  0.00    +0.000 C 
ATOM     19  C   UNL     1       4.216   3.891  18.356  0.00  0.00    +0.000 C 
ATOM     20  C   UNL     1       3.128   3.942  17.326  0.00  0.00    +0.000 C 
ENDBRANCH  12  18
ENDBRANCH   3   5
BRANCH   2  21
ATOM     21  C   UNL     1      -2.708  13.761  23.238  0.00  0.00    +0.000 C 
ATOM     22  C   UNL     1      -3.002  15.213  22.829  0.00  0.00    +0.000 C 
ATOM     23  C   UNL     1      -3.963  15.419  21.657  0.00  0.00    +0.000 C 
ATOM     24  C   UNL     1      -5.152  14.479  21.700  0.00  0.00    +0.000 C 
ATOM     25  C   UNL     1      -4.682  13.024  21.761  0.00  0.00    +0.000 C 
ATOM     26  C   UNL     1      -3.907  12.811  23.074  0.00  0.00    +0.000 C 
BRANCH  25  27
ATOM     27  N   UNL     1      -5.804  12.076  21.723  0.00  0.00    +0.000 NA
ATOM     28  H   UNL     1      -6.374  12.163  22.562  0.00  0.00    +0.000 HD
BRANCH  27  29
ATOM     29  C   UNL     1      -6.664  12.267  20.551  0.00  0.00    +0.000 C 
BRANCH  29  30
ATOM     30  C   UNL     1      -5.912  12.033  19.265  0.00  0.00    +0.000 A 
ATOM     31  C   UNL     1      -6.252  12.748  18.114  0.00  0.00    +0.000 A 
ATOM     32  C   UNL     1      -5.569  12.524  16.918  0.00  0.00    +0.000 A 
ATOM     33  C   UNL     1      -4.532  11.583  16.850  0.00  0.00    +0.000 A 
ATOM     34  C   UNL     1      -3.829  11.359  15.658  0.00  0.00    +0.000 A 
ATOM     35  C   UNL     1      -2.796  10.422  15.606  0.00  0.00    +0.000 A 
ATOM     36  C   UNL     1      -2.456   9.694  16.744  0.00  0.00    +0.000 A 
ATOM     37  C   UNL     1      -3.146   9.905  17.938  0.00  0.00    +0.000 A 
ATOM     38  C   UNL     1      -4.184  10.850  18.007  0.00  0.00    +0.000 A 
ATOM     39  C   UNL     1      -4.882  11.083  19.202  0.00  0.00    +0.000 A 
ENDBRANCH  29  30
ENDBRANCH  27  29
ENDBRANCH  25  27
ENDBRANCH   2  21
TORSDOF 6
ENDMDL
MODEL 6
REMARK VINA RESULT:      -9.1      3.726      9.041
REMARK  Name = 
REMARK  6 active torsions:
REMARK  status: ('A' for Active; 'I' for Inactive)
REMARK    1  A    between atoms: C_2  and  C_19
REMARK    2  A    between atoms: N_3  and  C_4
REMARK    3  A    between atoms: C_11  and  C_13
REMARK    4  A    between atoms: C_23  and  N_24
REMARK    5  A    between atoms: N_24  and  C_25
REMARK    6  A    between atoms: C_25  and  C_26
REMARK                            x       y       z     vdW  Elec       q    Type
REMARK                         _______ _______ _______ _____ _____    ______ ____
ROOT
ATOM      1  O   UNL     1       7.826   6.479  18.242  0.00  0.00    +0.000 OA
ATOM      2  C   UNL     1       7.224   7.149  17.415  0.00  0.00    +0.000 C 
ATOM      3  N   UNL     1       7.318   8.534  17.231  0.00  0.00    +0.000 N 
ATOM      4  H   UNL     1       6.658   8.939  16.579  0.00  0.00    +0.000 HD
ENDROOT
BRANCH   3   5
ATOM      5  C   UNL     1       8.129   9.467  17.914  0.00  0.00    +0.000 A 
ATOM      6  C   UNL     1       8.866   9.161  19.052  0.00  0.00    +0.000 A 
ATOM      7  C   UNL     1       9.642  10.143  19.694  0.00  0.00    +0.000 A 
ATOM      8  C   UNL     1       9.660  11.468  19.209  0.00  0.00    +0.000 A 
ATOM      9  N   UNL     1      10.354  12.539  19.756  0.00  0.00    +0.000 NA
ATOM     10  C   UNL     1      10.065  13.638  19.105  0.00  0.00    +0.000 A 
ATOM     11  N   UNL     1      10.583  14.847  19.500  0.00  0.00    +0.000 N 
ATOM     12  C   UNL     1      10.159  16.099  19.114  0.00  0.00    +0.000 C 
ATOM     13  O   UNL     1       9.267  16.377  18.332  0.00  0.00    +0.000 OA
ATOM     14  S   UNL     1       9.070  13.452  17.735  0.00  0.00    +0.000 S 
ATOM     15  C   UNL     1       8.915  11.765  18.069  0.00  0.00    +0.000 A 
ATOM     16  C   UNL     1       8.174  10.775  17.389  0.00  0.00    +0.000 A 
ATOM     17  H   UNL     1      11.244  14.765  20.258  0.00  0.00    +0.000 HD
BRANCH  12  18
ATOM     18  C   UNL     1      10.895  17.195  19.829  0.00  0.00    +0.000 C 
ATOM     19  C   UNL     1      10.817  18.631  19.354  0.00  0.00    +0.000 C 
ATOM     20  C   UNL     1      10.123  18.231  20.621  0.00  0.00    +0.000 C 
ENDBRANCH  12  18
ENDBRANCH   3   5
BRANCH   2  21
ATOM     21  C   UNL     1       6.173   6.545  16.461  0.00  0.00    +0.000 C 
ATOM     22  C   UNL     1       6.320   5.048  16.142  0.00  0.00    +0.000 C 
ATOM     23  C   UNL     1       5.496   4.078  16.989  0.00  0.00    +0.000 C 
ATOM     24  C   UNL     1       4.086   4.575  17.248  0.00  0.00    +0.000 C 
ATOM     25  C   UNL     1       4.118   5.961  17.895  0.00  0.00    +0.000 C 
ATOM     26  C   UNL     1       4.757   6.952  16.905  0.00  0.00    +0.000 C 
BRANCH  25  27
ATOM     27  N   UNL     1       2.773   6.445  18.236  0.00  0.00    +0.000 NA
ATOM     28  H   UNL     1       2.063   5.803  17.889  0.00  0.00    +0.000 HD
BRANCH  27  29
ATOM     29  C   UNL     1       2.584   6.617  19.679  0.00  0.00    +0.000 C 
BRANCH  29  30
ATOM     30  C   UNL     1       1.775   7.850  19.992  0.00  0.00    +0.000 A 
ATOM     31  C   UNL     1       1.639   8.861  19.037  0.00  0.00    +0.000 A 
ATOM     32  C   UNL     1       0.904  10.010  19.327  0.00  0.00    +0.000 A 
ATOM     33  C   UNL     1       0.288  10.170  20.577  0.00  0.00    +0.000 A 
ATOM     34  C   UNL     1      -0.465  11.314  20.877  0.00  0.00    +0.000 A 
ATOM     35  C   UNL     1      -1.076  11.459  22.123  0.00  0.00    +0.000 A 
ATOM     36  C   UNL     1      -0.937  10.464  23.087  0.00  0.00    +0.000 A 
ATOM     37  C   UNL     1      -0.190   9.320  22.806  0.00  0.00    +0.000 A 
ATOM     38  C   UNL     1       0.424   9.157  21.553  0.00  0.00    +0.000 A 
ATOM     39  C   UNL     1       1.170   8.008  21.248  0.00  0.00    +0.000 A 
ENDBRANCH  29  30
ENDBRANCH  27  29
ENDBRANCH  25  27
ENDBRANCH   2  21
TORSDOF 6
ENDMDL
MODEL 7
REMARK VINA RESULT:      -9.0      4.128      5.756
REMARK  Name = 
REMARK  6 active torsions:
REMARK  status: ('A' for Active; 'I' for Inactive)
REMARK    1  A    between atoms: C_2  and  C_19
REMARK    2  A    between atoms: N_3  and  C_4
REMARK    3  A    between atoms: C_11  and  C_13
REMARK    4  A    between atoms: C_23  and  N_24
REMARK    5  A    between atoms: N_24  and  C_25
REMARK    6  A    between atoms: C_25  and  C_26
REMARK                            x       y       z     vdW  Elec       q    Type
REMARK                         _______ _______ _______ _____ _____    ______ ____
ROOT
ATOM      1  O   UNL     1       0.251   4.768  20.623  0.00  0.00    +0.000 OA
ATOM      2  C   UNL     1       1.456   4.695  20.430  0.00  0.00    +0.000 C 
ATOM      3  N   UNL     1       2.298   5.726  19.996  0.00  0.00    +0.000 N 
ATOM      4  H   UNL     1       3.248   5.457  19.774  0.00  0.00    +0.000 HD
ENDROOT
BRANCH   3   5
ATOM      5  C   UNL     1       1.978   7.073  19.712  0.00  0.00    +0.000 A 
ATOM      6  C   UNL     1       2.309   7.709  18.522  0.00  0.00    +0.000 A 
ATOM      7  C   UNL     1       1.976   9.059  18.309  0.00  0.00    +0.000 A 
ATOM      8  C   UNL     1       1.325   9.801  19.319  0.00  0.00    +0.000 A 
ATOM      9  N   UNL     1       0.964  11.140  19.257  0.00  0.00    +0.000 NA
ATOM     10  C   UNL     1       0.465  11.521  20.407  0.00  0.00    +0.000 A 
ATOM     11  N   UNL     1       0.091  12.826  20.613  0.00  0.00    +0.000 N 
ATOM     12  C   UNL     1      -0.168  13.435  21.820  0.00  0.00    +0.000 C 
ATOM     13  O   UNL     1      -0.143  12.934  22.930  0.00  0.00    +0.000 OA
ATOM     14  S   UNL     1       0.271  10.299  21.577  0.00  0.00    +0.000 S 
ATOM     15  C   UNL     1       1.001   9.154  20.510  0.00  0.00    +0.000 A 
ATOM     16  C   UNL     1       1.285   7.786  20.711  0.00  0.00    +0.000 A 
ATOM     17  H   UNL     1       0.165  13.394  19.783  0.00  0.00    +0.000 HD
BRANCH  12  18
ATOM     18  C   UNL     1      -0.451  14.902  21.669  0.00  0.00    +0.000 C 
ATOM     19  C   UNL     1      -0.481  15.822  22.872  0.00  0.00    +0.000 C 
ATOM     20  C   UNL     1       0.655  15.912  21.898  0.00  0.00    +0.000 C 
ENDBRANCH  12  18
ENDBRANCH   3   5
BRANCH   2  21
ATOM     21  C   UNL     1       2.243   3.376  20.574  0.00  0.00    +0.000 C 
ATOM     22  C   UNL     1       1.613   2.131  19.928  0.00  0.00    +0.000 C 
ATOM     23  C   UNL     1       2.086   1.771  18.519  0.00  0.00    +0.000 C 
ATOM     24  C   UNL     1       3.583   1.936  18.341  0.00  0.00    +0.000 C 
ATOM     25  C   UNL     1       4.011   3.359  18.705  0.00  0.00    +0.000 C 
ATOM     26  C   UNL     1       3.718   3.595  20.197  0.00  0.00    +0.000 C 
BRANCH  25  27
ATOM     27  N   UNL     1       5.444   3.585  18.469  0.00  0.00    +0.000 NA
ATOM     28  H   UNL     1       5.814   2.890  17.824  0.00  0.00    +0.000 HD
BRANCH  27  29
ATOM     29  C   UNL     1       5.723   4.920  17.931  0.00  0.00    +0.000 C 
BRANCH  29  30
ATOM     30  C   UNL     1       6.193   4.855  16.498  0.00  0.00    +0.000 A 
ATOM     31  C   UNL     1       7.346   5.540  16.107  0.00  0.00    +0.000 A 
ATOM     32  C   UNL     1       7.776   5.496  14.781  0.00  0.00    +0.000 A 
ATOM     33  C   UNL     1       7.064   4.762  13.821  0.00  0.00    +0.000 A 
ATOM     34  C   UNL     1       7.493   4.698  12.488  0.00  0.00    +0.000 A 
ATOM     35  C   UNL     1       6.776   3.963  11.543  0.00  0.00    +0.000 A 
ATOM     36  C   UNL     1       5.619   3.285  11.919  0.00  0.00    +0.000 A 
ATOM     37  C   UNL     1       5.178   3.339  13.242  0.00  0.00    +0.000 A 
ATOM     38  C   UNL     1       5.893   4.071  14.204  0.00  0.00    +0.000 A 
ATOM     39  C   UNL     1       5.470   4.128  15.542  0.00  0.00    +0.000 A 
ENDBRANCH  29  30
ENDBRANCH  27  29
ENDBRANCH  25  27
ENDBRANCH   2  21
TORSDOF 6
ENDMDL
MODEL 8
REMARK VINA RESULT:      -9.0      3.731      8.905
REMARK  Name = 
REMARK  6 active torsions:
REMARK  status: ('A' for Active; 'I' for Inactive)
REMARK    1  A    between atoms: C_2  and  C_19
REMARK    2  A    between atoms: N_3  and  C_4
REMARK    3  A    between atoms: C_11  and  C_13
REMARK    4  A    between atoms: C_23  and  N_24
REMARK    5  A    between atoms: N_24  and  C_25
REMARK    6  A    between atoms: C_25  and  C_26
REMARK                            x       y       z     vdW  Elec       q    Type
REMARK                         _______ _______ _______ _____ _____    ______ ____
ROOT
ATOM      1  O   UNL     1       8.056   6.850  18.877  0.00  0.00    +0.000 OA
ATOM      2  C   UNL     1       7.671   7.346  17.828  0.00  0.00    +0.000 C 
ATOM      3  N   UNL     1       7.797   8.686  17.440  0.00  0.00    +0.000 N 
ATOM      4  H   UNL     1       7.315   8.946  16.589  0.00  0.00    +0.000 HD
ENDROOT
BRANCH   3   5
ATOM      5  C   UNL     1       8.409   9.756  18.129  0.00  0.00    +0.000 A 
ATOM      6  C   UNL     1       9.147   9.600  19.296  0.00  0.00    +0.000 A 
ATOM      7  C   UNL     1       9.717  10.711  19.943  0.00  0.00    +0.000 A 
ATOM      8  C   UNL     1       9.521  12.012  19.432  0.00  0.00    +0.000 A 
ATOM      9  N   UNL     1       9.998  13.196  19.979  0.00  0.00    +0.000 NA
ATOM     10  C   UNL     1       9.546  14.218  19.296  0.00  0.00    +0.000 A 
ATOM     11  N   UNL     1       9.832  15.504  19.683  0.00  0.00    +0.000 N 
ATOM     12  C   UNL     1       9.211  16.657  19.257  0.00  0.00    +0.000 C 
ATOM     13  O   UNL     1       8.312  16.764  18.441  0.00  0.00    +0.000 OA
ATOM     14  S   UNL     1       8.649  13.841  17.898  0.00  0.00    +0.000 S 
ATOM     15  C   UNL     1       8.777  12.158  18.263  0.00  0.00    +0.000 A 
ATOM     16  C   UNL     1       8.245  11.044  17.579  0.00  0.00    +0.000 A 
ATOM     17  H   UNL     1      10.469  15.549  20.463  0.00  0.00    +0.000 HD
BRANCH  12  18
ATOM     18  C   UNL     1       9.718  17.875  19.973  0.00  0.00    +0.000 C 
ATOM     19  C   UNL     1      10.842  17.780  20.984  0.00  0.00    +0.000 C 
ATOM     20  C   UNL     1      11.094  18.421  19.652  0.00  0.00    +0.000 C 
ENDBRANCH  12  18
ENDBRANCH   3   5
BRANCH   2  21
ATOM     21  C   UNL     1       6.891   6.544  16.765  0.00  0.00    +0.000 C 
ATOM     22  C   UNL     1       7.209   5.043  16.674  0.00  0.00    +0.000 C 
ATOM     23  C   UNL     1       6.296   4.095  17.453  0.00  0.00    +0.000 C 
ATOM     24  C   UNL     1       4.832   4.479  17.358  0.00  0.00    +0.000 C 
ATOM     25  C   UNL     1       4.627   5.924  17.819  0.00  0.00    +0.000 C 
ATOM     26  C   UNL     1       5.388   6.859  16.862  0.00  0.00    +0.000 C 
BRANCH  25  27
ATOM     27  N   UNL     1       3.209   6.310  17.819  0.00  0.00    +0.000 NA
ATOM     28  H   UNL     1       2.742   5.955  18.651  0.00  0.00    +0.000 HD
BRANCH  27  29
ATOM     29  C   UNL     1       3.020   7.763  17.760  0.00  0.00    +0.000 C 
BRANCH  29  30
ATOM     30  C   UNL     1       2.179   8.262  18.908  0.00  0.00    +0.000 A 
ATOM     31  C   UNL     1       2.036   7.486  20.061  0.00  0.00    +0.000 A 
ATOM     32  C   UNL     1       1.247   7.937  21.120  0.00  0.00    +0.000 A 
ATOM     33  C   UNL     1       0.589   9.173  21.047  0.00  0.00    +0.000 A 
ATOM     34  C   UNL     1      -0.196   9.643  22.110  0.00  0.00    +0.000 A 
ATOM     35  C   UNL     1      -0.843  10.877  22.026  0.00  0.00    +0.000 A 
ATOM     36  C   UNL     1      -0.717  11.653  20.876  0.00  0.00    +0.000 A 
ATOM     37  C   UNL     1       0.059  11.199  19.810  0.00  0.00    +0.000 A 
ATOM     38  C   UNL     1       0.721   9.963  19.883  0.00  0.00    +0.000 A 
ATOM     39  C   UNL     1       1.516   9.495  18.825  0.00  0.00    +0.000 A 
ENDBRANCH  29  30
ENDBRANCH  27  29
ENDBRANCH  25  27
ENDBRANCH   2  21
TORSDOF 6
ENDMDL
MODEL 9
REMARK VINA RESULT:      -8.9      4.389      5.916
REMARK  Name = 
REMARK  6 active torsions:
REMARK  status: ('A' for Active; 'I' for Inactive)
REMARK    1  A    between atoms: C_2  and  C_19
REMARK    2  A    between atoms: N_3  and  C_4
REMARK    3  A    between atoms: C_11  and  C_13
REMARK    4  A    between atoms: C_23  and  N_24
REMARK    5  A    between atoms: N_24  and  C_25
REMARK    6  A    between atoms: C_25  and  C_26
REMARK                            x       y       z     vdW  Elec       q    Type
REMARK                         _______ _______ _______ _____ _____    ______ ____
ROOT
ATOM      1  O   UNL     1       0.391   5.775  20.821  0.00  0.00    +0.000 OA
ATOM      2  C   UNL     1       1.599   5.762  20.634  0.00  0.00    +0.000 C 
ATOM      3  N   UNL     1       2.367   6.779  20.053  0.00  0.00    +0.000 N 
ATOM      4  H   UNL     1       3.335   6.551  19.868  0.00  0.00    +0.000 HD
ENDROOT
BRANCH   3   5
ATOM      5  C   UNL     1       1.953   8.045  19.582  0.00  0.00    +0.000 A 
ATOM      6  C   UNL     1       2.241   8.527  18.311  0.00  0.00    +0.000 A 
ATOM      7  C   UNL     1       1.813   9.805  17.910  0.00  0.00    +0.000 A 
ATOM      8  C   UNL     1       1.106  10.635  18.807  0.00  0.00    +0.000 A 
ATOM      9  N   UNL     1       0.650  11.922  18.557  0.00  0.00    +0.000 NA
ATOM     10  C   UNL     1       0.121  12.427  19.644  0.00  0.00    +0.000 A 
ATOM     11  N   UNL     1      -0.347  13.718  19.664  0.00  0.00    +0.000 N 
ATOM     12  C   UNL     1      -0.653  14.474  20.773  0.00  0.00    +0.000 C 
ATOM     13  O   UNL     1      -0.596  14.140  21.943  0.00  0.00    +0.000 OA
ATOM     14  S   UNL     1       0.011  11.374  20.978  0.00  0.00    +0.000 S 
ATOM     15  C   UNL     1       0.825  10.143  20.081  0.00  0.00    +0.000 A 
ATOM     16  C   UNL     1       1.206   8.842  20.474  0.00  0.00    +0.000 A 
ATOM     17  H   UNL     1      -0.311  14.165  18.760  0.00  0.00    +0.000 HD
BRANCH  12  18
ATOM     18  C   UNL     1      -1.040  15.880  20.416  0.00  0.00    +0.000 C 
ATOM     19  C   UNL     1      -2.233  16.553  21.061  0.00  0.00    +0.000 C 
ATOM     20  C   UNL     1      -0.848  16.995  21.423  0.00  0.00    +0.000 C 
ENDBRANCH  12  18
ENDBRANCH   3   5
BRANCH   2  21
ATOM     21  C   UNL     1       2.479   4.538  20.961  0.00  0.00    +0.000 C 
ATOM     22  C   UNL     1       1.741   3.273  21.432  0.00  0.00    +0.000 C 
ATOM     23  C   UNL     1       1.414   2.228  20.366  0.00  0.00    +0.000 C 
ATOM     24  C   UNL     1       2.548   2.016  19.381  0.00  0.00    +0.000 C 
ATOM     25  C   UNL     1       2.946   3.343  18.730  0.00  0.00    +0.000 C 
ATOM     26  C   UNL     1       3.482   4.286  19.822  0.00  0.00    +0.000 C 
BRANCH  25  27
ATOM     27  N   UNL     1       3.988   3.170  17.710  0.00  0.00    +0.000 NA
ATOM     28  H   UNL     1       3.598   3.289  16.777  0.00  0.00    +0.000 HD
BRANCH  27  29
ATOM     29  C   UNL     1       5.101   4.109  17.876  0.00  0.00    +0.000 C 
BRANCH  29  30
ATOM     30  C   UNL     1       5.817   4.360  16.571  0.00  0.00    +0.000 A 
ATOM     31  C   UNL     1       6.920   5.216  16.530  0.00  0.00    +0.000 A 
ATOM     32  C   UNL     1       7.576   5.463  15.324  0.00  0.00    +0.000 A 
ATOM     33  C   UNL     1       7.142   4.857  14.136  0.00  0.00    +0.000 A 
ATOM     34  C   UNL     1       7.801   5.086  12.920  0.00  0.00    +0.000 A 
ATOM     35  C   UNL     1       7.361   4.474  11.745  0.00  0.00    +0.000 A 
ATOM     36  C   UNL     1       6.255   3.628  11.772  0.00  0.00    +0.000 A 
ATOM     37  C   UNL     1       5.588   3.390  12.974  0.00  0.00    +0.000 A 
ATOM     38  C   UNL     1       6.023   3.994  14.165  0.00  0.00    +0.000 A 
ATOM     39  C   UNL     1       5.372   3.758  15.385  0.00  0.00    +0.000 A 
ENDBRANCH  29  30
ENDBRANCH  27  29
ENDBRANCH  25  27
ENDBRANCH   2  21
TORSDOF 6
ENDMDL
