MODEL 1
REMARK VINA RESULT:      -7.8      0.000      0.000
REMARK  Name = 
REMARK  10 active torsions:
REMARK  status: ('A' for Active; 'I' for Inactive)
REMARK    1  A    between atoms: C_1  and  O_2
REMARK    2  A    between atoms: O_2  and  C_3
REMARK    3  A    between atoms: C_6  and  S_7
REMARK    4  A    between atoms: S_7  and  C_10
REMARK    5  A    between atoms: C_10  and  C_11
REMARK    6  A    between atoms: C_10  and  C_19
REMARK    7  A    between atoms: C_11  and  C_12
REMARK    8  A    between atoms: C_12  and  C_13
REMARK    9  A    between atoms: C_19  and  C_20
REMARK   10  A    between atoms: N_22  and  O_23
REMARK                            x       y       z     vdW  Elec       q    Type
REMARK                         _______ _______ _______ _____ _____    ______ ____
ROOT
ATOM      1  C   UNL     1       5.047   4.720  17.552  0.00  0.00    +0.000 C 
ENDROOT
BRANCH   1   2
ATOM      2  S   UNL     1       4.868   6.475  17.164  0.00  0.00    +0.000 S 
ATOM      3  O   UNL     1       4.614   6.577  15.736  0.00  0.00    +0.000 OA
ATOM      4  O   UNL     1       6.003   7.183  17.725  0.00  0.00    +0.000 OA
BRANCH   2   8
ATOM      5  C   UNL     1       1.560   8.437  19.626  0.00  0.00    +0.000 A 
ATOM      6  C   UNL     1       2.117   7.223  20.040  0.00  0.00    +0.000 A 
ATOM      7  C   UNL     1       3.063   6.563  19.246  0.00  0.00    +0.000 A 
ATOM      8  C   UNL     1       3.432   7.110  18.011  0.00  0.00    +0.000 A 
ATOM      9  C   UNL     1       2.847   8.301  17.572  0.00  0.00    +0.000 A 
ATOM     10  C   UNL     1       1.908   8.959  18.379  0.00  0.00    +0.000 A 
BRANCH   5  12
ATOM     11  C   UNL     1      -0.209   9.980  19.943  0.00  0.00    +0.000 C 
ATOM     12  O   UNL     1       0.676   9.011  20.499  0.00  0.00    +0.000 OA
ENDBRANCH   5  12
ENDBRANCH   2   8
ENDBRANCH   1   2
BRANCH   1  13
ATOM     13  C   UNL     1       4.046   3.854  16.758  0.00  0.00    +0.000 C 
BRANCH  13  14
ATOM     14  C   UNL     1       2.637   3.757  17.375  0.00  0.00    +0.000 C 
BRANCH  14  15
ATOM     15  C   UNL     1       2.294   2.390  18.008  0.00  0.00    +0.000 C 
ATOM     16  C   UNL     1       3.362   1.922  19.009  0.00  0.00    +0.000 C 
ATOM     17  C   UNL     1       3.396   2.792  20.265  0.00  0.00    +0.000 C 
ATOM     18  C   UNL     1       2.027   2.863  20.937  0.00  0.00    +0.000 C 
ATOM     19  C   UNL     1       0.918   3.276  19.973  0.00  0.00    +0.000 C 
ATOM     20  C   UNL     1       0.919   2.428  18.703  0.00  0.00    +0.000 C 
ENDBRANCH  14  15
ENDBRANCH  13  14
ENDBRANCH   1  13
BRANCH   1  21
ATOM     21  C   UNL     1       6.484   4.295  17.193  0.00  0.00    +0.000 C 
BRANCH  21  22
ATOM     22  C   UNL     1       6.799   4.418  15.725  0.00  0.00    +0.000 C 
ATOM     23  O   UNL     1       6.362   3.632  14.888  0.00  0.00    +0.000 OA
ATOM     24  N   UNL     1       7.559   5.522  15.406  0.00  0.00    +0.000 N 
ATOM     25  H   UNL     1       8.250   5.882  16.059  0.00  0.00    +0.000 HD
BRANCH  24  26
ATOM     26  O   UNL     1       7.915   5.618  14.039  0.00  0.00    +0.000 OA
ATOM     27  H   UNL     1       8.282   6.526  13.978  0.00  0.00    +0.000 HD
ENDBRANCH  24  26
ENDBRANCH  21  22
ENDBRANCH   1  21
TORSDOF 9
ENDMDL
MODEL 2
REMARK VINA RESULT:      -7.4      1.837      2.738
REMARK  Name = 
REMARK  10 active torsions:
REMARK  status: ('A' for Active; 'I' for Inactive)
REMARK    1  A    between atoms: C_1  and  O_2
REMARK    2  A    between atoms: O_2  and  C_3
REMARK    3  A    between atoms: C_6  and  S_7
REMARK    4  A    between atoms: S_7  and  C_10
REMARK    5  A    between atoms: C_10  and  C_11
REMARK    6  A    between atoms: C_10  and  C_19
REMARK    7  A    between atoms: C_11  and  C_12
REMARK    8  A    between atoms: C_12  and  C_13
REMARK    9  A    between atoms: C_19  and  C_20
REMARK   10  A    between atoms: N_22  and  O_23
REMARK                            x       y       z     vdW  Elec       q    Type
REMARK                         _______ _______ _______ _____ _____    ______ ____
ROOT
ATOM      1  C   UNL     1       5.104   5.642  18.610  0.00  0.00    +0.000 C 
ENDROOT
BRANCH   1   2
ATOM      2  S   UNL     1       3.780   6.271  17.556  0.00  0.00    +0.000 S 
ATOM      3  O   UNL     1       2.866   5.167  17.306  0.00  0.00    +0.000 OA
ATOM      4  O   UNL     1       4.382   6.950  16.425  0.00  0.00    +0.000 OA
BRANCH   2   8
ATOM      5  C   UNL     1       0.988   9.211  19.657  0.00  0.00    +0.000 A 
ATOM      6  C   UNL     1       1.487   9.505  18.385  0.00  0.00    +0.000 A 
ATOM      7  C   UNL     1       2.419   8.659  17.771  0.00  0.00    +0.000 A 
ATOM      8  C   UNL     1       2.876   7.523  18.450  0.00  0.00    +0.000 A 
ATOM      9  C   UNL     1       2.412   7.247  19.739  0.00  0.00    +0.000 A 
ATOM     10  C   UNL     1       1.473   8.094  20.341  0.00  0.00    +0.000 A 
BRANCH   5  12
ATOM     11  C   UNL     1      -0.911  10.553  19.202  0.00  0.00    +0.000 C 
ATOM     12  O   UNL     1       0.054  10.086  20.143  0.00  0.00    +0.000 OA
ENDBRANCH   5  12
ENDBRANCH   2   8
ENDBRANCH   1   2
BRANCH   1  13
ATOM     13  C   UNL     1       4.851   4.180  19.035  0.00  0.00    +0.000 C 
BRANCH  13  14
ATOM     14  C   UNL     1       3.826   4.001  20.172  0.00  0.00    +0.000 C 
BRANCH  14  15
ATOM     15  C   UNL     1       3.289   2.562  20.347  0.00  0.00    +0.000 C 
ATOM     16  C   UNL     1       1.919   2.527  21.043  0.00  0.00    +0.000 C 
ATOM     17  C   UNL     1       0.813   3.115  20.169  0.00  0.00    +0.000 C 
ATOM     18  C   UNL     1       0.742   2.421  18.810  0.00  0.00    +0.000 C 
ATOM     19  C   UNL     1       2.090   2.384  18.096  0.00  0.00    +0.000 C 
ATOM     20  C   UNL     1       3.197   1.834  18.992  0.00  0.00    +0.000 C 
ENDBRANCH  14  15
ENDBRANCH  13  14
ENDBRANCH   1  13
BRANCH   1  21
ATOM     21  C   UNL     1       6.424   5.720  17.819  0.00  0.00    +0.000 C 
BRANCH  21  22
ATOM     22  C   UNL     1       7.601   5.130  18.553  0.00  0.00    +0.000 C 
ATOM     23  O   UNL     1       8.338   4.287  18.048  0.00  0.00    +0.000 OA
ATOM     24  N   UNL     1       7.807   5.669  19.803  0.00  0.00    +0.000 N 
ATOM     25  H   UNL     1       7.024   5.988  20.368  0.00  0.00    +0.000 HD
BRANCH  24  26
ATOM     26  O   UNL     1       8.872   5.082  20.530  0.00  0.00    +0.000 OA
ATOM     27  H   UNL     1       9.652   5.584  20.209  0.00  0.00    +0.000 HD
ENDBRANCH  24  26
ENDBRANCH  21  22
ENDBRANCH   1  21
TORSDOF 9
ENDMDL
MODEL 3
REMARK VINA RESULT:      -7.3      1.054      1.243
REMARK  Name = 
REMARK  10 active torsions:
REMARK  status: ('A' for Active; 'I' for Inactive)
REMARK    1  A    between atoms: C_1  and  O_2
REMARK    2  A    between atoms: O_2  and  C_3
REMARK    3  A    between atoms: C_6  and  S_7
REMARK    4  A    between atoms: S_7  and  C_10
REMARK    5  A    between atoms: C_10  and  C_11
REMARK    6  A    between atoms: C_10  and  C_19
REMARK    7  A    between atoms: C_11  and  C_12
REMARK    8  A    between atoms: C_12  and  C_13
REMARK    9  A    between atoms: C_19  and  C_20
REMARK   10  A    between atoms: N_22  and  O_23
REMARK                            x       y       z     vdW  Elec       q    Type
REMARK                         _______ _______ _______ _____ _____    ______ ____
ROOT
ATOM      1  C   UNL     1       5.584   4.314  17.255  0.00  0.00    +0.000 C 
ENDROOT
BRANCH   1   2
ATOM      2  S   UNL     1       5.723   5.788  18.289  0.00  0.00    +0.000 S 
ATOM      3  O   UNL     1       6.623   6.707  17.611  0.00  0.00    +0.000 OA
ATOM      4  O   UNL     1       6.042   5.368  19.640  0.00  0.00    +0.000 OA
BRANCH   2   8
ATOM      5  C   UNL     1       1.904   8.231  18.831  0.00  0.00    +0.000 A 
ATOM      6  C   UNL     1       2.226   7.222  19.742  0.00  0.00    +0.000 A 
ATOM      7  C   UNL     1       3.342   6.402  19.535  0.00  0.00    +0.000 A 
ATOM      8  C   UNL     1       4.126   6.577  18.389  0.00  0.00    +0.000 A 
ATOM      9  C   UNL     1       3.785   7.556  17.452  0.00  0.00    +0.000 A 
ATOM     10  C   UNL     1       2.671   8.378  17.673  0.00  0.00    +0.000 A 
BRANCH   5  12
ATOM     11  C   UNL     1       1.037  10.403  19.213  0.00  0.00    +0.000 C 
ATOM     12  O   UNL     1       0.815   8.996  19.154  0.00  0.00    +0.000 OA
ENDBRANCH   5  12
ENDBRANCH   2   8
ENDBRANCH   1   2
BRANCH   1  13
ATOM     13  C   UNL     1       4.664   3.252  17.893  0.00  0.00    +0.000 C 
BRANCH  13  14
ATOM     14  C   UNL     1       3.162   3.431  17.599  0.00  0.00    +0.000 C 
BRANCH  14  15
ATOM     15  C   UNL     1       2.248   2.325  18.173  0.00  0.00    +0.000 C 
ATOM     16  C   UNL     1       2.863   1.634  19.401  0.00  0.00    +0.000 C 
ATOM     17  C   UNL     1       2.938   2.565  20.610  0.00  0.00    +0.000 C 
ATOM     18  C   UNL     1       1.571   3.151  20.953  0.00  0.00    +0.000 C 
ATOM     19  C   UNL     1       0.893   3.808  19.755  0.00  0.00    +0.000 C 
ATOM     20  C   UNL     1       0.860   2.884  18.539  0.00  0.00    +0.000 C 
ENDBRANCH  14  15
ENDBRANCH  13  14
ENDBRANCH   1  13
BRANCH   1  21
ATOM     21  C   UNL     1       5.002   4.739  15.893  0.00  0.00    +0.000 C 
BRANCH  21  22
ATOM     22  C   UNL     1       6.006   4.697  14.770  0.00  0.00    +0.000 C 
ATOM     23  O   UNL     1       5.840   4.016  13.761  0.00  0.00    +0.000 OA
ATOM     24  N   UNL     1       7.083   5.535  14.952  0.00  0.00    +0.000 N 
ATOM     25  H   UNL     1       7.441   5.728  15.884  0.00  0.00    +0.000 HD
BRANCH  24  26
ATOM     26  O   UNL     1       8.066   5.461  13.935  0.00  0.00    +0.000 OA
ATOM     27  H   UNL     1       7.627   4.908  13.253  0.00  0.00    +0.000 HD
ENDBRANCH  24  26
ENDBRANCH  21  22
ENDBRANCH   1  21
TORSDOF 9
ENDMDL
MODEL 4
REMARK VINA RESULT:      -7.3      3.288      5.071
REMARK  Name = 
REMARK  10 active torsions:
REMARK  status: ('A' for Active; 'I' for Inactive)
REMARK    1  A    between atoms: C_1  and  O_2
REMARK    2  A    between atoms: O_2  and  C_3
REMARK    3  A    between atoms: C_6  and  S_7
REMARK    4  A    between atoms: S_7  and  C_10
REMARK    5  A    between atoms: C_10  and  C_11
REMARK    6  A    between atoms: C_10  and  C_19
REMARK    7  A    between atoms: C_11  and  C_12
REMARK    8  A    between atoms: C_12  and  C_13
REMARK    9  A    between atoms: C_19  and  C_20
REMARK   10  A    between atoms: N_22  and  O_23
REMARK                            x       y       z     vdW  Elec       q    Type
REMARK                         _______ _______ _______ _____ _____    ______ ____
ROOT
ATOM      1  C   UNL     1       3.675   2.988  18.281  0.00  0.00    +0.000 C 
ENDROOT
BRANCH   1   2
ATOM      2  S   UNL     1       2.012   3.689  18.356  0.00  0.00    +0.000 S 
ATOM      3  O   UNL     1       1.211   2.810  19.193  0.00  0.00    +0.000 OA
ATOM      4  O   UNL     1       1.570   3.957  17.001  0.00  0.00    +0.000 OA
BRANCH   2   8
ATOM      5  C   UNL     1       1.665   7.826  20.257  0.00  0.00    +0.000 A 
ATOM      6  C   UNL     1       2.197   7.687  18.972  0.00  0.00    +0.000 A 
ATOM      7  C   UNL     1       2.398   6.418  18.416  0.00  0.00    +0.000 A 
ATOM      8  C   UNL     1       2.091   5.277  19.166  0.00  0.00    +0.000 A 
ATOM      9  C   UNL     1       1.598   5.408  20.467  0.00  0.00    +0.000 A 
ATOM     10  C   UNL     1       1.392   6.683  21.011  0.00  0.00    +0.000 A 
BRANCH   5  12
ATOM     11  C   UNL     1       0.362   9.799  20.117  0.00  0.00    +0.000 C 
ATOM     12  O   UNL     1       1.476   9.113  20.683  0.00  0.00    +0.000 OA
ENDBRANCH   5  12
ENDBRANCH   2   8
ENDBRANCH   1   2
BRANCH   1  13
ATOM     13  C   UNL     1       4.435   3.452  17.022  0.00  0.00    +0.000 C 
BRANCH  13  14
ATOM     14  C   UNL     1       5.098   4.838  17.135  0.00  0.00    +0.000 C 
BRANCH  14  15
ATOM     15  C   UNL     1       6.565   4.903  16.653  0.00  0.00    +0.000 C 
ATOM     16  C   UNL     1       6.949   6.294  16.126  0.00  0.00    +0.000 C 
ATOM     17  C   UNL     1       6.992   7.341  17.238  0.00  0.00    +0.000 C 
ATOM     18  C   UNL     1       7.927   6.920  18.369  0.00  0.00    +0.000 C 
ATOM     19  C   UNL     1       7.621   5.522  18.898  0.00  0.00    +0.000 C 
ATOM     20  C   UNL     1       7.538   4.491  17.774  0.00  0.00    +0.000 C 
ENDBRANCH  14  15
ENDBRANCH  13  14
ENDBRANCH   1  13
BRANCH   1  21
ATOM     21  C   UNL     1       4.443   3.444  19.537  0.00  0.00    +0.000 C 
BRANCH  21  22
ATOM     22  C   UNL     1       4.405   2.443  20.662  0.00  0.00    +0.000 C 
ATOM     23  O   UNL     1       3.464   2.372  21.450  0.00  0.00    +0.000 OA
ATOM     24  N   UNL     1       5.480   1.583  20.684  0.00  0.00    +0.000 N 
ATOM     25  H   UNL     1       6.397   1.890  20.371  0.00  0.00    +0.000 HD
BRANCH  24  26
ATOM     26  O   UNL     1       5.488   0.677  21.772  0.00  0.00    +0.000 OA
ATOM     27  H   UNL     1       4.547   0.405  21.831  0.00  0.00    +0.000 HD
ENDBRANCH  24  26
ENDBRANCH  21  22
ENDBRANCH   1  21
TORSDOF 9
ENDMDL
MODEL 5
REMARK VINA RESULT:      -7.3      1.666      2.466
REMARK  Name = 
REMARK  10 active torsions:
REMARK  status: ('A' for Active; 'I' for Inactive)
REMARK    1  A    between atoms: C_1  and  O_2
REMARK    2  A    between atoms: O_2  and  C_3
REMARK    3  A    between atoms: C_6  and  S_7
REMARK    4  A    between atoms: S_7  and  C_10
REMARK    5  A    between atoms: C_10  and  C_11
REMARK    6  A    between atoms: C_10  and  C_19
REMARK    7  A    between atoms: C_11  and  C_12
REMARK    8  A    between atoms: C_12  and  C_13
REMARK    9  A    between atoms: C_19  and  C_20
REMARK   10  A    between atoms: N_22  and  O_23
REMARK                            x       y       z     vdW  Elec       q    Type
REMARK                         _______ _______ _______ _____ _____    ______ ____
ROOT
ATOM      1  C   UNL     1       5.313   4.941  18.676  0.00  0.00    +0.000 C 
ENDROOT
BRANCH   1   2
ATOM      2  S   UNL     1       4.424   5.857  17.399  0.00  0.00    +0.000 S 
ATOM      3  O   UNL     1       3.782   4.878  16.534  0.00  0.00    +0.000 OA
ATOM      4  O   UNL     1       5.336   6.818  16.809  0.00  0.00    +0.000 OA
BRANCH   2   8
ATOM      5  C   UNL     1       1.549   8.639  19.599  0.00  0.00    +0.000 A 
ATOM      6  C   UNL     1       1.947   7.434  20.187  0.00  0.00    +0.000 A 
ATOM      7  C   UNL     1       2.751   6.529  19.484  0.00  0.00    +0.000 A 
ATOM      8  C   UNL     1       3.134   6.819  18.170  0.00  0.00    +0.000 A 
ATOM      9  C   UNL     1       2.704   8.002  17.562  0.00  0.00    +0.000 A 
ATOM     10  C   UNL     1       1.908   8.906  18.277  0.00  0.00    +0.000 A 
BRANCH   5  12
ATOM     11  C   UNL     1       0.949   9.283  21.799  0.00  0.00    +0.000 C 
ATOM     12  O   UNL     1       0.798   9.464  20.393  0.00  0.00    +0.000 OA
ENDBRANCH   5  12
ENDBRANCH   2   8
ENDBRANCH   1   2
BRANCH   1  13
ATOM     13  C   UNL     1       4.781   3.501  18.824  0.00  0.00    +0.000 C 
BRANCH  13  14
ATOM     14  C   UNL     1       4.272   3.136  20.232  0.00  0.00    +0.000 C 
BRANCH  14  15
ATOM     15  C   UNL     1       3.142   2.083  20.266  0.00  0.00    +0.000 C 
ATOM     16  C   UNL     1       2.106   2.368  21.365  0.00  0.00    +0.000 C 
ATOM     17  C   UNL     1       1.286   3.623  21.074  0.00  0.00    +0.000 C 
ATOM     18  C   UNL     1       0.610   3.548  19.708  0.00  0.00    +0.000 C 
ATOM     19  C   UNL     1       1.587   3.218  18.583  0.00  0.00    +0.000 C 
ATOM     20  C   UNL     1       2.430   1.985  18.903  0.00  0.00    +0.000 C 
ENDBRANCH  14  15
ENDBRANCH  13  14
ENDBRANCH   1  13
BRANCH   1  21
ATOM     21  C   UNL     1       6.803   4.895  18.283  0.00  0.00    +0.000 C 
BRANCH  21  22
ATOM     22  C   UNL     1       7.665   5.837  19.083  0.00  0.00    +0.000 C 
ATOM     23  O   UNL     1       8.048   5.575  20.221  0.00  0.00    +0.000 OA
ATOM     24  N   UNL     1       8.034   6.974  18.401  0.00  0.00    +0.000 N 
ATOM     25  H   UNL     1       7.414   7.390  17.711  0.00  0.00    +0.000 HD
BRANCH  24  26
ATOM     26  O   UNL     1       8.794   7.897  19.160  0.00  0.00    +0.000 OA
ATOM     27  H   UNL     1       8.405   7.807  20.057  0.00  0.00    +0.000 HD
ENDBRANCH  24  26
ENDBRANCH  21  22
ENDBRANCH   1  21
TORSDOF 9
ENDMDL
MODEL 6
REMARK VINA RESULT:      -7.3      1.220      1.658
REMARK  Name = 
REMARK  10 active torsions:
REMARK  status: ('A' for Active; 'I' for Inactive)
REMARK    1  A    between atoms: C_1  and  O_2
REMARK    2  A    between atoms: O_2  and  C_3
REMARK    3  A    between atoms: C_6  and  S_7
REMARK    4  A    between atoms: S_7  and  C_10
REMARK    5  A    between atoms: C_10  and  C_11
REMARK    6  A    between atoms: C_10  and  C_19
REMARK    7  A    between atoms: C_11  and  C_12
REMARK    8  A    between atoms: C_12  and  C_13
REMARK    9  A    between atoms: C_19  and  C_20
REMARK   10  A    between atoms: N_22  and  O_23
REMARK                            x       y       z     vdW  Elec       q    Type
REMARK                         _______ _______ _______ _____ _____    ______ ____
ROOT
ATOM      1  C   UNL     1       5.470   5.581  18.823  0.00  0.00    +0.000 C 
ENDROOT
BRANCH   1   2
ATOM      2  S   UNL     1       4.548   6.455  17.541  0.00  0.00    +0.000 S 
ATOM      3  O   UNL     1       4.077   5.458  16.592  0.00  0.00    +0.000 OA
ATOM      4  O   UNL     1       5.367   7.549  17.055  0.00  0.00    +0.000 OA
BRANCH   2   8
ATOM      5  C   UNL     1       1.242   8.753  19.697  0.00  0.00    +0.000 A 
ATOM      6  C   UNL     1       1.751   7.573  20.249  0.00  0.00    +0.000 A 
ATOM      7  C   UNL     1       2.696   6.809  19.552  0.00  0.00    +0.000 A 
ATOM      8  C   UNL     1       3.111   7.215  18.279  0.00  0.00    +0.000 A 
ATOM      9  C   UNL     1       2.574   8.370  17.704  0.00  0.00    +0.000 A 
ATOM     10  C   UNL     1       1.637   9.133  18.413  0.00  0.00    +0.000 A 
BRANCH   5  12
ATOM     11  C   UNL     1       0.654  10.814  20.704  0.00  0.00    +0.000 C 
ATOM     12  O   UNL     1       0.355   9.438  20.482  0.00  0.00    +0.000 OA
ENDBRANCH   5  12
ENDBRANCH   2   8
ENDBRANCH   1   2
BRANCH   1  13
ATOM     13  C   UNL     1       5.204   4.062  18.785  0.00  0.00    +0.000 C 
BRANCH  13  14
ATOM     14  C   UNL     1       4.172   3.556  19.812  0.00  0.00    +0.000 C 
BRANCH  14  15
ATOM     15  C   UNL     1       3.318   2.357  19.344  0.00  0.00    +0.000 C 
ATOM     16  C   UNL     1       2.270   1.939  20.388  0.00  0.00    +0.000 C 
ATOM     17  C   UNL     1       1.175   2.991  20.559  0.00  0.00    +0.000 C 
ATOM     18  C   UNL     1       0.503   3.324  19.229  0.00  0.00    +0.000 C 
ATOM     19  C   UNL     1       1.504   3.699  18.140  0.00  0.00    +0.000 C 
ATOM     20  C   UNL     1       2.617   2.661  18.006  0.00  0.00    +0.000 C 
ENDBRANCH  14  15
ENDBRANCH  13  14
ENDBRANCH   1  13
BRANCH   1  21
ATOM     21  C   UNL     1       6.972   5.840  18.593  0.00  0.00    +0.000 C 
BRANCH  21  22
ATOM     22  C   UNL     1       7.543   5.072  17.429  0.00  0.00    +0.000 C 
ATOM     23  O   UNL     1       8.201   4.045  17.574  0.00  0.00    +0.000 OA
ATOM     24  N   UNL     1       7.204   5.589  16.198  0.00  0.00    +0.000 N 
ATOM     25  H   UNL     1       7.075   6.590  16.073  0.00  0.00    +0.000 HD
BRANCH  24  26
ATOM     26  O   UNL     1       7.784   4.915  15.095  0.00  0.00    +0.000 OA
ATOM     27  H   UNL     1       7.832   5.622  14.415  0.00  0.00    +0.000 HD
ENDBRANCH  24  26
ENDBRANCH  21  22
ENDBRANCH   1  21
TORSDOF 9
ENDMDL
MODEL 7
REMARK VINA RESULT:      -7.3      2.712      5.485
REMARK  Name = 
REMARK  10 active torsions:
REMARK  status: ('A' for Active; 'I' for Inactive)
REMARK    1  A    between atoms: C_1  and  O_2
REMARK    2  A    between atoms: O_2  and  C_3
REMARK    3  A    between atoms: C_6  and  S_7
REMARK    4  A    between atoms: S_7  and  C_10
REMARK    5  A    between atoms: C_10  and  C_11
REMARK    6  A    between atoms: C_10  and  C_19
REMARK    7  A    between atoms: C_11  and  C_12
REMARK    8  A    between atoms: C_12  and  C_13
REMARK    9  A    between atoms: C_19  and  C_20
REMARK   10  A    between atoms: N_22  and  O_23
REMARK                            x       y       z     vdW  Elec       q    Type
REMARK                         _______ _______ _______ _____ _____    ______ ____
ROOT
ATOM      1  C   UNL     1       4.964   5.611  17.851  0.00  0.00    +0.000 C 
ENDROOT
BRANCH   1   2
ATOM      2  S   UNL     1       5.578   6.478  16.391  0.00  0.00    +0.000 S 
ATOM      3  O   UNL     1       6.797   7.170  16.780  0.00  0.00    +0.000 OA
ATOM      4  O   UNL     1       4.487   7.250  15.827  0.00  0.00    +0.000 OA
BRANCH   2   8
ATOM      5  C   UNL     1       6.542   3.800  12.820  0.00  0.00    +0.000 A 
ATOM      6  C   UNL     1       5.297   3.710  13.449  0.00  0.00    +0.000 A 
ATOM      7  C   UNL     1       5.023   4.455  14.602  0.00  0.00    +0.000 A 
ATOM      8  C   UNL     1       6.017   5.276  15.147  0.00  0.00    +0.000 A 
ATOM      9  C   UNL     1       7.278   5.339  14.547  0.00  0.00    +0.000 A 
ATOM     10  C   UNL     1       7.538   4.596  13.388  0.00  0.00    +0.000 A 
BRANCH   5  12
ATOM     11  C   UNL     1       5.705   2.042  11.471  0.00  0.00    +0.000 C 
ATOM     12  O   UNL     1       6.684   3.057  11.679  0.00  0.00    +0.000 OA
ENDBRANCH   5  12
ENDBRANCH   2   8
ENDBRANCH   1   2
BRANCH   1  13
ATOM     13  C   UNL     1       3.470   5.250  17.716  0.00  0.00    +0.000 C 
BRANCH  13  14
ATOM     14  C   UNL     1       3.118   3.793  18.076  0.00  0.00    +0.000 C 
BRANCH  14  15
ATOM     15  C   UNL     1       1.719   3.595  18.700  0.00  0.00    +0.000 C 
ATOM     16  C   UNL     1       1.604   2.273  19.477  0.00  0.00    +0.000 C 
ATOM     17  C   UNL     1       2.459   2.272  20.743  0.00  0.00    +0.000 C 
ATOM     18  C   UNL     1       2.125   3.455  21.648  0.00  0.00    +0.000 C 
ATOM     19  C   UNL     1       2.175   4.792  20.913  0.00  0.00    +0.000 C 
ATOM     20  C   UNL     1       1.351   4.769  19.627  0.00  0.00    +0.000 C 
ENDBRANCH  14  15
ENDBRANCH  13  14
ENDBRANCH   1  13
BRANCH   1  21
ATOM     21  C   UNL     1       5.787   4.319  18.021  0.00  0.00    +0.000 C 
BRANCH  21  22
ATOM     22  C   UNL     1       7.206   4.564  18.465  0.00  0.00    +0.000 C 
ATOM     23  O   UNL     1       8.176   4.185  17.813  0.00  0.00    +0.000 OA
ATOM     24  N   UNL     1       7.311   5.303  19.622  0.00  0.00    +0.000 N 
ATOM     25  H   UNL     1       6.606   5.230  20.351  0.00  0.00    +0.000 HD
BRANCH  24  26
ATOM     26  O   UNL     1       8.637   5.489  20.085  0.00  0.00    +0.000 OA
ATOM     27  H   UNL     1       9.140   5.601  19.250  0.00  0.00    +0.000 HD
ENDBRANCH  24  26
ENDBRANCH  21  22
ENDBRANCH   1  21
TORSDOF 9
ENDMDL
MODEL 8
REMARK VINA RESULT:      -7.1      1.660      2.397
REMARK  Name = 
REMARK  10 active torsions:
REMARK  status: ('A' for Active; 'I' for Inactive)
REMARK    1  A    between atoms: C_1  and  O_2
REMARK    2  A    between atoms: O_2  and  C_3
REMARK    3  A    between atoms: C_6  and  S_7
REMARK    4  A    between atoms: S_7  and  C_10
REMARK    5  A    between atoms: C_10  and  C_11
REMARK    6  A    between atoms: C_10  and  C_19
REMARK    7  A    between atoms: C_11  and  C_12
REMARK    8  A    between atoms: C_12  and  C_13
REMARK    9  A    between atoms: C_19  and  C_20
REMARK   10  A    between atoms: N_22  and  O_23
REMARK                            x       y       z     vdW  Elec       q    Type
REMARK                         _______ _______ _______ _____ _____    ______ ____
ROOT
ATOM      1  C   UNL     1       5.516   5.497  18.348  0.00  0.00    +0.000 C 
ENDROOT
BRANCH   1   2
ATOM      2  S   UNL     1       4.194   5.973  17.214  0.00  0.00    +0.000 S 
ATOM      3  O   UNL     1       3.556   4.748  16.758  0.00  0.00    +0.000 OA
ATOM      4  O   UNL     1       4.745   6.882  16.228  0.00  0.00    +0.000 OA
BRANCH   2   8
ATOM      5  C   UNL     1       1.512   8.667  19.743  0.00  0.00    +0.000 A 
ATOM      6  C   UNL     1       1.901   7.413  20.225  0.00  0.00    +0.000 A 
ATOM      7  C   UNL     1       2.643   6.539  19.421  0.00  0.00    +0.000 A 
ATOM      8  C   UNL     1       2.972   6.912  18.113  0.00  0.00    +0.000 A 
ATOM      9  C   UNL     1       2.550   8.146  17.612  0.00  0.00    +0.000 A 
ATOM     10  C   UNL     1       1.816   9.019  18.427  0.00  0.00    +0.000 A 
BRANCH   5  12
ATOM     11  C   UNL     1       0.735  10.836  20.294  0.00  0.00    +0.000 C 
ATOM     12  O   UNL     1       0.825   9.453  20.629  0.00  0.00    +0.000 OA
ENDBRANCH   5  12
ENDBRANCH   2   8
ENDBRANCH   1   2
BRANCH   1  13
ATOM     13  C   UNL     1       5.312   4.070  18.900  0.00  0.00    +0.000 C 
BRANCH  13  14
ATOM     14  C   UNL     1       4.330   3.965  20.083  0.00  0.00    +0.000 C 
BRANCH  14  15
ATOM     15  C   UNL     1       3.668   2.580  20.261  0.00  0.00    +0.000 C 
ATOM     16  C   UNL     1       2.673   2.551  21.431  0.00  0.00    +0.000 C 
ATOM     17  C   UNL     1       1.433   3.400  21.156  0.00  0.00    +0.000 C 
ATOM     18  C   UNL     1       0.746   2.985  19.857  0.00  0.00    +0.000 C 
ATOM     19  C   UNL     1       1.702   2.949  18.669  0.00  0.00    +0.000 C 
ATOM     20  C   UNL     1       2.957   2.132  18.970  0.00  0.00    +0.000 C 
ENDBRANCH  14  15
ENDBRANCH  13  14
ENDBRANCH   1  13
BRANCH   1  21
ATOM     21  C   UNL     1       6.851   5.558  17.580  0.00  0.00    +0.000 C 
BRANCH  21  22
ATOM     22  C   UNL     1       7.592   6.858  17.766  0.00  0.00    +0.000 C 
ATOM     23  O   UNL     1       7.607   7.737  16.908  0.00  0.00    +0.000 OA
ATOM     24  N   UNL     1       8.188   6.990  19.000  0.00  0.00    +0.000 N 
ATOM     25  H   UNL     1       8.551   6.178  19.492  0.00  0.00    +0.000 HD
BRANCH  24  26
ATOM     26  O   UNL     1       8.940   8.179  19.167  0.00  0.00    +0.000 OA
ATOM     27  H   UNL     1       9.397   8.024  20.022  0.00  0.00    +0.000 HD
ENDBRANCH  24  26
ENDBRANCH  21  22
ENDBRANCH   1  21
TORSDOF 9
ENDMDL
MODEL 9
REMARK VINA RESULT:      -7.1      1.250      1.365
REMARK  Name = 
REMARK  10 active torsions:
REMARK  status: ('A' for Active; 'I' for Inactive)
REMARK    1  A    between atoms: C_1  and  O_2
REMARK    2  A    between atoms: O_2  and  C_3
REMARK    3  A    between atoms: C_6  and  S_7
REMARK    4  A    between atoms: S_7  and  C_10
REMARK    5  A    between atoms: C_10  and  C_11
REMARK    6  A    between atoms: C_10  and  C_19
REMARK    7  A    between atoms: C_11  and  C_12
REMARK    8  A    between atoms: C_12  and  C_13
REMARK    9  A    between atoms: C_19  and  C_20
REMARK   10  A    between atoms: N_22  and  O_23
REMARK                            x       y       z     vdW  Elec       q    Type
REMARK                         _______ _______ _______ _____ _____    ______ ____
ROOT
ATOM      1  C   UNL     1       4.343   4.486  17.277  0.00  0.00    +0.000 C 
ENDROOT
BRANCH   1   2
ATOM      2  S   UNL     1       4.782   6.093  17.974  0.00  0.00    +0.000 S 
ATOM      3  O   UNL     1       5.401   6.869  16.912  0.00  0.00    +0.000 OA
ATOM      4  O   UNL     1       5.523   5.871  19.200  0.00  0.00    +0.000 OA
BRANCH   2   8
ATOM      5  C   UNL     1       1.304   8.665  19.437  0.00  0.00    +0.000 A 
ATOM      6  C   UNL     1       1.776   7.610  20.224  0.00  0.00    +0.000 A 
ATOM      7  C   UNL     1       2.777   6.755  19.746  0.00  0.00    +0.000 A 
ATOM      8  C   UNL     1       3.287   6.940  18.457  0.00  0.00    +0.000 A 
ATOM      9  C   UNL     1       2.789   7.966  17.649  0.00  0.00    +0.000 A 
ATOM     10  C   UNL     1       1.795   8.823  18.140  0.00  0.00    +0.000 A 
BRANCH   5  12
ATOM     11  C   UNL     1      -0.273  10.411  19.165  0.00  0.00    +0.000 C 
ATOM     12  O   UNL     1       0.354   9.459  20.021  0.00  0.00    +0.000 OA
ENDBRANCH   5  12
ENDBRANCH   2   8
ENDBRANCH   1   2
BRANCH   1  13
ATOM     13  C   UNL     1       2.846   4.409  16.913  0.00  0.00    +0.000 C 
BRANCH  13  14
ATOM     14  C   UNL     1       1.896   4.191  18.107  0.00  0.00    +0.000 C 
BRANCH  14  15
ATOM     15  C   UNL     1       1.729   2.720  18.547  0.00  0.00    +0.000 C 
ATOM     16  C   UNL     1       3.045   2.102  19.045  0.00  0.00    +0.000 C 
ATOM     17  C   UNL     1       3.511   2.719  20.362  0.00  0.00    +0.000 C 
ATOM     18  C   UNL     1       2.434   2.622  21.440  0.00  0.00    +0.000 C 
ATOM     19  C   UNL     1       1.089   3.178  20.980  0.00  0.00    +0.000 C 
ATOM     20  C   UNL     1       0.653   2.585  19.642  0.00  0.00    +0.000 C 
ENDBRANCH  14  15
ENDBRANCH  13  14
ENDBRANCH   1  13
BRANCH   1  21
ATOM     21  C   UNL     1       5.187   4.269  16.006  0.00  0.00    +0.000 C 
BRANCH  21  22
ATOM     22  C   UNL     1       6.673   4.333  16.253  0.00  0.00    +0.000 C 
ATOM     23  O   UNL     1       7.469   4.698  15.391  0.00  0.00    +0.000 OA
ATOM     24  N   UNL     1       7.041   4.011  17.540  0.00  0.00    +0.000 N 
ATOM     25  H   UNL     1       6.513   3.327  18.075  0.00  0.00    +0.000 HD
BRANCH  24  26
ATOM     26  O   UNL     1       8.438   4.007  17.771  0.00  0.00    +0.000 OA
ATOM     27  H   UNL     1       8.792   3.649  16.928  0.00  0.00    +0.000 HD
ENDBRANCH  24  26
ENDBRANCH  21  22
ENDBRANCH   1  21
TORSDOF 9
ENDMDL
