MODEL 1
REMARK VINA RESULT:      -7.1      0.000      0.000
REMARK  Name = 
REMARK  1 active torsions:
REMARK  status: ('A' for Active; 'I' for Inactive)
REMARK    1  A    between atoms: C_5  and  C_6
REMARK                            x       y       z     vdW  Elec       q    Type
REMARK                         _______ _______ _______ _____ _____    ______ ____
ROOT
ATOM      1  C   UNL     1       5.112   5.031  15.935  0.00  0.00    +0.000 A 
ATOM      2  C   UNL     1       5.003   6.332  16.375  0.00  0.00    +0.000 A 
ATOM      3  S   UNL     1       4.028   6.399  17.771  0.00  0.00    +0.000 S 
ATOM      4  C   UNL     1       3.813   4.676  17.714  0.00  0.00    +0.000 A 
ATOM      5  N   UNL     1       3.100   4.024  18.669  0.00  0.00    +0.000 N 
ATOM      6  C   UNL     1       3.409   2.634  19.002  0.00  0.00    +0.000 C 
ATOM      7  C   UNL     1       3.572   2.491  20.524  0.00  0.00    +0.000 C 
ATOM      8  S   UNL     1       2.075   2.989  21.458  0.00  0.00    +0.000 S 
ATOM      9  C   UNL     1       1.809   4.621  20.674  0.00  0.00    +0.000 C 
ATOM     10  C   UNL     1       1.811   4.527  19.147  0.00  0.00    +0.000 C 
ATOM     11  N   UNL     1       4.456   4.093  16.724  0.00  0.00    +0.000 NA
ENDROOT
BRANCH   1  16
ATOM     12  F   UNL     1       7.672   3.747  11.129  0.00  0.00    +0.000 F 
ATOM     13  C   UNL     1       7.077   4.032  12.295  0.00  0.00    +0.000 A 
ATOM     14  C   UNL     1       7.698   4.897  13.185  0.00  0.00    +0.000 A 
ATOM     15  C   UNL     1       7.071   5.208  14.395  0.00  0.00    +0.000 A 
ATOM     16  C   UNL     1       5.818   4.657  14.713  0.00  0.00    +0.000 A 
ATOM     17  C   UNL     1       5.218   3.768  13.807  0.00  0.00    +0.000 A 
ATOM     18  C   UNL     1       5.847   3.461  12.596  0.00  0.00    +0.000 A 
ENDBRANCH   1  16
TORSDOF 1
ENDMDL
MODEL 2
REMARK VINA RESULT:      -7.1      1.141      1.182
REMARK  Name = 
REMARK  1 active torsions:
REMARK  status: ('A' for Active; 'I' for Inactive)
REMARK    1  A    between atoms: C_5  and  C_6
REMARK                            x       y       z     vdW  Elec       q    Type
REMARK                         _______ _______ _______ _____ _____    ______ ____
ROOT
ATOM      1  C   UNL     1       5.856   4.481  16.396  0.00  0.00    +0.000 A 
ATOM      2  C   UNL     1       6.655   4.910  17.433  0.00  0.00    +0.000 A 
ATOM      3  S   UNL     1       5.761   4.951  18.883  0.00  0.00    +0.000 S 
ATOM      4  C   UNL     1       4.352   4.382  18.041  0.00  0.00    +0.000 A 
ATOM      5  N   UNL     1       3.189   4.137  18.698  0.00  0.00    +0.000 N 
ATOM      6  C   UNL     1       2.256   3.127  18.200  0.00  0.00    +0.000 C 
ATOM      7  C   UNL     1       1.873   2.169  19.339  0.00  0.00    +0.000 C 
ATOM      8  S   UNL     1       1.095   3.021  20.765  0.00  0.00    +0.000 S 
ATOM      9  C   UNL     1       2.347   4.334  20.999  0.00  0.00    +0.000 C 
ATOM     10  C   UNL     1       2.655   5.068  19.693  0.00  0.00    +0.000 C 
ATOM     11  N   UNL     1       4.556   4.153  16.760  0.00  0.00    +0.000 NA
ENDROOT
BRANCH   1  16
ATOM     12  F   UNL     1       7.421   4.375  11.025  0.00  0.00    +0.000 F 
ATOM     13  C   UNL     1       7.069   4.379  12.317  0.00  0.00    +0.000 A 
ATOM     14  C   UNL     1       7.774   5.169  13.215  0.00  0.00    +0.000 A 
ATOM     15  C   UNL     1       7.398   5.187  14.561  0.00  0.00    +0.000 A 
ATOM     16  C   UNL     1       6.312   4.416  15.010  0.00  0.00    +0.000 A 
ATOM     17  C   UNL     1       5.628   3.607  14.089  0.00  0.00    +0.000 A 
ATOM     18  C   UNL     1       6.004   3.594  12.742  0.00  0.00    +0.000 A 
ENDBRANCH   1  16
TORSDOF 1
ENDMDL
MODEL 3
REMARK VINA RESULT:      -7.0      1.132      1.635
REMARK  Name = 
REMARK  1 active torsions:
REMARK  status: ('A' for Active; 'I' for Inactive)
REMARK    1  A    between atoms: C_5  and  C_6
REMARK                            x       y       z     vdW  Elec       q    Type
REMARK                         _______ _______ _______ _____ _____    ______ ____
ROOT
ATOM      1  C   UNL     1       5.756   4.466  16.342  0.00  0.00    +0.000 A 
ATOM      2  C   UNL     1       6.603   4.838  17.364  0.00  0.00    +0.000 A 
ATOM      3  S   UNL     1       5.762   4.857  18.845  0.00  0.00    +0.000 S 
ATOM      4  C   UNL     1       4.308   4.356  18.036  0.00  0.00    +0.000 A 
ATOM      5  N   UNL     1       3.162   4.123  18.727  0.00  0.00    +0.000 N 
ATOM      6  C   UNL     1       2.183   3.157  18.232  0.00  0.00    +0.000 C 
ATOM      7  C   UNL     1       1.812   2.173  19.353  0.00  0.00    +0.000 C 
ATOM      8  S   UNL     1       1.110   3.001  20.831  0.00  0.00    +0.000 S 
ATOM      9  C   UNL     1       2.407   4.270  21.062  0.00  0.00    +0.000 C 
ATOM     10  C   UNL     1       2.691   5.036  19.769  0.00  0.00    +0.000 C 
ATOM     11  N   UNL     1       4.460   4.163  16.742  0.00  0.00    +0.000 NA
ENDROOT
BRANCH   1  16
ATOM     12  F   UNL     1       7.492   4.192  11.030  0.00  0.00    +0.000 F 
ATOM     13  C   UNL     1       7.055   4.279  12.293  0.00  0.00    +0.000 A 
ATOM     14  C   UNL     1       5.939   3.551  12.682  0.00  0.00    +0.000 A 
ATOM     15  C   UNL     1       5.490   3.628  14.003  0.00  0.00    +0.000 A 
ATOM     16  C   UNL     1       6.162   4.432  14.939  0.00  0.00    +0.000 A 
ATOM     17  C   UNL     1       7.275   5.177  14.520  0.00  0.00    +0.000 A 
ATOM     18  C   UNL     1       7.724   5.095  13.197  0.00  0.00    +0.000 A 
ENDBRANCH   1  16
TORSDOF 1
ENDMDL
MODEL 4
REMARK VINA RESULT:      -7.0      0.122      1.146
REMARK  Name = 
REMARK  1 active torsions:
REMARK  status: ('A' for Active; 'I' for Inactive)
REMARK    1  A    between atoms: C_5  and  C_6
REMARK                            x       y       z     vdW  Elec       q    Type
REMARK                         _______ _______ _______ _____ _____    ______ ____
ROOT
ATOM      1  C   UNL     1       5.101   5.087  15.872  0.00  0.00    +0.000 A 
ATOM      2  C   UNL     1       5.064   6.380  16.349  0.00  0.00    +0.000 A 
ATOM      3  S   UNL     1       4.147   6.450  17.783  0.00  0.00    +0.000 S 
ATOM      4  C   UNL     1       3.856   4.739  17.691  0.00  0.00    +0.000 A 
ATOM      5  N   UNL     1       3.153   4.091  18.655  0.00  0.00    +0.000 N 
ATOM      6  C   UNL     1       3.415   2.681  18.941  0.00  0.00    +0.000 C 
ATOM      7  C   UNL     1       3.631   2.490  20.451  0.00  0.00    +0.000 C 
ATOM      8  S   UNL     1       2.192   3.025  21.455  0.00  0.00    +0.000 S 
ATOM      9  C   UNL     1       1.966   4.687  20.724  0.00  0.00    +0.000 C 
ATOM     10  C   UNL     1       1.906   4.634  19.196  0.00  0.00    +0.000 C 
ATOM     11  N   UNL     1       4.436   4.157  16.662  0.00  0.00    +0.000 NA
ENDROOT
BRANCH   1  16
ATOM     12  F   UNL     1       7.705   3.521  11.174  0.00  0.00    +0.000 F 
ATOM     13  C   UNL     1       7.066   3.918  12.282  0.00  0.00    +0.000 A 
ATOM     14  C   UNL     1       5.796   3.425  12.552  0.00  0.00    +0.000 A 
ATOM     15  C   UNL     1       5.134   3.825  13.715  0.00  0.00    +0.000 A 
ATOM     16  C   UNL     1       5.744   4.718  14.613  0.00  0.00    +0.000 A 
ATOM     17  C   UNL     1       7.018   5.221  14.310  0.00  0.00    +0.000 A 
ATOM     18  C   UNL     1       7.680   4.816  13.146  0.00  0.00    +0.000 A 
ENDBRANCH   1  16
TORSDOF 1
ENDMDL
MODEL 5
REMARK VINA RESULT:      -6.7      5.999      8.922
REMARK  Name = 
REMARK  1 active torsions:
REMARK  status: ('A' for Active; 'I' for Inactive)
REMARK    1  A    between atoms: C_5  and  C_6
REMARK                            x       y       z     vdW  Elec       q    Type
REMARK                         _______ _______ _______ _____ _____    ______ ____
ROOT
ATOM      1  C   UNL     1       1.209   8.704  20.197  0.00  0.00    +0.000 A 
ATOM      2  C   UNL     1       1.548   9.029  18.901  0.00  0.00    +0.000 A 
ATOM      3  S   UNL     1       2.497   7.792  18.216  0.00  0.00    +0.000 S 
ATOM      4  C   UNL     1       2.394   6.882  19.693  0.00  0.00    +0.000 A 
ATOM      5  N   UNL     1       2.961   5.653  19.804  0.00  0.00    +0.000 N 
ATOM      6  C   UNL     1       2.398   4.658  20.715  0.00  0.00    +0.000 C 
ATOM      7  C   UNL     1       2.188   3.331  19.968  0.00  0.00    +0.000 C 
ATOM      8  S   UNL     1       3.737   2.652  19.260  0.00  0.00    +0.000 S 
ATOM      9  C   UNL     1       4.309   4.159  18.392  0.00  0.00    +0.000 C 
ATOM     10  C   UNL     1       4.313   5.380  19.313  0.00  0.00    +0.000 C 
ATOM     11  N   UNL     1       1.670   7.465  20.625  0.00  0.00    +0.000 NA
ENDROOT
BRANCH   1  16
ATOM     12  F   UNL     1      -1.845  12.081  23.448  0.00  0.00    +0.000 F 
ATOM     13  C   UNL     1      -1.087  11.284  22.685  0.00  0.00    +0.000 A 
ATOM     14  C   UNL     1      -0.676  10.054  23.179  0.00  0.00    +0.000 A 
ATOM     15  C   UNL     1       0.101   9.213  22.379  0.00  0.00    +0.000 A 
ATOM     16  C   UNL     1       0.464   9.600  21.077  0.00  0.00    +0.000 A 
ATOM     17  C   UNL     1       0.055  10.857  20.605  0.00  0.00    +0.000 A 
ATOM     18  C   UNL     1      -0.725  11.696  21.408  0.00  0.00    +0.000 A 
ENDBRANCH   1  16
TORSDOF 1
ENDMDL
MODEL 6
REMARK VINA RESULT:      -6.7      5.977      8.860
REMARK  Name = 
REMARK  1 active torsions:
REMARK  status: ('A' for Active; 'I' for Inactive)
REMARK    1  A    between atoms: C_5  and  C_6
REMARK                            x       y       z     vdW  Elec       q    Type
REMARK                         _______ _______ _______ _____ _____    ______ ____
ROOT
ATOM      1  C   UNL     1       1.208   8.680  20.125  0.00  0.00    +0.000 A 
ATOM      2  C   UNL     1       1.580   8.995  18.836  0.00  0.00    +0.000 A 
ATOM      3  S   UNL     1       2.555   7.758  18.188  0.00  0.00    +0.000 S 
ATOM      4  C   UNL     1       2.417   6.861  19.669  0.00  0.00    +0.000 A 
ATOM      5  N   UNL     1       2.988   5.636  19.807  0.00  0.00    +0.000 N 
ATOM      6  C   UNL     1       2.406   4.646  20.712  0.00  0.00    +0.000 C 
ATOM      7  C   UNL     1       2.225   3.311  19.972  0.00  0.00    +0.000 C 
ATOM      8  S   UNL     1       3.796   2.636  19.311  0.00  0.00    +0.000 S 
ATOM      9  C   UNL     1       4.383   4.138  18.446  0.00  0.00    +0.000 C 
ATOM     10  C   UNL     1       4.354   5.367  19.356  0.00  0.00    +0.000 C 
ATOM     11  N   UNL     1       1.665   7.448  20.577  0.00  0.00    +0.000 NA
ENDROOT
BRANCH   1  16
ATOM     12  F   UNL     1      -1.555  12.169  23.516  0.00  0.00    +0.000 F 
ATOM     13  C   UNL     1      -0.921  11.326  22.690  0.00  0.00    +0.000 A 
ATOM     14  C   UNL     1      -0.551  11.760  21.424  0.00  0.00    +0.000 A 
ATOM     15  C   UNL     1       0.124  10.888  20.566  0.00  0.00    +0.000 A 
ATOM     16  C   UNL     1       0.435   9.580  20.976  0.00  0.00    +0.000 A 
ATOM     17  C   UNL     1       0.032   9.155  22.252  0.00  0.00    +0.000 A 
ATOM     18  C   UNL     1      -0.642  10.031  23.110  0.00  0.00    +0.000 A 
ENDBRANCH   1  16
TORSDOF 1
ENDMDL
MODEL 7
REMARK VINA RESULT:      -6.5      3.710      5.158
REMARK  Name = 
REMARK  1 active torsions:
REMARK  status: ('A' for Active; 'I' for Inactive)
REMARK    1  A    between atoms: C_5  and  C_6
REMARK                            x       y       z     vdW  Elec       q    Type
REMARK                         _______ _______ _______ _____ _____    ______ ____
ROOT
ATOM      1  C   UNL     1       2.944   6.044  18.688  0.00  0.00    +0.000 A 
ATOM      2  C   UNL     1       2.488   5.130  19.614  0.00  0.00    +0.000 A 
ATOM      3  S   UNL     1       1.609   5.925  20.837  0.00  0.00    +0.000 S 
ATOM      4  C   UNL     1       1.879   7.451  20.054  0.00  0.00    +0.000 A 
ATOM      5  N   UNL     1       1.350   8.601  20.547  0.00  0.00    +0.000 N 
ATOM      6  C   UNL     1       1.027   9.711  19.652  0.00  0.00    +0.000 C 
ATOM      7  C   UNL     1      -0.414  10.181  19.908  0.00  0.00    +0.000 C 
ATOM      8  S   UNL     1      -0.694  10.731  21.635  0.00  0.00    +0.000 S 
ATOM      9  C   UNL     1       0.003   9.272  22.491  0.00  0.00    +0.000 C 
ATOM     10  C   UNL     1       1.400   8.922  21.974  0.00  0.00    +0.000 C 
ATOM     11  N   UNL     1       2.564   7.358  18.932  0.00  0.00    +0.000 NA
ENDROOT
BRANCH   1  16
ATOM     12  F   UNL     1       6.411   4.692  14.510  0.00  0.00    +0.000 F 
ATOM     13  C   UNL     1       5.556   5.014  15.490  0.00  0.00    +0.000 A 
ATOM     14  C   UNL     1       4.895   4.005  16.177  0.00  0.00    +0.000 A 
ATOM     15  C   UNL     1       4.015   4.337  17.210  0.00  0.00    +0.000 A 
ATOM     16  C   UNL     1       3.799   5.681  17.561  0.00  0.00    +0.000 A 
ATOM     17  C   UNL     1       4.462   6.685  16.839  0.00  0.00    +0.000 A 
ATOM     18  C   UNL     1       5.344   6.350  15.806  0.00  0.00    +0.000 A 
ENDBRANCH   1  16
TORSDOF 1
ENDMDL
MODEL 8
REMARK VINA RESULT:      -6.5      3.718      5.076
REMARK  Name = 
REMARK  1 active torsions:
REMARK  status: ('A' for Active; 'I' for Inactive)
REMARK    1  A    between atoms: C_5  and  C_6
REMARK                            x       y       z     vdW  Elec       q    Type
REMARK                         _______ _______ _______ _____ _____    ______ ____
ROOT
ATOM      1  C   UNL     1       3.002   6.080  18.719  0.00  0.00    +0.000 A 
ATOM      2  C   UNL     1       2.522   5.159  19.625  0.00  0.00    +0.000 A 
ATOM      3  S   UNL     1       1.607   5.943  20.829  0.00  0.00    +0.000 S 
ATOM      4  C   UNL     1       1.896   7.476  20.064  0.00  0.00    +0.000 A 
ATOM      5  N   UNL     1       1.351   8.621  20.550  0.00  0.00    +0.000 N 
ATOM      6  C   UNL     1       1.051   9.736  19.654  0.00  0.00    +0.000 C 
ATOM      7  C   UNL     1      -0.397  10.202  19.873  0.00  0.00    +0.000 C 
ATOM      8  S   UNL     1      -0.728  10.739  21.595  0.00  0.00    +0.000 S 
ATOM      9  C   UNL     1      -0.052   9.275  22.460  0.00  0.00    +0.000 C 
ATOM     10  C   UNL     1       1.360   8.931  21.981  0.00  0.00    +0.000 C 
ATOM     11  N   UNL     1       2.613   7.392  18.962  0.00  0.00    +0.000 NA
ENDROOT
BRANCH   1  16
ATOM     12  F   UNL     1       6.205   4.679  14.351  0.00  0.00    +0.000 F 
ATOM     13  C   UNL     1       5.465   5.017  15.415  0.00  0.00    +0.000 A 
ATOM     14  C   UNL     1       5.291   6.358  15.727  0.00  0.00    +0.000 A 
ATOM     15  C   UNL     1       4.506   6.714  16.826  0.00  0.00    +0.000 A 
ATOM     16  C   UNL     1       3.889   5.727  17.614  0.00  0.00    +0.000 A 
ATOM     17  C   UNL     1       4.096   4.376  17.293  0.00  0.00    +0.000 A 
ATOM     18  C   UNL     1       4.880   4.023  16.189  0.00  0.00    +0.000 A 
ENDBRANCH   1  16
TORSDOF 1
ENDMDL
MODEL 9
REMARK VINA RESULT:      -6.3      4.148      5.445
REMARK  Name = 
REMARK  1 active torsions:
REMARK  status: ('A' for Active; 'I' for Inactive)
REMARK    1  A    between atoms: C_5  and  C_6
REMARK                            x       y       z     vdW  Elec       q    Type
REMARK                         _______ _______ _______ _____ _____    ______ ____
ROOT
ATOM      1  C   UNL     1       2.973   6.543  18.545  0.00  0.00    +0.000 A 
ATOM      2  C   UNL     1       2.648   5.988  19.764  0.00  0.00    +0.000 A 
ATOM      3  S   UNL     1       1.676   7.065  20.658  0.00  0.00    +0.000 S 
ATOM      4  C   UNL     1       1.738   8.214  19.357  0.00  0.00    +0.000 A 
ATOM      5  N   UNL     1       1.063   9.391  19.424  0.00  0.00    +0.000 N 
ATOM      6  C   UNL     1       0.590  10.044  18.205  0.00  0.00    +0.000 C 
ATOM      7  C   UNL     1      -0.900  10.396  18.349  0.00  0.00    +0.000 C 
ATOM      8  S   UNL     1      -1.241  11.507  19.768  0.00  0.00    +0.000 S 
ATOM      9  C   UNL     1      -0.351  10.563  21.059  0.00  0.00    +0.000 C 
ATOM     10  C   UNL     1       1.077  10.220  20.631  0.00  0.00    +0.000 C 
ATOM     11  N   UNL     1       2.422   7.797  18.312  0.00  0.00    +0.000 NA
ENDROOT
BRANCH   1  16
ATOM     12  F   UNL     1       6.186   4.011  14.729  0.00  0.00    +0.000 F 
ATOM     13  C   UNL     1       5.443   4.620  15.661  0.00  0.00    +0.000 A 
ATOM     14  C   UNL     1       5.400   6.008  15.701  0.00  0.00    +0.000 A 
ATOM     15  C   UNL     1       4.613   6.646  16.663  0.00  0.00    +0.000 A 
ATOM     16  C   UNL     1       3.862   5.896  17.584  0.00  0.00    +0.000 A 
ATOM     17  C   UNL     1       3.936   4.495  17.539  0.00  0.00    +0.000 A 
ATOM     18  C   UNL     1       4.724   3.858  16.574  0.00  0.00    +0.000 A 
ENDBRANCH   1  16
TORSDOF 1
ENDMDL
