MODEL 1
REMARK VINA RESULT:      -6.2      0.000      0.000
REMARK  Name = 
REMARK  3 active torsions:
REMARK  status: ('A' for Active; 'I' for Inactive)
REMARK    1  A    between atoms: C_1  and  S_2
REMARK    2  A    between atoms: S_2  and  C_3
REMARK    3  A    between atoms: C_9  and  C_10
REMARK                            x       y       z     vdW  Elec       q    Type
REMARK                         _______ _______ _______ _____ _____    ______ ____
ROOT
ATOM      1  C   UNL     1       4.496   4.969  16.931  0.00  0.00    +0.000 A 
ATOM      2  N   UNL     1       4.194   5.713  17.939  0.00  0.00    +0.000 NA
ATOM      3  C   UNL     1       3.152   5.299  18.763  0.00  0.00    +0.000 A 
ATOM      4  C   UNL     1       2.786   6.130  19.825  0.00  0.00    +0.000 A 
ATOM      5  C   UNL     1       1.732   5.782  20.663  0.00  0.00    +0.000 A 
ATOM      6  C   UNL     1       1.052   4.585  20.458  0.00  0.00    +0.000 A 
ATOM      7  C   UNL     1       1.417   3.719  19.411  0.00  0.00    +0.000 A 
ATOM      8  C   UNL     1       0.667   2.425  19.260  0.00  0.00    +0.000 C 
ATOM      9  C   UNL     1       2.471   4.104  18.552  0.00  0.00    +0.000 A 
ATOM     10  C   UNL     1       2.912   3.305  17.387  0.00  0.00    +0.000 A 
ATOM     11  O   UNL     1       2.398   2.228  17.114  0.00  0.00    +0.000 OA
ATOM     12  O   UNL     1       3.901   3.802  16.609  0.00  0.00    +0.000 OA
ENDROOT
BRANCH   1  14
ATOM     13  C   UNL     1       7.182   4.625  16.566  0.00  0.00    +0.000 C 
ATOM     14  S   UNL     1       5.771   5.485  15.841  0.00  0.00    +0.000 S 
ENDBRANCH   1  14
TORSDOF 1
ENDMDL
MODEL 2
REMARK VINA RESULT:      -6.1      1.057      1.080
REMARK  Name = 
REMARK  3 active torsions:
REMARK  status: ('A' for Active; 'I' for Inactive)
REMARK    1  A    between atoms: C_1  and  S_2
REMARK    2  A    between atoms: S_2  and  C_3
REMARK    3  A    between atoms: C_9  and  C_10
REMARK                            x       y       z     vdW  Elec       q    Type
REMARK                         _______ _______ _______ _____ _____    ______ ____
ROOT
ATOM      1  C   UNL     1       4.553   4.079  16.987  0.00  0.00    +0.000 A 
ATOM      2  N   UNL     1       4.247   5.214  17.514  0.00  0.00    +0.000 NA
ATOM      3  C   UNL     1       3.340   5.216  18.569  0.00  0.00    +0.000 A 
ATOM      4  C   UNL     1       2.964   6.449  19.107  0.00  0.00    +0.000 A 
ATOM      5  C   UNL     1       2.037   6.515  20.143  0.00  0.00    +0.000 A 
ATOM      6  C   UNL     1       1.498   5.341  20.664  0.00  0.00    +0.000 A 
ATOM      7  C   UNL     1       1.880   4.087  20.156  0.00  0.00    +0.000 A 
ATOM      8  C   UNL     1       1.288   2.854  20.781  0.00  0.00    +0.000 C 
ATOM      9  C   UNL     1       2.799   4.041  19.083  0.00  0.00    +0.000 A 
ATOM     10  C   UNL     1       3.237   2.788  18.431  0.00  0.00    +0.000 A 
ATOM     11  O   UNL     1       2.842   1.693  18.810  0.00  0.00    +0.000 OA
ATOM     12  O   UNL     1       4.085   2.877  17.381  0.00  0.00    +0.000 OA
ENDROOT
BRANCH   1  14
ATOM     13  C   UNL     1       7.174   4.606  16.417  0.00  0.00    +0.000 C 
ATOM     14  S   UNL     1       5.656   4.042  15.621  0.00  0.00    +0.000 S 
ENDBRANCH   1  14
TORSDOF 1
ENDMDL
MODEL 3
REMARK VINA RESULT:      -6.1      1.966      1.978
REMARK  Name = 
REMARK  3 active torsions:
REMARK  status: ('A' for Active; 'I' for Inactive)
REMARK    1  A    between atoms: C_1  and  S_2
REMARK    2  A    between atoms: S_2  and  C_3
REMARK    3  A    between atoms: C_9  and  C_10
REMARK                            x       y       z     vdW  Elec       q    Type
REMARK                         _______ _______ _______ _____ _____    ______ ____
ROOT
ATOM      1  C   UNL     1       5.762   4.635  18.305  0.00  0.00    +0.000 A 
ATOM      2  N   UNL     1       4.989   5.654  18.459  0.00  0.00    +0.000 NA
ATOM      3  C   UNL     1       3.850   5.493  19.241  0.00  0.00    +0.000 A 
ATOM      4  C   UNL     1       2.981   6.580  19.365  0.00  0.00    +0.000 A 
ATOM      5  C   UNL     1       1.812   6.468  20.110  0.00  0.00    +0.000 A 
ATOM      6  C   UNL     1       1.515   5.270  20.755  0.00  0.00    +0.000 A 
ATOM      7  C   UNL     1       2.386   4.170  20.666  0.00  0.00    +0.000 A 
ATOM      8  C   UNL     1       2.028   2.914  21.412  0.00  0.00    +0.000 C 
ATOM      9  C   UNL     1       3.554   4.293  19.881  0.00  0.00    +0.000 A 
ATOM     10  C   UNL     1       4.519   3.191  19.668  0.00  0.00    +0.000 A 
ATOM     11  O   UNL     1       4.372   2.096  20.195  0.00  0.00    +0.000 OA
ATOM     12  O   UNL     1       5.576   3.417  18.855  0.00  0.00    +0.000 OA
ENDROOT
BRANCH   1  14
ATOM     13  C   UNL     1       6.493   4.279  15.696  0.00  0.00    +0.000 C 
ATOM     14  S   UNL     1       7.182   4.786  17.284  0.00  0.00    +0.000 S 
ENDBRANCH   1  14
TORSDOF 1
ENDMDL
MODEL 4
REMARK VINA RESULT:      -6.0      1.704      2.765
REMARK  Name = 
REMARK  3 active torsions:
REMARK  status: ('A' for Active; 'I' for Inactive)
REMARK    1  A    between atoms: C_1  and  S_2
REMARK    2  A    between atoms: S_2  and  C_3
REMARK    3  A    between atoms: C_9  and  C_10
REMARK                            x       y       z     vdW  Elec       q    Type
REMARK                         _______ _______ _______ _____ _____    ______ ____
ROOT
ATOM      1  C   UNL     1       4.676   5.044  16.732  0.00  0.00    +0.000 A 
ATOM      2  N   UNL     1       4.193   3.849  16.739  0.00  0.00    +0.000 NA
ATOM      3  C   UNL     1       3.236   3.541  17.701  0.00  0.00    +0.000 A 
ATOM      4  C   UNL     1       2.751   2.232  17.746  0.00  0.00    +0.000 A 
ATOM      5  C   UNL     1       1.816   1.858  18.706  0.00  0.00    +0.000 A 
ATOM      6  C   UNL     1       1.343   2.802  19.615  0.00  0.00    +0.000 A 
ATOM      7  C   UNL     1       1.798   4.131  19.574  0.00  0.00    +0.000 A 
ATOM      8  C   UNL     1       1.226   5.112  20.560  0.00  0.00    +0.000 C 
ATOM      9  C   UNL     1       2.770   4.485  18.611  0.00  0.00    +0.000 A 
ATOM     10  C   UNL     1       3.363   5.837  18.502  0.00  0.00    +0.000 A 
ATOM     11  O   UNL     1       3.017   6.752  19.237  0.00  0.00    +0.000 OA
ATOM     12  O   UNL     1       4.321   6.040  17.569  0.00  0.00    +0.000 OA
ENDROOT
BRANCH   1  14
ATOM     13  C   UNL     1       5.966   3.935  14.593  0.00  0.00    +0.000 C 
ATOM     14  S   UNL     1       5.920   5.455  15.564  0.00  0.00    +0.000 S 
ENDBRANCH   1  14
TORSDOF 1
ENDMDL
MODEL 5
REMARK VINA RESULT:      -6.0      1.603      2.631
REMARK  Name = 
REMARK  3 active torsions:
REMARK  status: ('A' for Active; 'I' for Inactive)
REMARK    1  A    between atoms: C_1  and  S_2
REMARK    2  A    between atoms: S_2  and  C_3
REMARK    3  A    between atoms: C_9  and  C_10
REMARK                            x       y       z     vdW  Elec       q    Type
REMARK                         _______ _______ _______ _____ _____    ______ ____
ROOT
ATOM      1  C   UNL     1       4.434   4.226  16.880  0.00  0.00    +0.000 A 
ATOM      2  N   UNL     1       3.810   3.209  17.367  0.00  0.00    +0.000 NA
ATOM      3  C   UNL     1       2.942   3.429  18.432  0.00  0.00    +0.000 A 
ATOM      4  C   UNL     1       2.306   2.322  18.998  0.00  0.00    +0.000 A 
ATOM      5  C   UNL     1       1.451   2.478  20.084  0.00  0.00    +0.000 A 
ATOM      6  C   UNL     1       1.209   3.750  20.596  0.00  0.00    +0.000 A 
ATOM      7  C   UNL     1       1.818   4.883  20.028  0.00  0.00    +0.000 A 
ATOM      8  C   UNL     1       1.491   6.233  20.604  0.00  0.00    +0.000 C 
ATOM      9  C   UNL     1       2.707   4.702  18.944  0.00  0.00    +0.000 A 
ATOM     10  C   UNL     1       3.446   5.808  18.297  0.00  0.00    +0.000 A 
ATOM     11  O   UNL     1       3.305   6.971  18.651  0.00  0.00    +0.000 OA
ATOM     12  O   UNL     1       4.307   5.502  17.299  0.00  0.00    +0.000 OA
ENDROOT
BRANCH   1  14
ATOM     13  C   UNL     1       7.081   4.625  16.326  0.00  0.00    +0.000 C 
ATOM     14  S   UNL     1       5.576   3.980  15.568  0.00  0.00    +0.000 S 
ENDBRANCH   1  14
TORSDOF 1
ENDMDL
MODEL 6
REMARK VINA RESULT:      -6.0      1.190      1.190
REMARK  Name = 
REMARK  3 active torsions:
REMARK  status: ('A' for Active; 'I' for Inactive)
REMARK    1  A    between atoms: C_1  and  S_2
REMARK    2  A    between atoms: S_2  and  C_3
REMARK    3  A    between atoms: C_9  and  C_10
REMARK                            x       y       z     vdW  Elec       q    Type
REMARK                         _______ _______ _______ _____ _____    ______ ____
ROOT
ATOM      1  C   UNL     1       5.440   4.586  18.383  0.00  0.00    +0.000 A 
ATOM      2  N   UNL     1       4.778   5.308  19.221  0.00  0.00    +0.000 NA
ATOM      3  C   UNL     1       3.485   4.906  19.543  0.00  0.00    +0.000 A 
ATOM      4  C   UNL     1       2.744   5.716  20.408  0.00  0.00    +0.000 A 
ATOM      5  C   UNL     1       1.437   5.380  20.742  0.00  0.00    +0.000 A 
ATOM      6  C   UNL     1       0.868   4.217  20.229  0.00  0.00    +0.000 A 
ATOM      7  C   UNL     1       1.602   3.373  19.377  0.00  0.00    +0.000 A 
ATOM      8  C   UNL     1       0.946   2.114  18.881  0.00  0.00    +0.000 C 
ATOM      9  C   UNL     1       2.919   3.745  19.024  0.00  0.00    +0.000 A 
ATOM     10  C   UNL     1       3.770   2.969  18.097  0.00  0.00    +0.000 A 
ATOM     11  O   UNL     1       3.385   1.921  17.593  0.00  0.00    +0.000 OA
ATOM     12  O   UNL     1       4.998   3.453  17.799  0.00  0.00    +0.000 OA
ENDROOT
BRANCH   1  14
ATOM     13  C   UNL     1       7.069   4.557  16.190  0.00  0.00    +0.000 C 
ATOM     14  S   UNL     1       7.056   5.088  17.914  0.00  0.00    +0.000 S 
ENDBRANCH   1  14
TORSDOF 1
ENDMDL
MODEL 7
REMARK VINA RESULT:      -5.9      2.318      2.467
REMARK  Name = 
REMARK  3 active torsions:
REMARK  status: ('A' for Active; 'I' for Inactive)
REMARK    1  A    between atoms: C_1  and  S_2
REMARK    2  A    between atoms: S_2  and  C_3
REMARK    3  A    between atoms: C_9  and  C_10
REMARK                            x       y       z     vdW  Elec       q    Type
REMARK                         _______ _______ _______ _____ _____    ______ ____
ROOT
ATOM      1  C   UNL     1       6.002   5.183  18.856  0.00  0.00    +0.000 A 
ATOM      2  N   UNL     1       4.987   5.804  18.361  0.00  0.00    +0.000 NA
ATOM      3  C   UNL     1       3.761   5.146  18.361  0.00  0.00    +0.000 A 
ATOM      4  C   UNL     1       2.670   5.794  17.776  0.00  0.00    +0.000 A 
ATOM      5  C   UNL     1       1.427   5.172  17.720  0.00  0.00    +0.000 A 
ATOM      6  C   UNL     1       1.263   3.904  18.272  0.00  0.00    +0.000 A 
ATOM      7  C   UNL     1       2.339   3.242  18.888  0.00  0.00    +0.000 A 
ATOM      8  C   UNL     1       2.091   1.889  19.495  0.00  0.00    +0.000 C 
ATOM      9  C   UNL     1       3.601   3.877  18.909  0.00  0.00    +0.000 A 
ATOM     10  C   UNL     1       4.820   3.261  19.481  0.00  0.00    +0.000 A 
ATOM     11  O   UNL     1       4.796   2.155  20.007  0.00  0.00    +0.000 OA
ATOM     12  O   UNL     1       5.981   3.949  19.399  0.00  0.00    +0.000 OA
ENDROOT
BRANCH   1  14
ATOM     13  C   UNL     1       7.325   7.147  17.491  0.00  0.00    +0.000 C 
ATOM     14  S   UNL     1       7.576   5.962  18.829  0.00  0.00    +0.000 S 
ENDBRANCH   1  14
TORSDOF 1
ENDMDL
MODEL 8
REMARK VINA RESULT:      -5.9      2.394      4.724
REMARK  Name = 
REMARK  3 active torsions:
REMARK  status: ('A' for Active; 'I' for Inactive)
REMARK    1  A    between atoms: C_1  and  S_2
REMARK    2  A    between atoms: S_2  and  C_3
REMARK    3  A    between atoms: C_9  and  C_10
REMARK                            x       y       z     vdW  Elec       q    Type
REMARK                         _______ _______ _______ _____ _____    ______ ____
ROOT
ATOM      1  C   UNL     1       3.199   4.720  19.657  0.00  0.00    +0.000 A 
ATOM      2  N   UNL     1       4.372   5.179  19.930  0.00  0.00    +0.000 NA
ATOM      3  C   UNL     1       5.363   5.043  18.963  0.00  0.00    +0.000 A 
ATOM      4  C   UNL     1       6.649   5.491  19.276  0.00  0.00    +0.000 A 
ATOM      5  C   UNL     1       7.687   5.353  18.360  0.00  0.00    +0.000 A 
ATOM      6  C   UNL     1       7.438   4.787  17.113  0.00  0.00    +0.000 A 
ATOM      7  C   UNL     1       6.147   4.352  16.765  0.00  0.00    +0.000 A 
ATOM      8  C   UNL     1       5.933   3.779  15.391  0.00  0.00    +0.000 C 
ATOM      9  C   UNL     1       5.112   4.472  17.719  0.00  0.00    +0.000 A 
ATOM     10  C   UNL     1       3.726   4.004  17.490  0.00  0.00    +0.000 A 
ATOM     11  O   UNL     1       3.384   3.502  16.427  0.00  0.00    +0.000 OA
ATOM     12  O   UNL     1       2.835   4.130  18.499  0.00  0.00    +0.000 OA
ENDROOT
BRANCH   1  14
ATOM     13  C   UNL     1       2.037   3.176  21.589  0.00  0.00    +0.000 C 
ATOM     14  S   UNL     1       1.936   4.828  20.871  0.00  0.00    +0.000 S 
ENDBRANCH   1  14
TORSDOF 1
ENDMDL
MODEL 9
REMARK VINA RESULT:      -5.9      2.522      5.408
REMARK  Name = 
REMARK  3 active torsions:
REMARK  status: ('A' for Active; 'I' for Inactive)
REMARK    1  A    between atoms: C_1  and  S_2
REMARK    2  A    between atoms: S_2  and  C_3
REMARK    3  A    between atoms: C_9  and  C_10
REMARK                            x       y       z     vdW  Elec       q    Type
REMARK                         _______ _______ _______ _____ _____    ______ ____
ROOT
ATOM      1  C   UNL     1       3.555   3.262  18.354  0.00  0.00    +0.000 A 
ATOM      2  N   UNL     1       3.879   3.207  17.108  0.00  0.00    +0.000 NA
ATOM      3  C   UNL     1       4.948   3.987  16.679  0.00  0.00    +0.000 A 
ATOM      4  C   UNL     1       5.267   3.972  15.319  0.00  0.00    +0.000 A 
ATOM      5  C   UNL     1       6.306   4.755  14.829  0.00  0.00    +0.000 A 
ATOM      6  C   UNL     1       7.049   5.544  15.703  0.00  0.00    +0.000 A 
ATOM      7  C   UNL     1       6.764   5.558  17.080  0.00  0.00    +0.000 A 
ATOM      8  C   UNL     1       7.623   6.404  17.978  0.00  0.00    +0.000 C 
ATOM      9  C   UNL     1       5.685   4.779  17.556  0.00  0.00    +0.000 A 
ATOM     10  C   UNL     1       5.255   4.750  18.971  0.00  0.00    +0.000 A 
ATOM     11  O   UNL     1       5.841   5.391  19.834  0.00  0.00    +0.000 OA
ATOM     12  O   UNL     1       4.177   4.001  19.296  0.00  0.00    +0.000 OA
ENDROOT
BRANCH   1  14
ATOM     13  C   UNL     1       1.235   3.623  19.752  0.00  0.00    +0.000 C 
ATOM     14  S   UNL     1       2.180   2.330  18.922  0.00  0.00    +0.000 S 
ENDBRANCH   1  14
TORSDOF 1
ENDMDL
