MODEL 1
REMARK VINA RESULT:      -8.8      0.000      0.000
REMARK  Name = 
REMARK  12 active torsions:
REMARK  status: ('A' for Active; 'I' for Inactive)
REMARK    1  A    between atoms: C_1  and  C_2
REMARK    2  A    between atoms: C_2  and  C_3
REMARK    3  A    between atoms: C_3  and  C_4
REMARK    4  A    between atoms: C_4  and  C_5
REMARK    5  A    between atoms: C_5  and  C_6
REMARK    6  A    between atoms: C_6  and  C_7
REMARK    7  A    between atoms: N_11  and  C_12
REMARK    8  A    between atoms: C_12  and  C_13
REMARK    9  A    between atoms: C_16  and  N_17
REMARK   10  A    between atoms: C_18  and  C_20
REMARK   11  A    between atoms: C_25  and  C_26
REMARK   12  A    between atoms: C_26  and  O_28
REMARK                            x       y       z     vdW  Elec       q    Type
REMARK                         _______ _______ _______ _____ _____    ______ ____
ROOT
ATOM      1  C   UNL     1       3.401   5.588  18.162  0.00  0.00    +0.000 A 
ATOM      2  C   UNL     1       3.454   6.928  17.773  0.00  0.00    +0.000 A 
ATOM      3  C   UNL     1       2.800   7.917  18.516  0.00  0.00    +0.000 A 
ATOM      4  C   UNL     1       2.074   7.599  19.667  0.00  0.00    +0.000 A 
ATOM      5  C   UNL     1       2.119   6.282  20.133  0.00  0.00    +0.000 A 
ATOM      6  C   UNL     1       2.765   5.280  19.380  0.00  0.00    +0.000 A 
ENDROOT
BRANCH   4   7
ATOM      7  N   UNL     1       1.280   8.556  20.356  0.00  0.00    +0.000 N 
ATOM      8  C   UNL     1       0.604   9.590  19.733  0.00  0.00    +0.000 C 
ATOM      9  O   UNL     1       0.573   9.748  18.508  0.00  0.00    +0.000 OA
ATOM     10  H   UNL     1       1.060   8.345  21.331  0.00  0.00    +0.000 HD
BRANCH   8  11
ATOM     11  C   UNL     1      -0.161  10.610  20.524  0.00  0.00    +0.000 A 
ATOM     12  C   UNL     1      -0.593  11.709  19.743  0.00  0.00    +0.000 A 
ATOM     13  C   UNL     1      -1.406  12.718  20.260  0.00  0.00    +0.000 A 
ATOM     14  C   UNL     1      -1.806  12.660  21.585  0.00  0.00    +0.000 A 
ATOM     15  C   UNL     1      -1.379  11.600  22.387  0.00  0.00    +0.000 A 
ATOM     16  C   UNL     1      -0.570  10.560  21.869  0.00  0.00    +0.000 A 
BRANCH  16  17
ATOM     17  C   UNL     1      -0.163   9.491  22.806  0.00  0.00    +0.000 C 
ATOM     18  O   UNL     1       0.716   9.645  23.642  0.00  0.00    +0.000 OA
BRANCH  17  19
ATOM     19  O   UNL     1      -0.858   8.342  22.698  0.00  0.00    +0.000 OA
ATOM     20  H   UNL     1      -0.505   7.669  22.085  0.00  0.00    +0.000 HD
ENDBRANCH  17  19
ENDBRANCH  16  17
ENDBRANCH   8  11
ENDBRANCH   4   7
BRANCH   1  21
ATOM     21  C   UNL     1       3.925   4.518  17.232  0.00  0.00    +0.000 C 
BRANCH  21  26
ATOM     22  C   UNL     1       6.040   4.476  15.784  0.00  0.00    +0.000 A 
ATOM     23  N   UNL     1       7.344   4.469  16.007  0.00  0.00    +0.000 NA
ATOM     24  C   UNL     1       7.508   4.532  17.361  0.00  0.00    +0.000 A 
ATOM     25  C   UNL     1       6.293   4.589  17.990  0.00  0.00    +0.000 A 
ATOM     26  N   UNL     1       5.356   4.588  16.981  0.00  0.00    +0.000 N 
BRANCH  22  27
ATOM     27  C   UNL     1       5.444   4.380  14.406  0.00  0.00    +0.000 C 
BRANCH  27  28
ATOM     28  C   UNL     1       6.489   3.912  13.378  0.00  0.00    +0.000 C 
BRANCH  28  29
ATOM     29  C   UNL     1       5.872   3.242  12.142  0.00  0.00    +0.000 C 
BRANCH  29  30
ATOM     30  C   UNL     1       4.383   3.598  12.011  0.00  0.00    +0.000 C 
BRANCH  30  32
ATOM     31  C   UNL     1       3.101   4.099   9.896  0.00  0.00    +0.000 C 
ATOM     32  C   UNL     1       3.741   3.012  10.751  0.00  0.00    +0.000 C 
ENDBRANCH  30  32
ENDBRANCH  29  30
ENDBRANCH  28  29
ENDBRANCH  27  28
ENDBRANCH  22  27
ENDBRANCH  21  26
ENDBRANCH   1  21
TORSDOF 11
ENDMDL
MODEL 2
REMARK VINA RESULT:      -8.3      3.199      4.514
REMARK  Name = 
REMARK  12 active torsions:
REMARK  status: ('A' for Active; 'I' for Inactive)
REMARK    1  A    between atoms: C_1  and  C_2
REMARK    2  A    between atoms: C_2  and  C_3
REMARK    3  A    between atoms: C_3  and  C_4
REMARK    4  A    between atoms: C_4  and  C_5
REMARK    5  A    between atoms: C_5  and  C_6
REMARK    6  A    between atoms: C_6  and  C_7
REMARK    7  A    between atoms: N_11  and  C_12
REMARK    8  A    between atoms: C_12  and  C_13
REMARK    9  A    between atoms: C_16  and  N_17
REMARK   10  A    between atoms: C_18  and  C_20
REMARK   11  A    between atoms: C_25  and  C_26
REMARK   12  A    between atoms: C_26  and  O_28
REMARK                            x       y       z     vdW  Elec       q    Type
REMARK                         _______ _______ _______ _____ _____    ______ ____
ROOT
ATOM      1  C   UNL     1       3.133   7.103  18.120  0.00  0.00    +0.000 A 
ATOM      2  C   UNL     1       2.817   8.286  17.448  0.00  0.00    +0.000 A 
ATOM      3  C   UNL     1       1.899   9.193  17.987  0.00  0.00    +0.000 A 
ATOM      4  C   UNL     1       1.269   8.949  19.210  0.00  0.00    +0.000 A 
ATOM      5  C   UNL     1       1.670   7.831  19.948  0.00  0.00    +0.000 A 
ATOM      6  C   UNL     1       2.584   6.907  19.402  0.00  0.00    +0.000 A 
ENDROOT
BRANCH   4   7
ATOM      7  N   UNL     1       0.226   9.776  19.709  0.00  0.00    +0.000 N 
ATOM      8  C   UNL     1       0.341  10.565  20.840  0.00  0.00    +0.000 C 
ATOM      9  O   UNL     1       1.382  10.677  21.495  0.00  0.00    +0.000 OA
ATOM     10  H   UNL     1      -0.571   9.925  19.088  0.00  0.00    +0.000 HD
BRANCH   8  11
ATOM     11  C   UNL     1      -0.821  11.363  21.355  0.00  0.00    +0.000 A 
ATOM     12  C   UNL     1      -1.104  11.114  22.720  0.00  0.00    +0.000 A 
ATOM     13  C   UNL     1      -2.078  11.825  23.421  0.00  0.00    +0.000 A 
ATOM     14  C   UNL     1      -2.808  12.807  22.770  0.00  0.00    +0.000 A 
ATOM     15  C   UNL     1      -2.566  13.062  21.419  0.00  0.00    +0.000 A 
ATOM     16  C   UNL     1      -1.567  12.360  20.701  0.00  0.00    +0.000 A 
BRANCH  16  17
ATOM     17  C   UNL     1      -1.401  12.698  19.271  0.00  0.00    +0.000 C 
ATOM     18  O   UNL     1      -1.696  11.924  18.371  0.00  0.00    +0.000 OA
BRANCH  17  19
ATOM     19  O   UNL     1      -0.934  13.938  19.029  0.00  0.00    +0.000 OA
ATOM     20  H   UNL     1      -1.539  14.557  18.576  0.00  0.00    +0.000 HD
ENDBRANCH  17  19
ENDBRANCH  16  17
ENDBRANCH   8  11
ENDBRANCH   4   7
BRANCH   1  21
ATOM     21  C   UNL     1       3.952   6.042  17.422  0.00  0.00    +0.000 C 
BRANCH  21  26
ATOM     22  C   UNL     1       5.570   4.884  19.040  0.00  0.00    +0.000 A 
ATOM     23  N   UNL     1       6.832   5.049  19.401  0.00  0.00    +0.000 NA
ATOM     24  C   UNL     1       7.317   6.088  18.660  0.00  0.00    +0.000 A 
ATOM     25  C   UNL     1       6.350   6.571  17.819  0.00  0.00    +0.000 A 
ATOM     26  N   UNL     1       5.245   5.780  18.037  0.00  0.00    +0.000 N 
BRANCH  22  27
ATOM     27  C   UNL     1       4.668   3.853  19.660  0.00  0.00    +0.000 C 
BRANCH  27  28
ATOM     28  C   UNL     1       4.119   2.883  18.598  0.00  0.00    +0.000 C 
BRANCH  28  29
ATOM     29  C   UNL     1       2.730   2.325  18.941  0.00  0.00    +0.000 C 
BRANCH  29  30
ATOM     30  C   UNL     1       1.651   3.407  18.783  0.00  0.00    +0.000 C 
BRANCH  30  32
ATOM     31  C   UNL     1       1.449   2.909  21.249  0.00  0.00    +0.000 C 
ATOM     32  C   UNL     1       0.807   3.592  20.047  0.00  0.00    +0.000 C 
ENDBRANCH  30  32
ENDBRANCH  29  30
ENDBRANCH  28  29
ENDBRANCH  27  28
ENDBRANCH  22  27
ENDBRANCH  21  26
ENDBRANCH   1  21
TORSDOF 11
ENDMDL
MODEL 3
REMARK VINA RESULT:      -8.1      2.789      4.059
REMARK  Name = 
REMARK  12 active torsions:
REMARK  status: ('A' for Active; 'I' for Inactive)
REMARK    1  A    between atoms: C_1  and  C_2
REMARK    2  A    between atoms: C_2  and  C_3
REMARK    3  A    between atoms: C_3  and  C_4
REMARK    4  A    between atoms: C_4  and  C_5
REMARK    5  A    between atoms: C_5  and  C_6
REMARK    6  A    between atoms: C_6  and  C_7
REMARK    7  A    between atoms: N_11  and  C_12
REMARK    8  A    between atoms: C_12  and  C_13
REMARK    9  A    between atoms: C_16  and  N_17
REMARK   10  A    between atoms: C_18  and  C_20
REMARK   11  A    between atoms: C_25  and  C_26
REMARK   12  A    between atoms: C_26  and  O_28
REMARK                            x       y       z     vdW  Elec       q    Type
REMARK                         _______ _______ _______ _____ _____    ______ ____
ROOT
ATOM      1  C   UNL     1       3.431   7.080  17.594  0.00  0.00    +0.000 A 
ATOM      2  C   UNL     1       3.025   6.553  18.822  0.00  0.00    +0.000 A 
ATOM      3  C   UNL     1       2.221   7.299  19.692  0.00  0.00    +0.000 A 
ATOM      4  C   UNL     1       1.798   8.590  19.363  0.00  0.00    +0.000 A 
ATOM      5  C   UNL     1       2.095   9.076  18.087  0.00  0.00    +0.000 A 
ATOM      6  C   UNL     1       2.916   8.335  17.214  0.00  0.00    +0.000 A 
ENDROOT
BRANCH   4   7
ATOM      7  N   UNL     1       1.108   9.423  20.285  0.00  0.00    +0.000 N 
ATOM      8  C   UNL     1      -0.058  10.104  19.986  0.00  0.00    +0.000 C 
ATOM      9  O   UNL     1      -0.651  10.008  18.906  0.00  0.00    +0.000 OA
ATOM     10  H   UNL     1       1.399   9.356  21.262  0.00  0.00    +0.000 HD
BRANCH   8  11
ATOM     11  C   UNL     1      -0.701  11.024  20.982  0.00  0.00    +0.000 A 
ATOM     12  C   UNL     1      -1.221  12.203  20.395  0.00  0.00    +0.000 A 
ATOM     13  C   UNL     1      -1.947  13.143  21.126  0.00  0.00    +0.000 A 
ATOM     14  C   UNL     1      -2.169  12.934  22.478  0.00  0.00    +0.000 A 
ATOM     15  C   UNL     1      -1.650  11.791  23.091  0.00  0.00    +0.000 A 
ATOM     16  C   UNL     1      -0.928  10.820  22.355  0.00  0.00    +0.000 A 
BRANCH  16  17
ATOM     17  C   UNL     1      -0.413   9.654  23.103  0.00  0.00    +0.000 C 
ATOM     18  O   UNL     1       0.418   9.756  23.995  0.00  0.00    +0.000 OA
BRANCH  17  19
ATOM     19  O   UNL     1      -0.952   8.470  22.756  0.00  0.00    +0.000 OA
ATOM     20  H   UNL     1      -0.570   7.672  23.169  0.00  0.00    +0.000 HD
ENDBRANCH  17  19
ENDBRANCH  16  17
ENDBRANCH   8  11
ENDBRANCH   4   7
BRANCH   1  21
ATOM     21  C   UNL     1       4.471   6.352  16.775  0.00  0.00    +0.000 C 
BRANCH  21  26
ATOM     22  C   UNL     1       5.750   4.624  18.172  0.00  0.00    +0.000 A 
ATOM     23  N   UNL     1       6.872   4.612  18.873  0.00  0.00    +0.000 NA
ATOM     24  C   UNL     1       7.430   5.851  18.737  0.00  0.00    +0.000 A 
ATOM     25  C   UNL     1       6.652   6.642  17.934  0.00  0.00    +0.000 A 
ATOM     26  N   UNL     1       5.598   5.848  17.545  0.00  0.00    +0.000 N 
BRANCH  22  27
ATOM     27  C   UNL     1       4.816   3.447  18.098  0.00  0.00    +0.000 C 
BRANCH  27  28
ATOM     28  C   UNL     1       4.147   3.181  19.458  0.00  0.00    +0.000 C 
BRANCH  28  29
ATOM     29  C   UNL     1       2.953   2.219  19.373  0.00  0.00    +0.000 C 
BRANCH  29  30
ATOM     30  C   UNL     1       1.639   2.993  19.182  0.00  0.00    +0.000 C 
BRANCH  30  32
ATOM     31  C   UNL     1       1.245   2.742  21.662  0.00  0.00    +0.000 C 
ATOM     32  C   UNL     1       1.164   3.681  20.464  0.00  0.00    +0.000 C 
ENDBRANCH  30  32
ENDBRANCH  29  30
ENDBRANCH  28  29
ENDBRANCH  27  28
ENDBRANCH  22  27
ENDBRANCH  21  26
ENDBRANCH   1  21
TORSDOF 11
ENDMDL
MODEL 4
REMARK VINA RESULT:      -8.1      1.375      2.110
REMARK  Name = 
REMARK  12 active torsions:
REMARK  status: ('A' for Active; 'I' for Inactive)
REMARK    1  A    between atoms: C_1  and  C_2
REMARK    2  A    between atoms: C_2  and  C_3
REMARK    3  A    between atoms: C_3  and  C_4
REMARK    4  A    between atoms: C_4  and  C_5
REMARK    5  A    between atoms: C_5  and  C_6
REMARK    6  A    between atoms: C_6  and  C_7
REMARK    7  A    between atoms: N_11  and  C_12
REMARK    8  A    between atoms: C_12  and  C_13
REMARK    9  A    between atoms: C_16  and  N_17
REMARK   10  A    between atoms: C_18  and  C_20
REMARK   11  A    between atoms: C_25  and  C_26
REMARK   12  A    between atoms: C_26  and  O_28
REMARK                            x       y       z     vdW  Elec       q    Type
REMARK                         _______ _______ _______ _____ _____    ______ ____
ROOT
ATOM      1  C   UNL     1       3.420   5.806  18.194  0.00  0.00    +0.000 A 
ATOM      2  C   UNL     1       3.288   7.115  17.725  0.00  0.00    +0.000 A 
ATOM      3  C   UNL     1       2.560   8.065  18.449  0.00  0.00    +0.000 A 
ATOM      4  C   UNL     1       1.942   7.739  19.660  0.00  0.00    +0.000 A 
ATOM      5  C   UNL     1       2.172   6.469  20.197  0.00  0.00    +0.000 A 
ATOM      6  C   UNL     1       2.893   5.505  19.465  0.00  0.00    +0.000 A 
ENDROOT
BRANCH   4   7
ATOM      7  N   UNL     1       1.076   8.638  20.340  0.00  0.00    +0.000 N 
ATOM      8  C   UNL     1       0.493   9.744  19.748  0.00  0.00    +0.000 C 
ATOM      9  O   UNL     1       0.617  10.028  18.552  0.00  0.00    +0.000 OA
ATOM     10  H   UNL     1       0.732   8.334  21.252  0.00  0.00    +0.000 HD
BRANCH   8  11
ATOM     11  C   UNL     1      -0.357  10.694  20.540  0.00  0.00    +0.000 A 
ATOM     12  C   UNL     1      -0.397  10.386  21.921  0.00  0.00    +0.000 A 
ATOM     13  C   UNL     1      -1.045  11.200  22.849  0.00  0.00    +0.000 A 
ATOM     14  C   UNL     1      -1.685  12.351  22.418  0.00  0.00    +0.000 A 
ATOM     15  C   UNL     1      -1.682  12.672  21.060  0.00  0.00    +0.000 A 
ATOM     16  C   UNL     1      -1.011  11.864  20.110  0.00  0.00    +0.000 A 
BRANCH  16  17
ATOM     17  C   UNL     1      -1.080  12.287  18.695  0.00  0.00    +0.000 C 
ATOM     18  O   UNL     1      -0.373  13.174  18.236  0.00  0.00    +0.000 OA
BRANCH  17  19
ATOM     19  O   UNL     1      -1.954  11.600  17.936  0.00  0.00    +0.000 OA
ATOM     20  H   UNL     1      -1.924  11.759  16.973  0.00  0.00    +0.000 HD
ENDBRANCH  17  19
ENDBRANCH  16  17
ENDBRANCH   8  11
ENDBRANCH   4   7
BRANCH   1  21
ATOM     21  C   UNL     1       4.018   4.748  17.297  0.00  0.00    +0.000 C 
BRANCH  21  26
ATOM     22  C   UNL     1       6.243   4.860  16.026  0.00  0.00    +0.000 A 
ATOM     23  N   UNL     1       7.524   4.788  16.347  0.00  0.00    +0.000 NA
ATOM     24  C   UNL     1       7.580   4.650  17.704  0.00  0.00    +0.000 A 
ATOM     25  C   UNL     1       6.319   4.648  18.238  0.00  0.00    +0.000 A 
ATOM     26  N   UNL     1       5.467   4.816  17.171  0.00  0.00    +0.000 N 
BRANCH  22  27
ATOM     27  C   UNL     1       5.758   4.979  14.607  0.00  0.00    +0.000 C 
BRANCH  27  28
ATOM     28  C   UNL     1       5.643   3.597  13.940  0.00  0.00    +0.000 C 
BRANCH  28  29
ATOM     29  C   UNL     1       6.211   3.560  12.514  0.00  0.00    +0.000 C 
BRANCH  29  30
ATOM     30  C   UNL     1       5.259   2.815  11.565  0.00  0.00    +0.000 C 
BRANCH  30  32
ATOM     31  C   UNL     1       3.401   3.608  10.052  0.00  0.00    +0.000 C 
ATOM     32  C   UNL     1       3.871   3.456  11.494  0.00  0.00    +0.000 C 
ENDBRANCH  30  32
ENDBRANCH  29  30
ENDBRANCH  28  29
ENDBRANCH  27  28
ENDBRANCH  22  27
ENDBRANCH  21  26
ENDBRANCH   1  21
TORSDOF 11
ENDMDL
MODEL 5
REMARK VINA RESULT:      -8.0      2.159      3.622
REMARK  Name = 
REMARK  12 active torsions:
REMARK  status: ('A' for Active; 'I' for Inactive)
REMARK    1  A    between atoms: C_1  and  C_2
REMARK    2  A    between atoms: C_2  and  C_3
REMARK    3  A    between atoms: C_3  and  C_4
REMARK    4  A    between atoms: C_4  and  C_5
REMARK    5  A    between atoms: C_5  and  C_6
REMARK    6  A    between atoms: C_6  and  C_7
REMARK    7  A    between atoms: N_11  and  C_12
REMARK    8  A    between atoms: C_12  and  C_13
REMARK    9  A    between atoms: C_16  and  N_17
REMARK   10  A    between atoms: C_18  and  C_20
REMARK   11  A    between atoms: C_25  and  C_26
REMARK   12  A    between atoms: C_26  and  O_28
REMARK                            x       y       z     vdW  Elec       q    Type
REMARK                         _______ _______ _______ _____ _____    ______ ____
ROOT
ATOM      1  C   UNL     1       2.550   6.565  18.519  0.00  0.00    +0.000 A 
ATOM      2  C   UNL     1       2.526   7.765  17.805  0.00  0.00    +0.000 A 
ATOM      3  C   UNL     1       2.028   8.936  18.388  0.00  0.00    +0.000 A 
ATOM      4  C   UNL     1       1.540   8.944  19.697  0.00  0.00    +0.000 A 
ATOM      5  C   UNL     1       1.675   7.781  20.459  0.00  0.00    +0.000 A 
ATOM      6  C   UNL     1       2.163   6.596  19.872  0.00  0.00    +0.000 A 
ENDROOT
BRANCH   4   7
ATOM      7  N   UNL     1       0.893  10.078  20.262  0.00  0.00    +0.000 N 
ATOM      8  C   UNL     1      -0.329  10.562  19.833  0.00  0.00    +0.000 C 
ATOM      9  O   UNL     1      -1.012  10.022  18.957  0.00  0.00    +0.000 OA
ATOM     10  H   UNL     1       1.275  10.424  21.144  0.00  0.00    +0.000 HD
BRANCH   8  11
ATOM     11  C   UNL     1      -0.926  11.806  20.425  0.00  0.00    +0.000 A 
ATOM     12  C   UNL     1      -1.474  11.600  21.715  0.00  0.00    +0.000 A 
ATOM     13  C   UNL     1      -1.986  12.645  22.483  0.00  0.00    +0.000 A 
ATOM     14  C   UNL     1      -1.972  13.935  21.977  0.00  0.00    +0.000 A 
ATOM     15  C   UNL     1      -1.458  14.167  20.700  0.00  0.00    +0.000 A 
ATOM     16  C   UNL     1      -0.918  13.117  19.918  0.00  0.00    +0.000 A 
BRANCH  16  17
ATOM     17  C   UNL     1      -0.410  13.470  18.575  0.00  0.00    +0.000 C 
ATOM     18  O   UNL     1       0.549  14.209  18.404  0.00  0.00    +0.000 OA
BRANCH  17  19
ATOM     19  O   UNL     1      -1.061  12.889  17.549  0.00  0.00    +0.000 OA
ATOM     20  H   UNL     1      -1.237  13.444  16.765  0.00  0.00    +0.000 HD
ENDBRANCH  17  19
ENDBRANCH  16  17
ENDBRANCH   8  11
ENDBRANCH   4   7
BRANCH   1  21
ATOM     21  C   UNL     1       2.885   5.276  17.804  0.00  0.00    +0.000 C 
BRANCH  21  26
ATOM     22  C   UNL     1       4.791   4.196  19.135  0.00  0.00    +0.000 A 
ATOM     23  N   UNL     1       4.980   3.045  19.760  0.00  0.00    +0.000 NA
ATOM     24  C   UNL     1       3.817   2.341  19.640  0.00  0.00    +0.000 A 
ATOM     25  C   UNL     1       2.887   3.064  18.941  0.00  0.00    +0.000 A 
ATOM     26  N   UNL     1       3.498   4.262  18.649  0.00  0.00    +0.000 N 
BRANCH  22  27
ATOM     27  C   UNL     1       5.861   5.245  19.009  0.00  0.00    +0.000 C 
BRANCH  27  28
ATOM     28  C   UNL     1       6.717   5.020  17.749  0.00  0.00    +0.000 C 
BRANCH  28  29
ATOM     29  C   UNL     1       6.309   5.911  16.567  0.00  0.00    +0.000 C 
BRANCH  29  30
ATOM     30  C   UNL     1       5.689   5.073  15.438  0.00  0.00    +0.000 C 
BRANCH  30  32
ATOM     31  C   UNL     1       6.081   3.795  13.297  0.00  0.00    +0.000 C 
ATOM     32  C   UNL     1       6.697   4.719  14.341  0.00  0.00    +0.000 C 
ENDBRANCH  30  32
ENDBRANCH  29  30
ENDBRANCH  28  29
ENDBRANCH  27  28
ENDBRANCH  22  27
ENDBRANCH  21  26
ENDBRANCH   1  21
TORSDOF 11
ENDMDL
MODEL 6
REMARK VINA RESULT:      -8.0      2.558      4.936
REMARK  Name = 
REMARK  12 active torsions:
REMARK  status: ('A' for Active; 'I' for Inactive)
REMARK    1  A    between atoms: C_1  and  C_2
REMARK    2  A    between atoms: C_2  and  C_3
REMARK    3  A    between atoms: C_3  and  C_4
REMARK    4  A    between atoms: C_4  and  C_5
REMARK    5  A    between atoms: C_5  and  C_6
REMARK    6  A    between atoms: C_6  and  C_7
REMARK    7  A    between atoms: N_11  and  C_12
REMARK    8  A    between atoms: C_12  and  C_13
REMARK    9  A    between atoms: C_16  and  N_17
REMARK   10  A    between atoms: C_18  and  C_20
REMARK   11  A    between atoms: C_25  and  C_26
REMARK   12  A    between atoms: C_26  and  O_28
REMARK                            x       y       z     vdW  Elec       q    Type
REMARK                         _______ _______ _______ _____ _____    ______ ____
ROOT
ATOM      1  C   UNL     1       3.983   5.564  18.061  0.00  0.00    +0.000 A 
ATOM      2  C   UNL     1       3.911   6.764  17.351  0.00  0.00    +0.000 A 
ATOM      3  C   UNL     1       3.094   7.810  17.792  0.00  0.00    +0.000 A 
ATOM      4  C   UNL     1       2.324   7.691  18.953  0.00  0.00    +0.000 A 
ATOM      5  C   UNL     1       2.485   6.544  19.736  0.00  0.00    +0.000 A 
ATOM      6  C   UNL     1       3.297   5.482  19.288  0.00  0.00    +0.000 A 
ENDROOT
BRANCH   4   7
ATOM      7  N   UNL     1       1.376   8.676  19.343  0.00  0.00    +0.000 N 
ATOM      8  C   UNL     1       1.103   9.006  20.658  0.00  0.00    +0.000 C 
ATOM      9  O   UNL     1       1.701   8.521  21.625  0.00  0.00    +0.000 OA
ATOM     10  H   UNL     1       1.027   9.286  18.603  0.00  0.00    +0.000 HD
BRANCH   8  11
ATOM     11  C   UNL     1       0.040  10.005  21.006  0.00  0.00    +0.000 A 
ATOM     12  C   UNL     1      -0.259  10.039  22.391  0.00  0.00    +0.000 A 
ATOM     13  C   UNL     1      -1.144  10.967  22.940  0.00  0.00    +0.000 A 
ATOM     14  C   UNL     1      -1.767  11.889  22.114  0.00  0.00    +0.000 A 
ATOM     15  C   UNL     1      -1.509  11.867  20.742  0.00  0.00    +0.000 A 
ATOM     16  C   UNL     1      -0.598  10.943  20.175  0.00  0.00    +0.000 A 
BRANCH  16  17
ATOM     17  C   UNL     1      -0.407  10.998  18.709  0.00  0.00    +0.000 C 
ATOM     18  O   UNL     1      -1.214  10.527  17.920  0.00  0.00    +0.000 OA
BRANCH  17  19
ATOM     19  O   UNL     1       0.707  11.636  18.303  0.00  0.00    +0.000 OA
ATOM     20  H   UNL     1       0.848  11.709  17.340  0.00  0.00    +0.000 HD
ENDBRANCH  17  19
ENDBRANCH  16  17
ENDBRANCH   8  11
ENDBRANCH   4   7
BRANCH   1  21
ATOM     21  C   UNL     1       4.695   4.377  17.455  0.00  0.00    +0.000 C 
BRANCH  21  26
ATOM     22  C   UNL     1       6.779   5.576  16.563  0.00  0.00    +0.000 A 
ATOM     23  N   UNL     1       7.366   5.711  15.385  0.00  0.00    +0.000 NA
ATOM     24  C   UNL     1       6.633   4.977  14.498  0.00  0.00    +0.000 A 
ATOM     25  C   UNL     1       5.582   4.368  15.131  0.00  0.00    +0.000 A 
ATOM     26  N   UNL     1       5.695   4.723  16.456  0.00  0.00    +0.000 N 
BRANCH  22  27
ATOM     27  C   UNL     1       7.266   6.268  17.807  0.00  0.00    +0.000 C 
BRANCH  27  28
ATOM     28  C   UNL     1       7.488   7.770  17.557  0.00  0.00    +0.000 C 
BRANCH  28  29
ATOM     29  C   UNL     1       8.542   8.394  18.484  0.00  0.00    +0.000 C 
BRANCH  29  30
ATOM     30  C   UNL     1       8.645   9.910  18.255  0.00  0.00    +0.000 C 
BRANCH  30  32
ATOM     31  C   UNL     1      10.719  11.288  18.662  0.00  0.00    +0.000 C 
ATOM     32  C   UNL     1       9.515  10.609  19.303  0.00  0.00    +0.000 C 
ENDBRANCH  30  32
ENDBRANCH  29  30
ENDBRANCH  28  29
ENDBRANCH  27  28
ENDBRANCH  22  27
ENDBRANCH  21  26
ENDBRANCH   1  21
TORSDOF 11
ENDMDL
MODEL 7
REMARK VINA RESULT:      -7.9      2.705      3.882
REMARK  Name = 
REMARK  12 active torsions:
REMARK  status: ('A' for Active; 'I' for Inactive)
REMARK    1  A    between atoms: C_1  and  C_2
REMARK    2  A    between atoms: C_2  and  C_3
REMARK    3  A    between atoms: C_3  and  C_4
REMARK    4  A    between atoms: C_4  and  C_5
REMARK    5  A    between atoms: C_5  and  C_6
REMARK    6  A    between atoms: C_6  and  C_7
REMARK    7  A    between atoms: N_11  and  C_12
REMARK    8  A    between atoms: C_12  and  C_13
REMARK    9  A    between atoms: C_16  and  N_17
REMARK   10  A    between atoms: C_18  and  C_20
REMARK   11  A    between atoms: C_25  and  C_26
REMARK   12  A    between atoms: C_26  and  O_28
REMARK                            x       y       z     vdW  Elec       q    Type
REMARK                         _______ _______ _______ _____ _____    ______ ____
ROOT
ATOM      1  C   UNL     1       3.390   7.311  17.705  0.00  0.00    +0.000 A 
ATOM      2  C   UNL     1       2.923   8.574  17.333  0.00  0.00    +0.000 A 
ATOM      3  C   UNL     1       2.046   9.286  18.158  0.00  0.00    +0.000 A 
ATOM      4  C   UNL     1       1.609   8.761  19.377  0.00  0.00    +0.000 A 
ATOM      5  C   UNL     1       2.167   7.556  19.815  0.00  0.00    +0.000 A 
ATOM      6  C   UNL     1       3.040   6.829  18.980  0.00  0.00    +0.000 A 
ENDROOT
BRANCH   4   7
ATOM      7  N   UNL     1       0.607   9.392  20.164  0.00  0.00    +0.000 N 
ATOM      8  C   UNL     1       0.600  10.743  20.465  0.00  0.00    +0.000 C 
ATOM      9  O   UNL     1       1.431  11.547  20.029  0.00  0.00    +0.000 OA
ATOM     10  H   UNL     1      -0.235   8.845  20.349  0.00  0.00    +0.000 HD
BRANCH   8  11
ATOM     11  C   UNL     1      -0.449  11.336  21.358  0.00  0.00    +0.000 A 
ATOM     12  C   UNL     1      -1.026  12.517  20.830  0.00  0.00    +0.000 A 
ATOM     13  C   UNL     1      -2.090  13.170  21.452  0.00  0.00    +0.000 A 
ATOM     14  C   UNL     1      -2.606  12.663  22.634  0.00  0.00    +0.000 A 
ATOM     15  C   UNL     1      -2.045  11.512  23.191  0.00  0.00    +0.000 A 
ATOM     16  C   UNL     1      -0.977  10.829  22.559  0.00  0.00    +0.000 A 
BRANCH  16  17
ATOM     17  C   UNL     1      -0.448   9.628  23.240  0.00  0.00    +0.000 C 
ATOM     18  O   UNL     1       0.398   9.687  24.121  0.00  0.00    +0.000 OA
BRANCH  17  19
ATOM     19  O   UNL     1      -0.994   8.462  22.845  0.00  0.00    +0.000 OA
ATOM     20  H   UNL     1      -1.907   8.279  23.138  0.00  0.00    +0.000 HD
ENDBRANCH  17  19
ENDBRANCH  16  17
ENDBRANCH   8  11
ENDBRANCH   4   7
BRANCH   1  21
ATOM     21  C   UNL     1       4.155   6.472  16.707  0.00  0.00    +0.000 C 
BRANCH  21  26
ATOM     22  C   UNL     1       5.488   4.459  17.569  0.00  0.00    +0.000 A 
ATOM     23  N   UNL     1       6.653   4.278  18.169  0.00  0.00    +0.000 NA
ATOM     24  C   UNL     1       7.226   5.511  18.290  0.00  0.00    +0.000 A 
ATOM     25  C   UNL     1       6.413   6.472  17.749  0.00  0.00    +0.000 A 
ATOM     26  N   UNL     1       5.320   5.796  17.258  0.00  0.00    +0.000 N 
BRANCH  22  27
ATOM     27  C   UNL     1       4.529   3.336  17.285  0.00  0.00    +0.000 C 
BRANCH  27  28
ATOM     28  C   UNL     1       3.642   3.038  18.507  0.00  0.00    +0.000 C 
BRANCH  28  29
ATOM     29  C   UNL     1       2.145   2.970  18.173  0.00  0.00    +0.000 C 
BRANCH  29  30
ATOM     30  C   UNL     1       1.315   3.740  19.213  0.00  0.00    +0.000 C 
BRANCH  30  32
ATOM     31  C   UNL     1       2.042   3.544  21.622  0.00  0.00    +0.000 C 
ATOM     32  C   UNL     1       1.151   2.971  20.527  0.00  0.00    +0.000 C 
ENDBRANCH  30  32
ENDBRANCH  29  30
ENDBRANCH  28  29
ENDBRANCH  27  28
ENDBRANCH  22  27
ENDBRANCH  21  26
ENDBRANCH   1  21
TORSDOF 11
ENDMDL
MODEL 8
REMARK VINA RESULT:      -7.9      1.397      2.428
REMARK  Name = 
REMARK  12 active torsions:
REMARK  status: ('A' for Active; 'I' for Inactive)
REMARK    1  A    between atoms: C_1  and  C_2
REMARK    2  A    between atoms: C_2  and  C_3
REMARK    3  A    between atoms: C_3  and  C_4
REMARK    4  A    between atoms: C_4  and  C_5
REMARK    5  A    between atoms: C_5  and  C_6
REMARK    6  A    between atoms: C_6  and  C_7
REMARK    7  A    between atoms: N_11  and  C_12
REMARK    8  A    between atoms: C_12  and  C_13
REMARK    9  A    between atoms: C_16  and  N_17
REMARK   10  A    between atoms: C_18  and  C_20
REMARK   11  A    between atoms: C_25  and  C_26
REMARK   12  A    between atoms: C_26  and  O_28
REMARK                            x       y       z     vdW  Elec       q    Type
REMARK                         _______ _______ _______ _____ _____    ______ ____
ROOT
ATOM      1  C   UNL     1       3.218   6.536  18.582  0.00  0.00    +0.000 A 
ATOM      2  C   UNL     1       3.074   7.691  17.810  0.00  0.00    +0.000 A 
ATOM      3  C   UNL     1       2.196   8.708  18.199  0.00  0.00    +0.000 A 
ATOM      4  C   UNL     1       1.435   8.603  19.367  0.00  0.00    +0.000 A 
ATOM      5  C   UNL     1       1.663   7.510  20.207  0.00  0.00    +0.000 A 
ATOM      6  C   UNL     1       2.537   6.477  19.813  0.00  0.00    +0.000 A 
ENDROOT
BRANCH   4   7
ATOM      7  N   UNL     1       0.429   9.548  19.708  0.00  0.00    +0.000 N 
ATOM      8  C   UNL     1       0.484  10.365  20.824  0.00  0.00    +0.000 C 
ATOM      9  O   UNL     1       1.443  10.398  21.603  0.00  0.00    +0.000 OA
ATOM     10  H   UNL     1      -0.265   9.751  18.987  0.00  0.00    +0.000 HD
BRANCH   8  11
ATOM     11  C   UNL     1      -0.644  11.293  21.167  0.00  0.00    +0.000 A 
ATOM     12  C   UNL     1      -1.045  11.203  22.522  0.00  0.00    +0.000 A 
ATOM     13  C   UNL     1      -2.007  12.050  23.073  0.00  0.00    +0.000 A 
ATOM     14  C   UNL     1      -2.606  13.012  22.276  0.00  0.00    +0.000 A 
ATOM     15  C   UNL     1      -2.247  13.112  20.931  0.00  0.00    +0.000 A 
ATOM     16  C   UNL     1      -1.258  12.271  20.364  0.00  0.00    +0.000 A 
BRANCH  16  17
ATOM     17  C   UNL     1      -0.963  12.452  18.927  0.00  0.00    +0.000 C 
ATOM     18  O   UNL     1      -0.227  13.336  18.510  0.00  0.00    +0.000 OA
BRANCH  17  19
ATOM     19  O   UNL     1      -1.534  11.547  18.109  0.00  0.00    +0.000 OA
ATOM     20  H   UNL     1      -1.941  11.888  17.289  0.00  0.00    +0.000 HD
ENDBRANCH  17  19
ENDBRANCH  16  17
ENDBRANCH   8  11
ENDBRANCH   4   7
BRANCH   1  21
ATOM     21  C   UNL     1       3.999   5.364  18.035  0.00  0.00    +0.000 C 
BRANCH  21  26
ATOM     22  C   UNL     1       6.226   5.654  16.796  0.00  0.00    +0.000 A 
ATOM     23  N   UNL     1       7.499   5.755  17.142  0.00  0.00    +0.000 NA
ATOM     24  C   UNL     1       7.537   5.715  18.506  0.00  0.00    +0.000 A 
ATOM     25  C   UNL     1       6.272   5.599  19.018  0.00  0.00    +0.000 A 
ATOM     26  N   UNL     1       5.432   5.595  17.928  0.00  0.00    +0.000 N 
BRANCH  22  27
ATOM     27  C   UNL     1       5.765   5.621  15.365  0.00  0.00    +0.000 C 
BRANCH  27  28
ATOM     28  C   UNL     1       6.748   4.832  14.482  0.00  0.00    +0.000 C 
BRANCH  28  29
ATOM     29  C   UNL     1       6.109   3.620  13.789  0.00  0.00    +0.000 C 
BRANCH  29  30
ATOM     30  C   UNL     1       5.501   4.019  12.436  0.00  0.00    +0.000 C 
BRANCH  30  32
ATOM     31  C   UNL     1       3.722   3.177  10.856  0.00  0.00    +0.000 C 
ATOM     32  C   UNL     1       4.975   2.818  11.645  0.00  0.00    +0.000 C 
ENDBRANCH  30  32
ENDBRANCH  29  30
ENDBRANCH  28  29
ENDBRANCH  27  28
ENDBRANCH  22  27
ENDBRANCH  21  26
ENDBRANCH   1  21
TORSDOF 11
ENDMDL
MODEL 9
REMARK VINA RESULT:      -7.9      1.013      1.526
REMARK  Name = 
REMARK  12 active torsions:
REMARK  status: ('A' for Active; 'I' for Inactive)
REMARK    1  A    between atoms: C_1  and  C_2
REMARK    2  A    between atoms: C_2  and  C_3
REMARK    3  A    between atoms: C_3  and  C_4
REMARK    4  A    between atoms: C_4  and  C_5
REMARK    5  A    between atoms: C_5  and  C_6
REMARK    6  A    between atoms: C_6  and  C_7
REMARK    7  A    between atoms: N_11  and  C_12
REMARK    8  A    between atoms: C_12  and  C_13
REMARK    9  A    between atoms: C_16  and  N_17
REMARK   10  A    between atoms: C_18  and  C_20
REMARK   11  A    between atoms: C_25  and  C_26
REMARK   12  A    between atoms: C_26  and  O_28
REMARK                            x       y       z     vdW  Elec       q    Type
REMARK                         _______ _______ _______ _____ _____    ______ ____
ROOT
ATOM      1  C   UNL     1       3.257   5.357  18.628  0.00  0.00    +0.000 A 
ATOM      2  C   UNL     1       2.494   5.178  19.784  0.00  0.00    +0.000 A 
ATOM      3  C   UNL     1       1.829   6.257  20.377  0.00  0.00    +0.000 A 
ATOM      4  C   UNL     1       1.906   7.544  19.837  0.00  0.00    +0.000 A 
ATOM      5  C   UNL     1       2.563   7.708  18.615  0.00  0.00    +0.000 A 
ATOM      6  C   UNL     1       3.246   6.627  18.021  0.00  0.00    +0.000 A 
ENDROOT
BRANCH   4   7
ATOM      7  N   UNL     1       1.366   8.681  20.498  0.00  0.00    +0.000 N 
ATOM      8  C   UNL     1       0.552   9.615  19.884  0.00  0.00    +0.000 C 
ATOM      9  O   UNL     1       0.161   9.523  18.716  0.00  0.00    +0.000 OA
ATOM     10  H   UNL     1       1.441   8.690  21.516  0.00  0.00    +0.000 HD
BRANCH   8  11
ATOM     11  C   UNL     1       0.071  10.832  20.619  0.00  0.00    +0.000 A 
ATOM     12  C   UNL     1      -0.146  11.945  19.770  0.00  0.00    +0.000 A 
ATOM     13  C   UNL     1      -0.689  13.143  20.234  0.00  0.00    +0.000 A 
ATOM     14  C   UNL     1      -1.026  13.266  21.572  0.00  0.00    +0.000 A 
ATOM     15  C   UNL     1      -0.806  12.194  22.439  0.00  0.00    +0.000 A 
ATOM     16  C   UNL     1      -0.273  10.966  21.976  0.00  0.00    +0.000 A 
BRANCH  16  17
ATOM     17  C   UNL     1      -0.068   9.900  22.980  0.00  0.00    +0.000 C 
ATOM     18  O   UNL     1       0.992   9.743  23.569  0.00  0.00    +0.000 OA
BRANCH  17  19
ATOM     19  O   UNL     1      -1.148   9.133  23.225  0.00  0.00    +0.000 OA
ATOM     20  H   UNL     1      -1.089   8.516  23.980  0.00  0.00    +0.000 HD
ENDBRANCH  17  19
ENDBRANCH  16  17
ENDBRANCH   8  11
ENDBRANCH   4   7
BRANCH   1  21
ATOM     21  C   UNL     1       4.138   4.234  18.132  0.00  0.00    +0.000 C 
BRANCH  21  26
ATOM     22  C   UNL     1       6.337   4.355  16.818  0.00  0.00    +0.000 A 
ATOM     23  N   UNL     1       7.571   4.762  17.066  0.00  0.00    +0.000 NA
ATOM     24  C   UNL     1       7.572   5.245  18.343  0.00  0.00    +0.000 A 
ATOM     25  C   UNL     1       6.322   5.149  18.894  0.00  0.00    +0.000 A 
ATOM     26  N   UNL     1       5.526   4.612  17.909  0.00  0.00    +0.000 N 
BRANCH  22  27
ATOM     27  C   UNL     1       5.930   3.718  15.517  0.00  0.00    +0.000 C 
BRANCH  27  28
ATOM     28  C   UNL     1       6.081   4.703  14.344  0.00  0.00    +0.000 C 
BRANCH  28  29
ATOM     29  C   UNL     1       7.220   4.334  13.381  0.00  0.00    +0.000 C 
BRANCH  29  30
ATOM     30  C   UNL     1       6.678   4.064  11.969  0.00  0.00    +0.000 C 
BRANCH  30  32
ATOM     31  C   UNL     1       5.952   1.710  11.421  0.00  0.00    +0.000 C 
ATOM     32  C   UNL     1       5.516   3.067  11.960  0.00  0.00    +0.000 C 
ENDBRANCH  30  32
ENDBRANCH  29  30
ENDBRANCH  28  29
ENDBRANCH  27  28
ENDBRANCH  22  27
ENDBRANCH  21  26
ENDBRANCH   1  21
TORSDOF 11
ENDMDL
