MODEL 1
REMARK VINA RESULT:      -8.9      0.000      0.000
REMARK  Name = 
REMARK  5 active torsions:
REMARK  status: ('A' for Active; 'I' for Inactive)
REMARK    1  A    between atoms: C_2  and  C_19
REMARK    2  A    between atoms: N_3  and  C_4
REMARK    3  A    between atoms: C_4  and  C_5
REMARK    4  A    between atoms: C_5  and  N_6
REMARK    5  A    between atoms: N_9  and  C_10
REMARK                            x       y       z     vdW  Elec       q    Type
REMARK                         _______ _______ _______ _____ _____    ______ ____
ROOT
ATOM      1  O   UNL     1       1.770   8.316  20.893  0.00  0.00    +0.000 OA
ATOM      2  C   UNL     1       1.947   7.738  19.822  0.00  0.00    +0.000 C 
ATOM      3  N   UNL     1       1.992   8.419  18.625  0.00  0.00    +0.000 N 
ATOM      4  H   UNL     1       1.873   7.889  17.755  0.00  0.00    +0.000 HD
ENDROOT
BRANCH   2   5
ATOM      5  C   UNL     1       2.112   6.258  19.765  0.00  0.00    +0.000 A 
ATOM      6  C   UNL     1       1.416   5.536  20.663  0.00  0.00    +0.000 A 
ATOM      7  C   UNL     1       1.480   4.099  20.683  0.00  0.00    +0.000 A 
ATOM      8  C   UNL     1       2.238   3.458  19.789  0.00  0.00    +0.000 A 
ATOM      9  N   UNL     1       2.985   4.141  18.831  0.00  0.00    +0.000 N 
ATOM     10  C   UNL     1       3.745   3.393  17.931  0.00  0.00    +0.000 A 
ATOM     11  O   UNL     1       3.801   2.159  17.910  0.00  0.00    +0.000 OA
ATOM     12  C   UNL     1       4.523   4.156  16.941  0.00  0.00    +0.000 A 
ATOM     13  C   UNL     1       5.325   3.510  15.990  0.00  0.00    +0.000 A 
ATOM     14  C   UNL     1       6.046   4.267  15.066  0.00  0.00    +0.000 A 
ATOM     15  C   UNL     1       5.962   5.659  15.090  0.00  0.00    +0.000 A 
ATOM     16  C   UNL     1       5.161   6.293  16.043  0.00  0.00    +0.000 A 
ATOM     17  C   UNL     1       4.439   5.543  16.976  0.00  0.00    +0.000 A 
ATOM     18  N   UNL     1       3.657   6.224  17.912  0.00  0.00    +0.000 NA
ATOM     19  C   UNL     1       2.974   5.539  18.775  0.00  0.00    +0.000 A 
ENDBRANCH   2   5
BRANCH   3  20
ATOM     20  C   UNL     1       1.735   9.847  18.627  0.00  0.00    +0.000 C 
BRANCH  20  21
ATOM     21  C   UNL     1       0.465  10.289  17.874  0.00  0.00    +0.000 C 
BRANCH  21  22
ATOM     22  N   UNL     1      -0.785   9.724  18.419  0.00  0.00    +0.000 NA
ATOM     23  C   UNL     1      -1.250  10.398  19.657  0.00  0.00    +0.000 C 
ATOM     24  C   UNL     1      -1.927  11.784  19.503  0.00  0.00    +0.000 C 
ATOM     25  N   UNL     1      -2.913  11.821  18.410  0.00  0.00    +0.000 N 
ATOM     26  C   UNL     1      -2.466  11.183  17.156  0.00  0.00    +0.000 C 
ATOM     27  C   UNL     1      -1.889   9.773  17.430  0.00  0.00    +0.000 C 
BRANCH  25  28
ATOM     28  C   UNL     1      -4.281  11.878  18.649  0.00  0.00    +0.000 A 
ATOM     29  C   UNL     1      -5.232  11.258  17.826  0.00  0.00    +0.000 A 
ATOM     30  C   UNL     1      -6.605  11.362  18.082  0.00  0.00    +0.000 A 
ATOM     31  C   UNL     1      -7.059  12.082  19.182  0.00  0.00    +0.000 A 
ATOM     32  C   UNL     1      -6.134  12.683  20.027  0.00  0.00    +0.000 A 
ATOM     33 CL   UNL     1      -6.678  13.581  21.391  0.00  0.00    +0.000 Cl
ATOM     34  C   UNL     1      -4.766  12.573  19.771  0.00  0.00    +0.000 A 
ENDBRANCH  25  28
ENDBRANCH  21  22
ENDBRANCH  20  21
ENDBRANCH   3  20
TORSDOF 5
ENDMDL
MODEL 2
REMARK VINA RESULT:      -8.6      1.334      1.674
REMARK  Name = 
REMARK  5 active torsions:
REMARK  status: ('A' for Active; 'I' for Inactive)
REMARK    1  A    between atoms: C_2  and  C_19
REMARK    2  A    between atoms: N_3  and  C_4
REMARK    3  A    between atoms: C_4  and  C_5
REMARK    4  A    between atoms: C_5  and  N_6
REMARK    5  A    between atoms: N_9  and  C_10
REMARK                            x       y       z     vdW  Elec       q    Type
REMARK                         _______ _______ _______ _____ _____    ______ ____
ROOT
ATOM      1  O   UNL     1       1.851   8.012  21.014  0.00  0.00    +0.000 OA
ATOM      2  C   UNL     1       1.975   7.465  19.919  0.00  0.00    +0.000 C 
ATOM      3  N   UNL     1       1.945   8.180  18.741  0.00  0.00    +0.000 N 
ATOM      4  H   UNL     1       1.783   7.673  17.864  0.00  0.00    +0.000 HD
ENDROOT
BRANCH   2   5
ATOM      5  C   UNL     1       2.154   5.990  19.811  0.00  0.00    +0.000 A 
ATOM      6  C   UNL     1       1.476   5.232  20.692  0.00  0.00    +0.000 A 
ATOM      7  C   UNL     1       1.555   3.796  20.664  0.00  0.00    +0.000 A 
ATOM      8  C   UNL     1       2.309   3.193  19.741  0.00  0.00    +0.000 A 
ATOM      9  N   UNL     1       3.039   3.915  18.799  0.00  0.00    +0.000 N 
ATOM     10  C   UNL     1       3.797   3.204  17.866  0.00  0.00    +0.000 A 
ATOM     11  O   UNL     1       3.864   1.973  17.804  0.00  0.00    +0.000 OA
ATOM     12  C   UNL     1       4.555   4.008  16.894  0.00  0.00    +0.000 A 
ATOM     13  C   UNL     1       5.354   3.403  15.914  0.00  0.00    +0.000 A 
ATOM     14  C   UNL     1       6.056   4.197  15.008  0.00  0.00    +0.000 A 
ATOM     15  C   UNL     1       5.958   5.586  15.079  0.00  0.00    +0.000 A 
ATOM     16  C   UNL     1       5.161   6.180  16.061  0.00  0.00    +0.000 A 
ATOM     17  C   UNL     1       4.457   5.393  16.975  0.00  0.00    +0.000 A 
ATOM     18  N   UNL     1       3.679   6.034  17.941  0.00  0.00    +0.000 NA
ATOM     19  C   UNL     1       3.012   5.314  18.789  0.00  0.00    +0.000 A 
ENDBRANCH   2   5
BRANCH   3  20
ATOM     20  C   UNL     1       1.671   9.604  18.797  0.00  0.00    +0.000 C 
BRANCH  20  21
ATOM     21  C   UNL     1       0.344  10.046  18.149  0.00  0.00    +0.000 C 
BRANCH  21  22
ATOM     22  N   UNL     1      -0.846   9.799  18.987  0.00  0.00    +0.000 NA
ATOM     23  C   UNL     1      -0.687  10.254  20.390  0.00  0.00    +0.000 C 
ATOM     24  C   UNL     1      -0.794  11.776  20.663  0.00  0.00    +0.000 C 
ATOM     25  N   UNL     1      -1.930  12.404  19.969  0.00  0.00    +0.000 N 
ATOM     26  C   UNL     1      -2.095  11.992  18.560  0.00  0.00    +0.000 C 
ATOM     27  C   UNL     1      -2.056  10.450  18.429  0.00  0.00    +0.000 C 
BRANCH  25  28
ATOM     28  C   UNL     1      -3.063  12.840  20.646  0.00  0.00    +0.000 A 
ATOM     29  C   UNL     1      -4.355  12.773  20.107  0.00  0.00    +0.000 A 
ATOM     30  C   UNL     1      -5.470  13.250  20.808  0.00  0.00    +0.000 A 
ATOM     31  C   UNL     1      -5.316  13.795  22.078  0.00  0.00    +0.000 A 
ATOM     32  C   UNL     1      -4.049  13.847  22.645  0.00  0.00    +0.000 A 
ATOM     33 CL   UNL     1      -3.839  14.522  24.214  0.00  0.00    +0.000 Cl
ATOM     34  C   UNL     1      -2.940  13.367  21.944  0.00  0.00    +0.000 A 
ENDBRANCH  25  28
ENDBRANCH  21  22
ENDBRANCH  20  21
ENDBRANCH   3  20
TORSDOF 5
ENDMDL
MODEL 3
REMARK VINA RESULT:      -8.6      7.345     11.274
REMARK  Name = 
REMARK  5 active torsions:
REMARK  status: ('A' for Active; 'I' for Inactive)
REMARK    1  A    between atoms: C_2  and  C_19
REMARK    2  A    between atoms: N_3  and  C_4
REMARK    3  A    between atoms: C_4  and  C_5
REMARK    4  A    between atoms: C_5  and  N_6
REMARK    5  A    between atoms: N_9  and  C_10
REMARK                            x       y       z     vdW  Elec       q    Type
REMARK                         _______ _______ _______ _____ _____    ______ ____
ROOT
ATOM      1  O   UNL     1       9.112  10.463  20.004  0.00  0.00    +0.000 OA
ATOM      2  C   UNL     1       9.276  10.642  18.798  0.00  0.00    +0.000 C 
ATOM      3  N   UNL     1       8.861   9.720  17.862  0.00  0.00    +0.000 N 
ATOM      4  H   UNL     1       9.248   9.777  16.914  0.00  0.00    +0.000 HD
ENDROOT
BRANCH   2   5
ATOM      5  C   UNL     1       9.947  11.871  18.288  0.00  0.00    +0.000 A 
ATOM      6  C   UNL     1      11.160  11.709  17.728  0.00  0.00    +0.000 A 
ATOM      7  C   UNL     1      11.888  12.822  17.180  0.00  0.00    +0.000 A 
ATOM      8  C   UNL     1      11.352  14.045  17.215  0.00  0.00    +0.000 A 
ATOM      9  N   UNL     1      10.101  14.285  17.779  0.00  0.00    +0.000 N 
ATOM     10  C   UNL     1       9.613  15.593  17.768  0.00  0.00    +0.000 A 
ATOM     11  O   UNL     1      10.205  16.563  17.284  0.00  0.00    +0.000 OA
ATOM     12  C   UNL     1       8.290  15.801  18.381  0.00  0.00    +0.000 A 
ATOM     13  C   UNL     1       7.702  17.072  18.430  0.00  0.00    +0.000 A 
ATOM     14  C   UNL     1       6.446  17.231  19.016  0.00  0.00    +0.000 A 
ATOM     15  C   UNL     1       5.781  16.124  19.544  0.00  0.00    +0.000 A 
ATOM     16  C   UNL     1       6.377  14.861  19.492  0.00  0.00    +0.000 A 
ATOM     17  C   UNL     1       7.636  14.695  18.911  0.00  0.00    +0.000 A 
ATOM     18  N   UNL     1       8.191  13.413  18.888  0.00  0.00    +0.000 NA
ATOM     19  C   UNL     1       9.356  13.243  18.342  0.00  0.00    +0.000 A 
ENDBRANCH   2   5
BRANCH   3  20
ATOM     20  C   UNL     1       8.295   8.466  18.322  0.00  0.00    +0.000 C 
BRANCH  20  21
ATOM     21  C   UNL     1       7.385   7.742  17.310  0.00  0.00    +0.000 C 
BRANCH  21  22
ATOM     22  N   UNL     1       7.353   6.275  17.471  0.00  0.00    +0.000 NA
ATOM     23  C   UNL     1       7.034   5.838  18.853  0.00  0.00    +0.000 C 
ATOM     24  C   UNL     1       5.555   5.934  19.308  0.00  0.00    +0.000 C 
ATOM     25  N   UNL     1       4.612   5.424  18.300  0.00  0.00    +0.000 N 
ATOM     26  C   UNL     1       4.887   5.868  16.919  0.00  0.00    +0.000 C 
ATOM     27  C   UNL     1       6.375   5.642  16.554  0.00  0.00    +0.000 C 
BRANCH  25  28
ATOM     28  C   UNL     1       3.929   4.225  18.464  0.00  0.00    +0.000 A 
ATOM     29  C   UNL     1       3.861   3.237  17.472  0.00  0.00    +0.000 A 
ATOM     30  C   UNL     1       3.137   2.052  17.664  0.00  0.00    +0.000 A 
ATOM     31  C   UNL     1       2.474   1.824  18.865  0.00  0.00    +0.000 A 
ATOM     32  C   UNL     1       2.550   2.777  19.873  0.00  0.00    +0.000 A 
ATOM     33 CL   UNL     1       1.733   2.513  21.364  0.00  0.00    +0.000 Cl
ATOM     34  C   UNL     1       3.276   3.955  19.679  0.00  0.00    +0.000 A 
ENDBRANCH  25  28
ENDBRANCH  21  22
ENDBRANCH  20  21
ENDBRANCH   3  20
TORSDOF 5
ENDMDL
MODEL 4
REMARK VINA RESULT:      -8.6      2.471      3.218
REMARK  Name = 
REMARK  5 active torsions:
REMARK  status: ('A' for Active; 'I' for Inactive)
REMARK    1  A    between atoms: C_2  and  C_19
REMARK    2  A    between atoms: N_3  and  C_4
REMARK    3  A    between atoms: C_4  and  C_5
REMARK    4  A    between atoms: C_5  and  N_6
REMARK    5  A    between atoms: N_9  and  C_10
REMARK                            x       y       z     vdW  Elec       q    Type
REMARK                         _______ _______ _______ _____ _____    ______ ____
ROOT
ATOM      1  O   UNL     1       1.857   8.294  20.643  0.00  0.00    +0.000 OA
ATOM      2  C   UNL     1       2.025   7.689  19.586  0.00  0.00    +0.000 C 
ATOM      3  N   UNL     1       2.106   8.343  18.376  0.00  0.00    +0.000 N 
ATOM      4  H   UNL     1       1.979   7.800  17.515  0.00  0.00    +0.000 HD
ENDROOT
BRANCH   2   5
ATOM      5  C   UNL     1       2.141   6.203  19.560  0.00  0.00    +0.000 A 
ATOM      6  C   UNL     1       1.399   5.523  20.453  0.00  0.00    +0.000 A 
ATOM      7  C   UNL     1       1.413   4.086  20.502  0.00  0.00    +0.000 A 
ATOM      8  C   UNL     1       2.171   3.402  19.640  0.00  0.00    +0.000 A 
ATOM      9  N   UNL     1       2.965   4.041  18.689  0.00  0.00    +0.000 N 
ATOM     10  C   UNL     1       3.721   3.249  17.823  0.00  0.00    +0.000 A 
ATOM     11  O   UNL     1       3.735   2.014  17.827  0.00  0.00    +0.000 OA
ATOM     12  C   UNL     1       4.549   3.967  16.839  0.00  0.00    +0.000 A 
ATOM     13  C   UNL     1       5.352   3.276  15.922  0.00  0.00    +0.000 A 
ATOM     14  C   UNL     1       6.121   3.990  15.003  0.00  0.00    +0.000 A 
ATOM     15  C   UNL     1       6.084   5.384  14.999  0.00  0.00    +0.000 A 
ATOM     16  C   UNL     1       5.282   6.063  15.919  0.00  0.00    +0.000 A 
ATOM     17  C   UNL     1       4.511   5.356  16.846  0.00  0.00    +0.000 A 
ATOM     18  N   UNL     1       3.730   6.081  17.749  0.00  0.00    +0.000 NA
ATOM     19  C   UNL     1       3.002   5.437  18.607  0.00  0.00    +0.000 A 
ENDBRANCH   2   5
BRANCH   3  20
ATOM     20  C   UNL     1       1.898   9.779  18.346  0.00  0.00    +0.000 C 
BRANCH  20  21
ATOM     21  C   UNL     1       0.487  10.248  18.751  0.00  0.00    +0.000 C 
BRANCH  21  22
ATOM     22  N   UNL     1       0.451  11.592  19.361  0.00  0.00    +0.000 NA
ATOM     23  C   UNL     1      -0.856  12.278  19.206  0.00  0.00    +0.000 C 
ATOM     24  C   UNL     1      -2.018  11.815  20.123  0.00  0.00    +0.000 C 
ATOM     25  N   UNL     1      -1.607  11.648  21.526  0.00  0.00    +0.000 N 
ATOM     26  C   UNL     1      -0.324  10.942  21.713  0.00  0.00    +0.000 C 
ATOM     27  C   UNL     1       0.776  11.549  20.807  0.00  0.00    +0.000 C 
BRANCH  25  28
ATOM     28  C   UNL     1      -2.004  12.530  22.524  0.00  0.00    +0.000 A 
ATOM     29  C   UNL     1      -3.191  12.380  23.255  0.00  0.00    +0.000 A 
ATOM     30  C   UNL     1      -3.574  13.307  24.234  0.00  0.00    +0.000 A 
ATOM     31  C   UNL     1      -2.764  14.403  24.513  0.00  0.00    +0.000 A 
ATOM     32  C   UNL     1      -1.570  14.558  23.821  0.00  0.00    +0.000 A 
ATOM     33 CL   UNL     1      -0.558  15.910  24.151  0.00  0.00    +0.000 Cl
ATOM     34  C   UNL     1      -1.191  13.630  22.849  0.00  0.00    +0.000 A 
ENDBRANCH  25  28
ENDBRANCH  21  22
ENDBRANCH  20  21
ENDBRANCH   3  20
TORSDOF 5
ENDMDL
MODEL 5
REMARK VINA RESULT:      -8.5      6.938     10.312
REMARK  Name = 
REMARK  5 active torsions:
REMARK  status: ('A' for Active; 'I' for Inactive)
REMARK    1  A    between atoms: C_2  and  C_19
REMARK    2  A    between atoms: N_3  and  C_4
REMARK    3  A    between atoms: C_4  and  C_5
REMARK    4  A    between atoms: C_5  and  N_6
REMARK    5  A    between atoms: N_9  and  C_10
REMARK                            x       y       z     vdW  Elec       q    Type
REMARK                         _______ _______ _______ _____ _____    ______ ____
ROOT
ATOM      1  O   UNL     1       7.640   6.158  19.409  0.00  0.00    +0.000 OA
ATOM      2  C   UNL     1       7.337   6.523  18.274  0.00  0.00    +0.000 C 
ATOM      3  N   UNL     1       7.752   7.734  17.764  0.00  0.00    +0.000 N 
ATOM      4  H   UNL     1       7.268   8.111  16.942  0.00  0.00    +0.000 HD
ENDROOT
BRANCH   2   5
ATOM      5  C   UNL     1       6.490   5.671  17.392  0.00  0.00    +0.000 A 
ATOM      6  C   UNL     1       6.998   5.358  16.185  0.00  0.00    +0.000 A 
ATOM      7  C   UNL     1       6.279   4.522  15.262  0.00  0.00    +0.000 A 
ATOM      8  C   UNL     1       5.083   4.034  15.605  0.00  0.00    +0.000 A 
ATOM      9  N   UNL     1       4.497   4.318  16.837  0.00  0.00    +0.000 N 
ATOM     10  C   UNL     1       3.247   3.762  17.116  0.00  0.00    +0.000 A 
ATOM     11  O   UNL     1       2.618   3.022  16.353  0.00  0.00    +0.000 OA
ATOM     12  C   UNL     1       2.664   4.093  18.427  0.00  0.00    +0.000 A 
ATOM     13  C   UNL     1       1.413   3.595  18.814  0.00  0.00    +0.000 A 
ATOM     14  C   UNL     1       0.893   3.928  20.065  0.00  0.00    +0.000 A 
ATOM     15  C   UNL     1       1.621   4.751  20.924  0.00  0.00    +0.000 A 
ATOM     16  C   UNL     1       2.867   5.245  20.527  0.00  0.00    +0.000 A 
ATOM     17  C   UNL     1       3.393   4.919  19.275  0.00  0.00    +0.000 A 
ATOM     18  N   UNL     1       4.640   5.442  18.923  0.00  0.00    +0.000 NA
ATOM     19  C   UNL     1       5.144   5.139  17.767  0.00  0.00    +0.000 A 
ENDBRANCH   2   5
BRANCH   3  20
ATOM     20  C   UNL     1       8.492   8.636  18.626  0.00  0.00    +0.000 C 
BRANCH  20  21
ATOM     21  C   UNL     1       8.835  10.006  18.009  0.00  0.00    +0.000 C 
BRANCH  21  22
ATOM     22  N   UNL     1       9.495  10.940  18.943  0.00  0.00    +0.000 NA
ATOM     23  C   UNL     1      10.873  11.310  18.534  0.00  0.00    +0.000 C 
ATOM     24  C   UNL     1      11.024  12.334  17.381  0.00  0.00    +0.000 C 
ATOM     25  N   UNL     1      10.124  13.491  17.521  0.00  0.00    +0.000 N 
ATOM     26  C   UNL     1       8.737  13.150  17.897  0.00  0.00    +0.000 C 
ATOM     27  C   UNL     1       8.717  12.190  19.112  0.00  0.00    +0.000 C 
BRANCH  25  28
ATOM     28  C   UNL     1      10.590  14.754  17.865  0.00  0.00    +0.000 A 
ATOM     29  C   UNL     1      11.904  15.001  18.288  0.00  0.00    +0.000 A 
ATOM     30  C   UNL     1      12.329  16.285  18.655  0.00  0.00    +0.000 A 
ATOM     31  C   UNL     1      11.446  17.358  18.593  0.00  0.00    +0.000 A 
ATOM     32  C   UNL     1      10.147  17.143  18.151  0.00  0.00    +0.000 A 
ATOM     33 CL   UNL     1       9.040  18.458  18.071  0.00  0.00    +0.000 Cl
ATOM     34  C   UNL     1       9.728  15.862  17.782  0.00  0.00    +0.000 A 
ENDBRANCH  25  28
ENDBRANCH  21  22
ENDBRANCH  20  21
ENDBRANCH   3  20
TORSDOF 5
ENDMDL
MODEL 6
REMARK VINA RESULT:      -8.4      2.633      3.648
REMARK  Name = 
REMARK  5 active torsions:
REMARK  status: ('A' for Active; 'I' for Inactive)
REMARK    1  A    between atoms: C_2  and  C_19
REMARK    2  A    between atoms: N_3  and  C_4
REMARK    3  A    between atoms: C_4  and  C_5
REMARK    4  A    between atoms: C_5  and  N_6
REMARK    5  A    between atoms: N_9  and  C_10
REMARK                            x       y       z     vdW  Elec       q    Type
REMARK                         _______ _______ _______ _____ _____    ______ ____
ROOT
ATOM      1  O   UNL     1       2.012   8.171  20.736  0.00  0.00    +0.000 OA
ATOM      2  C   UNL     1       2.052   7.570  19.664  0.00  0.00    +0.000 C 
ATOM      3  N   UNL     1       1.949   8.226  18.457  0.00  0.00    +0.000 N 
ATOM      4  H   UNL     1       1.721   7.679  17.620  0.00  0.00    +0.000 HD
ENDROOT
BRANCH   2   5
ATOM      5  C   UNL     1       2.204   6.088  19.618  0.00  0.00    +0.000 A 
ATOM      6  C   UNL     1       1.501   5.379  20.520  0.00  0.00    +0.000 A 
ATOM      7  C   UNL     1       1.552   3.943  20.552  0.00  0.00    +0.000 A 
ATOM      8  C   UNL     1       2.306   3.288  19.664  0.00  0.00    +0.000 A 
ATOM      9  N   UNL     1       3.061   3.958  18.703  0.00  0.00    +0.000 N 
ATOM     10  C   UNL     1       3.817   3.195  17.810  0.00  0.00    +0.000 A 
ATOM     11  O   UNL     1       3.862   1.961  17.798  0.00  0.00    +0.000 OA
ATOM     12  C   UNL     1       4.603   3.945  16.816  0.00  0.00    +0.000 A 
ATOM     13  C   UNL     1       5.402   3.285  15.872  0.00  0.00    +0.000 A 
ATOM     14  C   UNL     1       6.131   4.029  14.943  0.00  0.00    +0.000 A 
ATOM     15  C   UNL     1       6.058   5.421  14.957  0.00  0.00    +0.000 A 
ATOM     16  C   UNL     1       5.261   6.070  15.904  0.00  0.00    +0.000 A 
ATOM     17  C   UNL     1       4.531   5.333  16.840  0.00  0.00    +0.000 A 
ATOM     18  N   UNL     1       3.753   6.027  17.769  0.00  0.00    +0.000 NA
ATOM     19  C   UNL     1       3.062   5.355  18.636  0.00  0.00    +0.000 A 
ENDBRANCH   2   5
BRANCH   3  20
ATOM     20  C   UNL     1       1.699   9.655  18.460  0.00  0.00    +0.000 C 
BRANCH  20  21
ATOM     21  C   UNL     1       0.222  10.065  18.626  0.00  0.00    +0.000 C 
BRANCH  21  22
ATOM     22  N   UNL     1       0.004  11.524  18.680  0.00  0.00    +0.000 NA
ATOM     23  C   UNL     1      -1.301  11.906  19.275  0.00  0.00    +0.000 C 
ATOM     24  C   UNL     1      -1.438  11.814  20.816  0.00  0.00    +0.000 C 
ATOM     25  N   UNL     1      -0.281  12.382  21.528  0.00  0.00    +0.000 N 
ATOM     26  C   UNL     1       1.033  11.994  20.977  0.00  0.00    +0.000 C 
ATOM     27  C   UNL     1       1.073  12.212  19.444  0.00  0.00    +0.000 C 
BRANCH  25  28
ATOM     28  C   UNL     1      -0.356  13.584  22.222  0.00  0.00    +0.000 A 
ATOM     29  C   UNL     1       0.414  14.710  21.896  0.00  0.00    +0.000 A 
ATOM     30  C   UNL     1       0.332  15.895  22.637  0.00  0.00    +0.000 A 
ATOM     31  C   UNL     1      -0.537  15.985  23.720  0.00  0.00    +0.000 A 
ATOM     32  C   UNL     1      -1.330  14.891  24.045  0.00  0.00    +0.000 A 
ATOM     33 CL   UNL     1      -2.409  14.983  25.383  0.00  0.00    +0.000 Cl
ATOM     34  C   UNL     1      -1.249  13.712  23.300  0.00  0.00    +0.000 A 
ENDBRANCH  25  28
ENDBRANCH  21  22
ENDBRANCH  20  21
ENDBRANCH   3  20
TORSDOF 5
ENDMDL
MODEL 7
REMARK VINA RESULT:      -8.4      2.785      3.853
REMARK  Name = 
REMARK  5 active torsions:
REMARK  status: ('A' for Active; 'I' for Inactive)
REMARK    1  A    between atoms: C_2  and  C_19
REMARK    2  A    between atoms: N_3  and  C_4
REMARK    3  A    between atoms: C_4  and  C_5
REMARK    4  A    between atoms: C_5  and  N_6
REMARK    5  A    between atoms: N_9  and  C_10
REMARK                            x       y       z     vdW  Elec       q    Type
REMARK                         _______ _______ _______ _____ _____    ______ ____
ROOT
ATOM      1  O   UNL     1       2.309   8.060  19.166  0.00  0.00    +0.000 OA
ATOM      2  C   UNL     1       1.941   7.276  20.040  0.00  0.00    +0.000 C 
ATOM      3  N   UNL     1       1.349   7.710  21.206  0.00  0.00    +0.000 N 
ATOM      4  H   UNL     1       1.306   7.066  22.003  0.00  0.00    +0.000 HD
ENDROOT
BRANCH   2   5
ATOM      5  C   UNL     1       2.129   5.806  19.883  0.00  0.00    +0.000 A 
ATOM      6  C   UNL     1       1.459   5.015  20.742  0.00  0.00    +0.000 A 
ATOM      7  C   UNL     1       1.547   3.582  20.667  0.00  0.00    +0.000 A 
ATOM      8  C   UNL     1       2.301   3.014  19.722  0.00  0.00    +0.000 A 
ATOM      9  N   UNL     1       3.022   3.771  18.801  0.00  0.00    +0.000 N 
ATOM     10  C   UNL     1       3.781   3.095  17.843  0.00  0.00    +0.000 A 
ATOM     11  O   UNL     1       3.856   1.867  17.741  0.00  0.00    +0.000 OA
ATOM     12  C   UNL     1       4.531   3.935  16.894  0.00  0.00    +0.000 A 
ATOM     13  C   UNL     1       5.329   3.367  15.892  0.00  0.00    +0.000 A 
ATOM     14  C   UNL     1       6.023   4.194  15.010  0.00  0.00    +0.000 A 
ATOM     15  C   UNL     1       5.917   5.580  15.126  0.00  0.00    +0.000 A 
ATOM     16  C   UNL     1       5.120   6.137  16.130  0.00  0.00    +0.000 A 
ATOM     17  C   UNL     1       4.425   5.315  17.021  0.00  0.00    +0.000 A 
ATOM     18  N   UNL     1       3.646   5.920  18.011  0.00  0.00    +0.000 NA
ATOM     19  C   UNL     1       2.987   5.169  18.837  0.00  0.00    +0.000 A 
ENDBRANCH   2   5
BRANCH   3  20
ATOM     20  C   UNL     1       1.240   9.138  21.441  0.00  0.00    +0.000 C 
BRANCH  20  21
ATOM     21  C   UNL     1      -0.077   9.785  20.968  0.00  0.00    +0.000 C 
BRANCH  21  22
ATOM     22  N   UNL     1       0.050  10.565  19.721  0.00  0.00    +0.000 NA
ATOM     23  C   UNL     1      -1.119  11.439  19.449  0.00  0.00    +0.000 C 
ATOM     24  C   UNL     1      -1.239  12.747  20.272  0.00  0.00    +0.000 C 
ATOM     25  N   UNL     1       0.033  13.482  20.366  0.00  0.00    +0.000 N 
ATOM     26  C   UNL     1       1.210  12.642  20.667  0.00  0.00    +0.000 C 
ATOM     27  C   UNL     1       1.265  11.415  19.724  0.00  0.00    +0.000 C 
BRANCH  25  28
ATOM     28  C   UNL     1       0.253  14.673  19.683  0.00  0.00    +0.000 A 
ATOM     29  C   UNL     1       1.493  15.026  19.133  0.00  0.00    +0.000 A 
ATOM     30  C   UNL     1       1.684  16.249  18.477  0.00  0.00    +0.000 A 
ATOM     31  C   UNL     1       0.628  17.144  18.344  0.00  0.00    +0.000 A 
ATOM     32  C   UNL     1      -0.618  16.804  18.857  0.00  0.00    +0.000 A 
ATOM     33 CL   UNL     1      -1.935  17.901  18.706  0.00  0.00    +0.000 Cl
ATOM     34  C   UNL     1      -0.805  15.582  19.508  0.00  0.00    +0.000 A 
ENDBRANCH  25  28
ENDBRANCH  21  22
ENDBRANCH  20  21
ENDBRANCH   3  20
TORSDOF 5
ENDMDL
MODEL 8
REMARK VINA RESULT:      -8.4      1.975      2.863
REMARK  Name = 
REMARK  5 active torsions:
REMARK  status: ('A' for Active; 'I' for Inactive)
REMARK    1  A    between atoms: C_2  and  C_19
REMARK    2  A    between atoms: N_3  and  C_4
REMARK    3  A    between atoms: C_4  and  C_5
REMARK    4  A    between atoms: C_5  and  N_6
REMARK    5  A    between atoms: N_9  and  C_10
REMARK                            x       y       z     vdW  Elec       q    Type
REMARK                         _______ _______ _______ _____ _____    ______ ____
ROOT
ATOM      1  O   UNL     1       1.844   8.200  20.740  0.00  0.00    +0.000 OA
ATOM      2  C   UNL     1       2.024   7.615  19.673  0.00  0.00    +0.000 C 
ATOM      3  N   UNL     1       2.107   8.292  18.476  0.00  0.00    +0.000 N 
ATOM      4  H   UNL     1       1.989   7.763  17.605  0.00  0.00    +0.000 HD
ENDROOT
BRANCH   2   5
ATOM      5  C   UNL     1       2.151   6.131  19.622  0.00  0.00    +0.000 A 
ATOM      6  C   UNL     1       1.422   5.430  20.510  0.00  0.00    +0.000 A 
ATOM      7  C   UNL     1       1.448   3.992  20.534  0.00  0.00    +0.000 A 
ATOM      8  C   UNL     1       2.203   3.329  19.654  0.00  0.00    +0.000 A 
ATOM      9  N   UNL     1       2.984   3.990  18.707  0.00  0.00    +0.000 N 
ATOM     10  C   UNL     1       3.739   3.220  17.821  0.00  0.00    +0.000 A 
ATOM     11  O   UNL     1       3.763   1.985  17.804  0.00  0.00    +0.000 OA
ATOM     12  C   UNL     1       4.553   3.960  16.843  0.00  0.00    +0.000 A 
ATOM     13  C   UNL     1       5.353   3.291  15.907  0.00  0.00    +0.000 A 
ATOM     14  C   UNL     1       6.108   4.027  14.993  0.00  0.00    +0.000 A 
ATOM     15  C   UNL     1       6.060   5.420  15.013  0.00  0.00    +0.000 A 
ATOM     16  C   UNL     1       5.261   6.078  15.951  0.00  0.00    +0.000 A 
ATOM     17  C   UNL     1       4.504   5.349  16.873  0.00  0.00    +0.000 A 
ATOM     18  N   UNL     1       3.725   6.052  17.795  0.00  0.00    +0.000 NA
ATOM     19  C   UNL     1       3.010   5.388  18.648  0.00  0.00    +0.000 A 
ENDBRANCH   2   5
BRANCH   3  20
ATOM     20  C   UNL     1       1.887   9.726  18.471  0.00  0.00    +0.000 C 
BRANCH  20  21
ATOM     21  C   UNL     1       0.417  10.167  18.331  0.00  0.00    +0.000 C 
BRANCH  21  22
ATOM     22  N   UNL     1       0.188  11.598  18.614  0.00  0.00    +0.000 NA
ATOM     23  C   UNL     1      -1.245  11.984  18.593  0.00  0.00    +0.000 C 
ATOM     24  C   UNL     1      -2.108  11.589  19.819  0.00  0.00    +0.000 C 
ATOM     25  N   UNL     1      -1.443  11.873  21.102  0.00  0.00    +0.000 N 
ATOM     26  C   UNL     1      -0.024  11.472  21.162  0.00  0.00    +0.000 C 
ATOM     27  C   UNL     1       0.750  11.997  19.927  0.00  0.00    +0.000 C 
BRANCH  25  28
ATOM     28  C   UNL     1      -1.854  12.906  21.936  0.00  0.00    +0.000 A 
ATOM     29  C   UNL     1      -1.123  13.327  23.055  0.00  0.00    +0.000 A 
ATOM     30  C   UNL     1      -1.584  14.353  23.890  0.00  0.00    +0.000 A 
ATOM     31  C   UNL     1      -2.788  14.993  23.613  0.00  0.00    +0.000 A 
ATOM     32  C   UNL     1      -3.516  14.611  22.493  0.00  0.00    +0.000 A 
ATOM     33 CL   UNL     1      -5.009  15.389  22.137  0.00  0.00    +0.000 Cl
ATOM     34  C   UNL     1      -3.051  13.590  21.661  0.00  0.00    +0.000 A 
ENDBRANCH  25  28
ENDBRANCH  21  22
ENDBRANCH  20  21
ENDBRANCH   3  20
TORSDOF 5
ENDMDL
MODEL 9
REMARK VINA RESULT:      -8.4      1.598      2.075
REMARK  Name = 
REMARK  5 active torsions:
REMARK  status: ('A' for Active; 'I' for Inactive)
REMARK    1  A    between atoms: C_2  and  C_19
REMARK    2  A    between atoms: N_3  and  C_4
REMARK    3  A    between atoms: C_4  and  C_5
REMARK    4  A    between atoms: C_5  and  N_6
REMARK    5  A    between atoms: N_9  and  C_10
REMARK                            x       y       z     vdW  Elec       q    Type
REMARK                         _______ _______ _______ _____ _____    ______ ____
ROOT
ATOM      1  O   UNL     1       1.825   7.890  21.132  0.00  0.00    +0.000 OA
ATOM      2  C   UNL     1       1.970   7.373  20.025  0.00  0.00    +0.000 C 
ATOM      3  N   UNL     1       1.960   8.118  18.866  0.00  0.00    +0.000 N 
ATOM      4  H   UNL     1       1.816   7.634  17.974  0.00  0.00    +0.000 HD
ENDROOT
BRANCH   2   5
ATOM      5  C   UNL     1       2.155   5.902  19.882  0.00  0.00    +0.000 A 
ATOM      6  C   UNL     1       1.489   5.120  20.753  0.00  0.00    +0.000 A 
ATOM      7  C   UNL     1       1.575   3.686  20.692  0.00  0.00    +0.000 A 
ATOM      8  C   UNL     1       2.322   3.107  19.748  0.00  0.00    +0.000 A 
ATOM      9  N   UNL     1       3.039   3.854  18.814  0.00  0.00    +0.000 N 
ATOM     10  C   UNL     1       3.791   3.168  17.859  0.00  0.00    +0.000 A 
ATOM     11  O   UNL     1       3.863   1.939  17.768  0.00  0.00    +0.000 OA
ATOM     12  C   UNL     1       4.536   3.998  16.897  0.00  0.00    +0.000 A 
ATOM     13  C   UNL     1       5.327   3.418  15.896  0.00  0.00    +0.000 A 
ATOM     14  C   UNL     1       6.017   4.236  15.001  0.00  0.00    +0.000 A 
ATOM     15  C   UNL     1       5.913   5.623  15.104  0.00  0.00    +0.000 A 
ATOM     16  C   UNL     1       5.124   6.191  16.107  0.00  0.00    +0.000 A 
ATOM     17  C   UNL     1       4.432   5.379  17.011  0.00  0.00    +0.000 A 
ATOM     18  N   UNL     1       3.661   5.995  17.999  0.00  0.00    +0.000 NA
ATOM     19  C   UNL     1       3.006   5.252  18.837  0.00  0.00    +0.000 A 
ENDBRANCH   2   5
BRANCH   3  20
ATOM     20  C   UNL     1       1.682   9.540  18.954  0.00  0.00    +0.000 C 
BRANCH  20  21
ATOM     21  C   UNL     1       0.439  10.017  18.178  0.00  0.00    +0.000 C 
BRANCH  21  22
ATOM     22  N   UNL     1      -0.787  10.098  18.995  0.00  0.00    +0.000 NA
ATOM     23  C   UNL     1      -0.541  10.546  20.389  0.00  0.00    +0.000 C 
ATOM     24  C   UNL     1      -0.274  12.056  20.615  0.00  0.00    +0.000 C 
ATOM     25  N   UNL     1      -1.210  12.921  19.879  0.00  0.00    +0.000 N 
ATOM     26  C   UNL     1      -1.451  12.516  18.479  0.00  0.00    +0.000 C 
ATOM     27  C   UNL     1      -1.791  11.008  18.392  0.00  0.00    +0.000 C 
BRANCH  25  28
ATOM     28  C   UNL     1      -2.210  13.644  20.518  0.00  0.00    +0.000 A 
ATOM     29  C   UNL     1      -2.129  15.023  20.758  0.00  0.00    +0.000 A 
ATOM     30  C   UNL     1      -3.145  15.712  21.433  0.00  0.00    +0.000 A 
ATOM     31  C   UNL     1      -4.277  15.034  21.873  0.00  0.00    +0.000 A 
ATOM     32  C   UNL     1      -4.392  13.673  21.623  0.00  0.00    +0.000 A 
ATOM     33 CL   UNL     1      -5.784  12.818  22.163  0.00  0.00    +0.000 Cl
ATOM     34  C   UNL     1      -3.379  12.990  20.946  0.00  0.00    +0.000 A 
ENDBRANCH  25  28
ENDBRANCH  21  22
ENDBRANCH  20  21
ENDBRANCH   3  20
TORSDOF 5
ENDMDL
