MODEL 1
REMARK VINA RESULT:      -8.8      0.000      0.000
REMARK  Name = 
REMARK  9 active torsions:
REMARK  status: ('A' for Active; 'I' for Inactive)
REMARK    1  A    between atoms: C_1  and  C_2
REMARK    2  A    between atoms: C_2  and  O_3
REMARK    3  A    between atoms: O_3  and  C_4
REMARK    4  A    between atoms: N_7  and  C_8
REMARK    5  A    between atoms: C_11  and  C_12
REMARK    6  A    between atoms: C_16  and  C_17
REMARK    7  A    between atoms: C_19  and  C_20
REMARK    8  A    between atoms: C_23  and  O_24
REMARK    9  A    between atoms: O_24  and  C_25
REMARK                            x       y       z     vdW  Elec       q    Type
REMARK                         _______ _______ _______ _____ _____    ______ ____
ROOT
ATOM      1  C   UNL     1       1.319   9.663  19.198  0.00  0.00    +0.000 A 
ATOM      2  C   UNL     1       1.823   9.382  17.904  0.00  0.00    +0.000 A 
ATOM      3  C   UNL     1       2.486   8.194  17.605  0.00  0.00    +0.000 A 
ATOM      4  C   UNL     1       2.627   7.236  18.600  0.00  0.00    +0.000 A 
ATOM      5  C   UNL     1       2.110   7.490  19.878  0.00  0.00    +0.000 A 
ATOM      6  C   UNL     1       1.389   8.654  20.165  0.00  0.00    +0.000 A 
ENDROOT
BRANCH   1  10
ATOM      7  C   UNL     1      -2.409  12.478  19.828  0.00  0.00    +0.000 A 
ATOM      8  N   UNL     1      -1.073  12.268  19.906  0.00  0.00    +0.000 NA
ATOM      9  C   UNL     1      -0.524  11.324  19.126  0.00  0.00    +0.000 A 
ATOM     10  N   UNL     1       0.791  10.947  19.446  0.00  0.00    +0.000 N 
ATOM     11  N   UNL     1      -1.162  10.653  18.151  0.00  0.00    +0.000 NA
ATOM     12  C   UNL     1      -2.469  10.908  18.091  0.00  0.00    +0.000 A 
ATOM     13  N   UNL     1      -3.345  10.293  17.243  0.00  0.00    +0.000 N 
ATOM     14  C   UNL     1      -4.617  10.730  17.509  0.00  0.00    +0.000 A 
ATOM     15  C   UNL     1      -4.538  11.663  18.525  0.00  0.00    +0.000 A 
ATOM     16  C   UNL     1      -3.171  11.781  18.894  0.00  0.00    +0.000 A 
ATOM     17  H   UNL     1       1.392  11.724  19.226  0.00  0.00    +0.000 HD
ATOM     18  H   UNL     1      -3.075   9.595  16.562  0.00  0.00    +0.000 HD
BRANCH   7  19
ATOM     19  O   UNL     1      -3.011  13.353  20.708  0.00  0.00    +0.000 OA
BRANCH  19  21
ATOM     20  C   UNL     1      -4.710  13.139  22.364  0.00  0.00    +0.000 C 
ATOM     21  C   UNL     1      -3.314  12.713  21.951  0.00  0.00    +0.000 C 
ENDBRANCH  19  21
ENDBRANCH   7  19
ENDBRANCH   1  10
BRANCH   4  22
ATOM     22  C   UNL     1       3.385   5.998  18.290  0.00  0.00    +0.000 C 
ATOM     23  O   UNL     1       3.918   5.917  17.190  0.00  0.00    +0.000 OA
ATOM     24  N   UNL     1       3.460   4.986  19.239  0.00  0.00    +0.000 N 
ATOM     25  C   UNL     1       4.428   3.914  19.055  0.00  0.00    +0.000 C 
ATOM     26  C   UNL     1       3.769   2.541  19.205  0.00  0.00    +0.000 C 
ATOM     27  C   UNL     1       2.969   2.145  17.970  0.00  0.00    +0.000 C 
ATOM     28  O   UNL     1       3.002   2.420  20.414  0.00  0.00    +0.000 OA
ATOM     29  C   UNL     1       2.123   3.505  20.738  0.00  0.00    +0.000 C 
ATOM     30  C   UNL     1       0.743   3.361  20.099  0.00  0.00    +0.000 C 
ATOM     31  C   UNL     1       2.717   4.894  20.496  0.00  0.00    +0.000 C 
ENDBRANCH   4  22
BRANCH   6  32
ATOM     32  O   UNL     1       0.931   8.700  21.454  0.00  0.00    +0.000 OA
ATOM     33  C   UNL     1      -0.467   8.533  21.666  0.00  0.00    +0.000 C 
ENDBRANCH   6  32
TORSDOF 5
ENDMDL
MODEL 2
REMARK VINA RESULT:      -8.2      1.934      3.036
REMARK  Name = 
REMARK  9 active torsions:
REMARK  status: ('A' for Active; 'I' for Inactive)
REMARK    1  A    between atoms: C_1  and  C_2
REMARK    2  A    between atoms: C_2  and  O_3
REMARK    3  A    between atoms: O_3  and  C_4
REMARK    4  A    between atoms: N_7  and  C_8
REMARK    5  A    between atoms: C_11  and  C_12
REMARK    6  A    between atoms: C_16  and  C_17
REMARK    7  A    between atoms: C_19  and  C_20
REMARK    8  A    between atoms: C_23  and  O_24
REMARK    9  A    between atoms: O_24  and  C_25
REMARK                            x       y       z     vdW  Elec       q    Type
REMARK                         _______ _______ _______ _____ _____    ______ ____
ROOT
ATOM      1  C   UNL     1       1.498   9.140  19.131  0.00  0.00    +0.000 A 
ATOM      2  C   UNL     1       2.151   8.943  17.888  0.00  0.00    +0.000 A 
ATOM      3  C   UNL     1       2.917   7.812  17.619  0.00  0.00    +0.000 A 
ATOM      4  C   UNL     1       3.017   6.824  18.590  0.00  0.00    +0.000 A 
ATOM      5  C   UNL     1       2.356   6.993  19.814  0.00  0.00    +0.000 A 
ATOM      6  C   UNL     1       1.535   8.098  20.064  0.00  0.00    +0.000 A 
ENDROOT
BRANCH   1  10
ATOM      7  C   UNL     1      -2.396  11.793  19.072  0.00  0.00    +0.000 A 
ATOM      8  N   UNL     1      -1.115  11.602  19.467  0.00  0.00    +0.000 NA
ATOM      9  C   UNL     1      -0.343  10.762  18.761  0.00  0.00    +0.000 A 
ATOM     10  N   UNL     1       0.865  10.377  19.366  0.00  0.00    +0.000 N 
ATOM     11  N   UNL     1      -0.682  10.191  17.591  0.00  0.00    +0.000 NA
ATOM     12  C   UNL     1      -1.942  10.426  17.226  0.00  0.00    +0.000 A 
ATOM     13  N   UNL     1      -2.545   9.893  16.123  0.00  0.00    +0.000 N 
ATOM     14  C   UNL     1      -3.864  10.272  16.099  0.00  0.00    +0.000 A 
ATOM     15  C   UNL     1      -4.087  11.087  17.191  0.00  0.00    +0.000 A 
ATOM     16  C   UNL     1      -2.865  11.190  17.907  0.00  0.00    +0.000 A 
ATOM     17  H   UNL     1       1.465  11.185  19.388  0.00  0.00    +0.000 HD
ATOM     18  H   UNL     1      -2.080   9.280  15.466  0.00  0.00    +0.000 HD
BRANCH   7  19
ATOM     19  O   UNL     1      -3.241  12.553  19.853  0.00  0.00    +0.000 OA
BRANCH  19  21
ATOM     20  C   UNL     1      -3.976  12.843  22.100  0.00  0.00    +0.000 C 
ATOM     21  C   UNL     1      -2.773  12.630  21.202  0.00  0.00    +0.000 C 
ENDBRANCH  19  21
ENDBRANCH   7  19
ENDBRANCH   1  10
BRANCH   4  22
ATOM     22  C   UNL     1       3.882   5.649  18.319  0.00  0.00    +0.000 C 
ATOM     23  O   UNL     1       3.724   4.653  19.014  0.00  0.00    +0.000 OA
ATOM     24  N   UNL     1       4.831   5.717  17.306  0.00  0.00    +0.000 N 
ATOM     25  C   UNL     1       5.469   4.489  16.851  0.00  0.00    +0.000 C 
ATOM     26  C   UNL     1       6.993   4.635  16.824  0.00  0.00    +0.000 C 
ATOM     27  C   UNL     1       7.608   4.540  18.215  0.00  0.00    +0.000 C 
ATOM     28  O   UNL     1       7.428   5.805  16.113  0.00  0.00    +0.000 OA
ATOM     29  C   UNL     1       6.751   7.033  16.406  0.00  0.00    +0.000 C 
ATOM     30  C   UNL     1       7.363   7.782  17.587  0.00  0.00    +0.000 C 
ATOM     31  C   UNL     1       5.233   6.900  16.546  0.00  0.00    +0.000 C 
ENDBRANCH   4  22
BRANCH   6  32
ATOM     32  O   UNL     1       0.944   8.062  21.298  0.00  0.00    +0.000 OA
ATOM     33  C   UNL     1       1.352   9.032  22.257  0.00  0.00    +0.000 C 
ENDBRANCH   6  32
TORSDOF 5
ENDMDL
MODEL 3
REMARK VINA RESULT:      -8.2      2.526      3.689
REMARK  Name = 
REMARK  9 active torsions:
REMARK  status: ('A' for Active; 'I' for Inactive)
REMARK    1  A    between atoms: C_1  and  C_2
REMARK    2  A    between atoms: C_2  and  O_3
REMARK    3  A    between atoms: O_3  and  C_4
REMARK    4  A    between atoms: N_7  and  C_8
REMARK    5  A    between atoms: C_11  and  C_12
REMARK    6  A    between atoms: C_16  and  C_17
REMARK    7  A    between atoms: C_19  and  C_20
REMARK    8  A    between atoms: C_23  and  O_24
REMARK    9  A    between atoms: O_24  and  C_25
REMARK                            x       y       z     vdW  Elec       q    Type
REMARK                         _______ _______ _______ _____ _____    ______ ____
ROOT
ATOM      1  C   UNL     1       0.625   9.767  19.195  0.00  0.00    +0.000 A 
ATOM      2  C   UNL     1       1.197   9.492  17.928  0.00  0.00    +0.000 A 
ATOM      3  C   UNL     1       2.092   8.445  17.726  0.00  0.00    +0.000 A 
ATOM      4  C   UNL     1       2.409   7.618  18.795  0.00  0.00    +0.000 A 
ATOM      5  C   UNL     1       1.831   7.861  20.048  0.00  0.00    +0.000 A 
ATOM      6  C   UNL     1       0.884   8.873  20.241  0.00  0.00    +0.000 A 
ENDROOT
BRANCH   1  10
ATOM      7  C   UNL     1       0.288  14.467  19.177  0.00  0.00    +0.000 A 
ATOM      8  N   UNL     1      -0.306  13.250  19.165  0.00  0.00    +0.000 NA
ATOM      9  C   UNL     1       0.379  12.197  19.635  0.00  0.00    +0.000 A 
ATOM     10  N   UNL     1      -0.156  10.931  19.339  0.00  0.00    +0.000 N 
ATOM     11  N   UNL     1       1.567  12.257  20.261  0.00  0.00    +0.000 NA
ATOM     12  C   UNL     1       2.105  13.477  20.273  0.00  0.00    +0.000 A 
ATOM     13  N   UNL     1       3.338  13.780  20.776  0.00  0.00    +0.000 N 
ATOM     14  C   UNL     1       3.609  15.105  20.546  0.00  0.00    +0.000 A 
ATOM     15  C   UNL     1       2.511  15.655  19.913  0.00  0.00    +0.000 A 
ATOM     16  C   UNL     1       1.551  14.622  19.743  0.00  0.00    +0.000 A 
ATOM     17  H   UNL     1      -1.009  10.831  19.865  0.00  0.00    +0.000 HD
ATOM     18  H   UNL     1       3.954  13.103  21.207  0.00  0.00    +0.000 HD
BRANCH   7  19
ATOM     19  O   UNL     1      -0.348  15.539  18.584  0.00  0.00    +0.000 OA
BRANCH  19  21
ATOM     20  C   UNL     1      -1.425  17.643  18.876  0.00  0.00    +0.000 C 
ATOM     21  C   UNL     1      -1.007  16.354  19.557  0.00  0.00    +0.000 C 
ENDBRANCH  19  21
ENDBRANCH   7  19
ENDBRANCH   1  10
BRANCH   4  22
ATOM     22  C   UNL     1       3.407   6.540  18.586  0.00  0.00    +0.000 C 
ATOM     23  O   UNL     1       4.163   6.641  17.626  0.00  0.00    +0.000 OA
ATOM     24  N   UNL     1       3.450   5.466  19.467  0.00  0.00    +0.000 N 
ATOM     25  C   UNL     1       4.599   4.571  19.436  0.00  0.00    +0.000 C 
ATOM     26  C   UNL     1       4.158   3.107  19.358  0.00  0.00    +0.000 C 
ATOM     27  C   UNL     1       3.706   2.714  17.956  0.00  0.00    +0.000 C 
ATOM     28  O   UNL     1       3.188   2.762  20.360  0.00  0.00    +0.000 OA
ATOM     29  C   UNL     1       2.095   3.670  20.547  0.00  0.00    +0.000 C 
ATOM     30  C   UNL     1       0.919   3.384  19.614  0.00  0.00    +0.000 C 
ATOM     31  C   UNL     1       2.489   5.149  20.523  0.00  0.00    +0.000 C 
ENDBRANCH   4  22
BRANCH   6  32
ATOM     32  O   UNL     1       0.405   8.926  21.522  0.00  0.00    +0.000 OA
ATOM     33  C   UNL     1       1.311   9.304  22.553  0.00  0.00    +0.000 C 
ENDBRANCH   6  32
TORSDOF 5
ENDMDL
MODEL 4
REMARK VINA RESULT:      -8.0      1.229      1.801
REMARK  Name = 
REMARK  9 active torsions:
REMARK  status: ('A' for Active; 'I' for Inactive)
REMARK    1  A    between atoms: C_1  and  C_2
REMARK    2  A    between atoms: C_2  and  O_3
REMARK    3  A    between atoms: O_3  and  C_4
REMARK    4  A    between atoms: N_7  and  C_8
REMARK    5  A    between atoms: C_11  and  C_12
REMARK    6  A    between atoms: C_16  and  C_17
REMARK    7  A    between atoms: C_19  and  C_20
REMARK    8  A    between atoms: C_23  and  O_24
REMARK    9  A    between atoms: O_24  and  C_25
REMARK                            x       y       z     vdW  Elec       q    Type
REMARK                         _______ _______ _______ _____ _____    ______ ____
ROOT
ATOM      1  C   UNL     1       1.106   9.718  19.459  0.00  0.00    +0.000 A 
ATOM      2  C   UNL     1       1.091   8.557  20.270  0.00  0.00    +0.000 A 
ATOM      3  C   UNL     1       1.803   7.407  19.939  0.00  0.00    +0.000 A 
ATOM      4  C   UNL     1       2.583   7.409  18.791  0.00  0.00    +0.000 A 
ATOM      5  C   UNL     1       2.628   8.559  17.992  0.00  0.00    +0.000 A 
ATOM      6  C   UNL     1       1.965   9.737  18.354  0.00  0.00    +0.000 A 
ENDROOT
BRANCH   1  10
ATOM      7  C   UNL     1      -3.107  11.802  19.123  0.00  0.00    +0.000 A 
ATOM      8  N   UNL     1      -1.900  11.693  19.726  0.00  0.00    +0.000 NA
ATOM      9  C   UNL     1      -0.889  11.134  19.043  0.00  0.00    +0.000 A 
ATOM     10  N   UNL     1       0.245  10.782  19.795  0.00  0.00    +0.000 N 
ATOM     11  N   UNL     1      -0.922  10.798  17.741  0.00  0.00    +0.000 NA
ATOM     12  C   UNL     1      -2.122  10.945  17.180  0.00  0.00    +0.000 A 
ATOM     13  N   UNL     1      -2.429  10.597  15.896  0.00  0.00    +0.000 N 
ATOM     14  C   UNL     1      -3.768  10.802  15.678  0.00  0.00    +0.000 A 
ATOM     15  C   UNL     1      -4.309  11.320  16.839  0.00  0.00    +0.000 A 
ATOM     16  C   UNL     1      -3.262  11.417  17.794  0.00  0.00    +0.000 A 
ATOM     17  H   UNL     1       0.688  11.635  20.093  0.00  0.00    +0.000 HD
ATOM     18  H   UNL     1      -1.762  10.209  15.241  0.00  0.00    +0.000 HD
BRANCH   7  19
ATOM     19  O   UNL     1      -4.189  12.256  19.849  0.00  0.00    +0.000 OA
BRANCH  19  21
ATOM     20  C   UNL     1      -5.038  12.879  21.985  0.00  0.00    +0.000 C 
ATOM     21  C   UNL     1      -3.789  12.729  21.138  0.00  0.00    +0.000 C 
ENDBRANCH  19  21
ENDBRANCH   7  19
ENDBRANCH   1  10
BRANCH   4  22
ATOM     22  C   UNL     1       3.292   6.161  18.414  0.00  0.00    +0.000 C 
ATOM     23  O   UNL     1       3.777   6.098  17.290  0.00  0.00    +0.000 OA
ATOM     24  N   UNL     1       3.378   5.118  19.329  0.00  0.00    +0.000 N 
ATOM     25  C   UNL     1       4.308   4.027  19.073  0.00  0.00    +0.000 C 
ATOM     26  C   UNL     1       3.617   2.668  19.211  0.00  0.00    +0.000 C 
ATOM     27  C   UNL     1       2.755   2.332  18.000  0.00  0.00    +0.000 C 
ATOM     28  O   UNL     1       2.897   2.531  20.448  0.00  0.00    +0.000 OA
ATOM     29  C   UNL     1       2.063   3.629  20.839  0.00  0.00    +0.000 C 
ATOM     30  C   UNL     1       0.655   3.542  20.256  0.00  0.00    +0.000 C 
ATOM     31  C   UNL     1       2.685   5.008  20.613  0.00  0.00    +0.000 C 
ENDBRANCH   4  22
BRANCH   6  32
ATOM     32  O   UNL     1       2.164  10.761  17.468  0.00  0.00    +0.000 OA
ATOM     33  C   UNL     1       2.618  12.007  17.988  0.00  0.00    +0.000 C 
ENDBRANCH   6  32
TORSDOF 5
ENDMDL
MODEL 5
REMARK VINA RESULT:      -7.9      2.335      9.043
REMARK  Name = 
REMARK  9 active torsions:
REMARK  status: ('A' for Active; 'I' for Inactive)
REMARK    1  A    between atoms: C_1  and  C_2
REMARK    2  A    between atoms: C_2  and  O_3
REMARK    3  A    between atoms: O_3  and  C_4
REMARK    4  A    between atoms: N_7  and  C_8
REMARK    5  A    between atoms: C_11  and  C_12
REMARK    6  A    between atoms: C_16  and  C_17
REMARK    7  A    between atoms: C_19  and  C_20
REMARK    8  A    between atoms: C_23  and  O_24
REMARK    9  A    between atoms: O_24  and  C_25
REMARK                            x       y       z     vdW  Elec       q    Type
REMARK                         _______ _______ _______ _____ _____    ______ ____
ROOT
ATOM      1  C   UNL     1       1.048  10.295  18.279  0.00  0.00    +0.000 A 
ATOM      2  C   UNL     1      -0.241   9.721  18.142  0.00  0.00    +0.000 A 
ATOM      3  C   UNL     1      -1.383  10.321  18.666  0.00  0.00    +0.000 A 
ATOM      4  C   UNL     1      -1.261  11.542  19.315  0.00  0.00    +0.000 A 
ATOM      5  C   UNL     1       0.003  12.134  19.436  0.00  0.00    +0.000 A 
ATOM      6  C   UNL     1       1.144  11.566  18.857  0.00  0.00    +0.000 A 
ENDROOT
BRANCH   1  10
ATOM      7  C   UNL     1       3.265   6.156  17.874  0.00  0.00    +0.000 A 
ATOM      8  N   UNL     1       3.148   7.461  17.529  0.00  0.00    +0.000 NA
ATOM      9  C   UNL     1       2.510   8.291  18.368  0.00  0.00    +0.000 A 
ATOM     10  N   UNL     1       2.162   9.549  17.845  0.00  0.00    +0.000 N 
ATOM     11  N   UNL     1       2.095   7.978  19.608  0.00  0.00    +0.000 NA
ATOM     12  C   UNL     1       2.252   6.691  19.916  0.00  0.00    +0.000 A 
ATOM     13  N   UNL     1       1.836   6.112  21.081  0.00  0.00    +0.000 N 
ATOM     14  C   UNL     1       2.078   4.763  21.029  0.00  0.00    +0.000 A 
ATOM     15  C   UNL     1       2.688   4.491  19.820  0.00  0.00    +0.000 A 
ATOM     16  C   UNL     1       2.804   5.717  19.112  0.00  0.00    +0.000 A 
ATOM     17  H   UNL     1       3.015  10.066  17.705  0.00  0.00    +0.000 HD
ATOM     18  H   UNL     1       1.383   6.617  21.832  0.00  0.00    +0.000 HD
BRANCH   7  19
ATOM     19  O   UNL     1       3.804   5.262  16.972  0.00  0.00    +0.000 OA
BRANCH  19  21
ATOM     20  C   UNL     1       5.506   5.629  15.347  0.00  0.00    +0.000 C 
ATOM     21  C   UNL     1       5.213   5.458  16.825  0.00  0.00    +0.000 C 
ENDBRANCH  19  21
ENDBRANCH   7  19
ENDBRANCH   1  10
BRANCH   4  22
ATOM     22  C   UNL     1      -2.473  12.147  19.921  0.00  0.00    +0.000 C 
ATOM     23  O   UNL     1      -3.394  12.451  19.171  0.00  0.00    +0.000 OA
ATOM     24  N   UNL     1      -2.523  12.351  21.295  0.00  0.00    +0.000 N 
ATOM     25  C   UNL     1      -3.801  12.667  21.917  0.00  0.00    +0.000 C 
ATOM     26  C   UNL     1      -3.688  13.899  22.819  0.00  0.00    +0.000 C 
ATOM     27  C   UNL     1      -3.657  15.198  22.022  0.00  0.00    +0.000 C 
ATOM     28  O   UNL     1      -2.601  13.807  23.754  0.00  0.00    +0.000 OA
ATOM     29  C   UNL     1      -1.337  13.367  23.241  0.00  0.00    +0.000 C 
ATOM     30  C   UNL     1      -0.488  14.511  22.691  0.00  0.00    +0.000 C 
ATOM     31  C   UNL     1      -1.427  12.203  22.252  0.00  0.00    +0.000 C 
ENDBRANCH   4  22
BRANCH   6  32
ATOM     32  O   UNL     1       2.275  12.313  19.048  0.00  0.00    +0.000 OA
ATOM     33  C   UNL     1       2.520  13.385  18.144  0.00  0.00    +0.000 C 
ENDBRANCH   6  32
TORSDOF 5
ENDMDL
MODEL 6
REMARK VINA RESULT:      -7.8      1.459      2.578
REMARK  Name = 
REMARK  9 active torsions:
REMARK  status: ('A' for Active; 'I' for Inactive)
REMARK    1  A    between atoms: C_1  and  C_2
REMARK    2  A    between atoms: C_2  and  O_3
REMARK    3  A    between atoms: O_3  and  C_4
REMARK    4  A    between atoms: N_7  and  C_8
REMARK    5  A    between atoms: C_11  and  C_12
REMARK    6  A    between atoms: C_16  and  C_17
REMARK    7  A    between atoms: C_19  and  C_20
REMARK    8  A    between atoms: C_23  and  O_24
REMARK    9  A    between atoms: O_24  and  C_25
REMARK                            x       y       z     vdW  Elec       q    Type
REMARK                         _______ _______ _______ _____ _____    ______ ____
ROOT
ATOM      1  C   UNL     1       1.439   9.021  19.951  0.00  0.00    +0.000 A 
ATOM      2  C   UNL     1       0.983   8.356  21.116  0.00  0.00    +0.000 A 
ATOM      3  C   UNL     1       1.146   6.986  21.304  0.00  0.00    +0.000 A 
ATOM      4  C   UNL     1       1.808   6.249  20.331  0.00  0.00    +0.000 A 
ATOM      5  C   UNL     1       2.287   6.898  19.184  0.00  0.00    +0.000 A 
ATOM      6  C   UNL     1       2.182   8.284  19.021  0.00  0.00    +0.000 A 
ENDROOT
BRANCH   1  10
ATOM      7  C   UNL     1      -1.835  12.374  19.454  0.00  0.00    +0.000 A 
ATOM      8  N   UNL     1      -0.551  12.017  19.696  0.00  0.00    +0.000 NA
ATOM      9  C   UNL     1      -0.124  10.821  19.263  0.00  0.00    +0.000 A 
ATOM     10  N   UNL     1       1.105  10.379  19.781  0.00  0.00    +0.000 N 
ATOM     11  N   UNL     1      -0.820   9.987  18.470  0.00  0.00    +0.000 NA
ATOM     12  C   UNL     1      -2.069  10.388  18.236  0.00  0.00    +0.000 A 
ATOM     13  N   UNL     1      -2.996   9.676  17.529  0.00  0.00    +0.000 N 
ATOM     14  C   UNL     1      -4.196  10.340  17.558  0.00  0.00    +0.000 A 
ATOM     15  C   UNL     1      -4.013  11.509  18.271  0.00  0.00    +0.000 A 
ATOM     16  C   UNL     1      -2.659  11.544  18.699  0.00  0.00    +0.000 A 
ATOM     17  H   UNL     1       1.826  10.969  19.398  0.00  0.00    +0.000 HD
ATOM     18  H   UNL     1      -2.811   8.779  17.099  0.00  0.00    +0.000 HD
BRANCH   7  19
ATOM     19  O   UNL     1      -2.329  13.541  19.998  0.00  0.00    +0.000 OA
BRANCH  19  21
ATOM     20  C   UNL     1      -3.348  12.924  22.061  0.00  0.00    +0.000 C 
ATOM     21  C   UNL     1      -2.140  13.575  21.415  0.00  0.00    +0.000 C 
ENDBRANCH  19  21
ENDBRANCH   7  19
ENDBRANCH   1  10
BRANCH   4  22
ATOM     22  C   UNL     1       1.926   4.781  20.510  0.00  0.00    +0.000 C 
ATOM     23  O   UNL     1       2.159   4.361  21.638  0.00  0.00    +0.000 OA
ATOM     24  N   UNL     1       1.775   3.943  19.411  0.00  0.00    +0.000 N 
ATOM     25  C   UNL     1       1.601   2.513  19.631  0.00  0.00    +0.000 C 
ATOM     26  C   UNL     1       2.569   1.700  18.768  0.00  0.00    +0.000 C 
ATOM     27  C   UNL     1       3.986   1.701  19.331  0.00  0.00    +0.000 C 
ATOM     28  O   UNL     1       2.532   2.077  17.382  0.00  0.00    +0.000 OA
ATOM     29  C   UNL     1       2.560   3.479  17.089  0.00  0.00    +0.000 C 
ATOM     30  C   UNL     1       3.978   4.036  16.983  0.00  0.00    +0.000 C 
ATOM     31  C   UNL     1       1.683   4.335  18.005  0.00  0.00    +0.000 C 
ENDBRANCH   4  22
BRANCH   6  32
ATOM     32  O   UNL     1       2.745   8.734  17.858  0.00  0.00    +0.000 OA
ATOM     33  C   UNL     1       3.700   7.894  17.216  0.00  0.00    +0.000 C 
ENDBRANCH   6  32
TORSDOF 5
ENDMDL
MODEL 7
REMARK VINA RESULT:      -7.8      2.388      9.274
REMARK  Name = 
REMARK  9 active torsions:
REMARK  status: ('A' for Active; 'I' for Inactive)
REMARK    1  A    between atoms: C_1  and  C_2
REMARK    2  A    between atoms: C_2  and  O_3
REMARK    3  A    between atoms: O_3  and  C_4
REMARK    4  A    between atoms: N_7  and  C_8
REMARK    5  A    between atoms: C_11  and  C_12
REMARK    6  A    between atoms: C_16  and  C_17
REMARK    7  A    between atoms: C_19  and  C_20
REMARK    8  A    between atoms: C_23  and  O_24
REMARK    9  A    between atoms: O_24  and  C_25
REMARK                            x       y       z     vdW  Elec       q    Type
REMARK                         _______ _______ _______ _____ _____    ______ ____
ROOT
ATOM      1  C   UNL     1      -0.200  11.043  18.679  0.00  0.00    +0.000 A 
ATOM      2  C   UNL     1      -0.210  11.891  19.814  0.00  0.00    +0.000 A 
ATOM      3  C   UNL     1      -1.379  12.465  20.306  0.00  0.00    +0.000 A 
ATOM      4  C   UNL     1      -2.584  12.169  19.683  0.00  0.00    +0.000 A 
ATOM      5  C   UNL     1      -2.594  11.312  18.575  0.00  0.00    +0.000 A 
ATOM      6  C   UNL     1      -1.430  10.683  18.117  0.00  0.00    +0.000 A 
ENDROOT
BRANCH   1  10
ATOM      7  C   UNL     1       2.891   7.591  17.822  0.00  0.00    +0.000 A 
ATOM      8  N   UNL     1       2.472   8.863  17.623  0.00  0.00    +0.000 NA
ATOM      9  C   UNL     1       1.681   9.430  18.548  0.00  0.00    +0.000 A 
ATOM     10  N   UNL     1       1.044  10.623  18.167  0.00  0.00    +0.000 N 
ATOM     11  N   UNL     1       1.378   8.898  19.745  0.00  0.00    +0.000 NA
ATOM     12  C   UNL     1       1.832   7.656  19.909  0.00  0.00    +0.000 A 
ATOM     13  N   UNL     1       1.587   6.875  21.002  0.00  0.00    +0.000 N 
ATOM     14  C   UNL     1       2.128   5.630  20.802  0.00  0.00    +0.000 A 
ATOM     15  C   UNL     1       2.755   5.637  19.571  0.00  0.00    +0.000 A 
ATOM     16  C   UNL     1       2.572   6.926  19.003  0.00  0.00    +0.000 A 
ATOM     17  H   UNL     1       1.753  11.334  18.086  0.00  0.00    +0.000 HD
ATOM     18  H   UNL     1       1.049   7.178  21.804  0.00  0.00    +0.000 HD
BRANCH   7  19
ATOM     19  O   UNL     1       3.598   6.946  16.827  0.00  0.00    +0.000 OA
BRANCH  19  21
ATOM     20  C   UNL     1       5.674   6.017  16.121  0.00  0.00    +0.000 C 
ATOM     21  C   UNL     1       5.004   6.972  17.089  0.00  0.00    +0.000 C 
ENDBRANCH  19  21
ENDBRANCH   7  19
ENDBRANCH   1  10
BRANCH   4  22
ATOM     22  C   UNL     1      -3.818  12.830  20.177  0.00  0.00    +0.000 C 
ATOM     23  O   UNL     1      -3.769  13.387  21.267  0.00  0.00    +0.000 OA
ATOM     24  N   UNL     1      -4.971  12.793  19.401  0.00  0.00    +0.000 N 
ATOM     25  C   UNL     1      -6.080  13.675  19.740  0.00  0.00    +0.000 C 
ATOM     26  C   UNL     1      -7.397  12.899  19.823  0.00  0.00    +0.000 C 
ATOM     27  C   UNL     1      -7.521  12.106  21.118  0.00  0.00    +0.000 C 
ATOM     28  O   UNL     1      -7.642  12.090  18.661  0.00  0.00    +0.000 OA
ATOM     29  C   UNL     1      -6.550  11.295  18.182  0.00  0.00    +0.000 C 
ATOM     30  C   UNL     1      -6.470   9.927  18.857  0.00  0.00    +0.000 C 
ATOM     31  C   UNL     1      -5.197  12.009  18.188  0.00  0.00    +0.000 C 
ENDBRANCH   4  22
BRANCH   6  32
ATOM     32  O   UNL     1      -1.650   9.852  17.052  0.00  0.00    +0.000 OA
ATOM     33  C   UNL     1      -2.648  10.232  16.110  0.00  0.00    +0.000 C 
ENDBRANCH   6  32
TORSDOF 5
ENDMDL
MODEL 8
REMARK VINA RESULT:      -7.8      2.596      9.285
REMARK  Name = 
REMARK  9 active torsions:
REMARK  status: ('A' for Active; 'I' for Inactive)
REMARK    1  A    between atoms: C_1  and  C_2
REMARK    2  A    between atoms: C_2  and  O_3
REMARK    3  A    between atoms: O_3  and  C_4
REMARK    4  A    between atoms: N_7  and  C_8
REMARK    5  A    between atoms: C_11  and  C_12
REMARK    6  A    between atoms: C_16  and  C_17
REMARK    7  A    between atoms: C_19  and  C_20
REMARK    8  A    between atoms: C_23  and  O_24
REMARK    9  A    between atoms: O_24  and  C_25
REMARK                            x       y       z     vdW  Elec       q    Type
REMARK                         _______ _______ _______ _____ _____    ______ ____
ROOT
ATOM      1  C   UNL     1       1.331   8.871  19.975  0.00  0.00    +0.000 A 
ATOM      2  C   UNL     1       1.430   8.846  21.388  0.00  0.00    +0.000 A 
ATOM      3  C   UNL     1       0.668   9.679  22.203  0.00  0.00    +0.000 A 
ATOM      4  C   UNL     1      -0.247  10.540  21.613  0.00  0.00    +0.000 A 
ATOM      5  C   UNL     1      -0.374  10.558  20.218  0.00  0.00    +0.000 A 
ATOM      6  C   UNL     1       0.344   9.679  19.399  0.00  0.00    +0.000 A 
ENDROOT
BRANCH   1  10
ATOM      7  C   UNL     1       2.629   4.705  18.195  0.00  0.00    +0.000 A 
ATOM      8  N   UNL     1       2.760   6.052  18.237  0.00  0.00    +0.000 NA
ATOM      9  C   UNL     1       2.357   6.702  19.340  0.00  0.00    +0.000 A 
ATOM     10  N   UNL     1       2.242   8.098  19.226  0.00  0.00    +0.000 N 
ATOM     11  N   UNL     1       1.962   6.120  20.486  0.00  0.00    +0.000 NA
ATOM     12  C   UNL     1       1.872   4.792  20.409  0.00  0.00    +0.000 A 
ATOM     13  N   UNL     1       1.418   3.983  21.411  0.00  0.00    +0.000 N 
ATOM     14  C   UNL     1       1.376   2.687  20.963  0.00  0.00    +0.000 A 
ATOM     15  C   UNL     1       1.842   2.675  19.663  0.00  0.00    +0.000 A 
ATOM     16  C   UNL     1       2.163   4.013  19.310  0.00  0.00    +0.000 A 
ATOM     17  H   UNL     1       3.172   8.473  19.135  0.00  0.00    +0.000 HD
ATOM     18  H   UNL     1       1.124   4.319  22.319  0.00  0.00    +0.000 HD
BRANCH   7  19
ATOM     19  O   UNL     1       2.918   4.032  17.026  0.00  0.00    +0.000 OA
BRANCH  19  21
ATOM     20  C   UNL     1       5.054   4.321  16.013  0.00  0.00    +0.000 C 
ATOM     21  C   UNL     1       4.258   3.531  17.033  0.00  0.00    +0.000 C 
ENDBRANCH  19  21
ENDBRANCH   7  19
ENDBRANCH   1  10
BRANCH   4  22
ATOM     22  C   UNL     1      -1.014  11.466  22.484  0.00  0.00    +0.000 C 
ATOM     23  O   UNL     1      -1.932  10.996  23.145  0.00  0.00    +0.000 OA
ATOM     24  N   UNL     1      -0.674  12.813  22.518  0.00  0.00    +0.000 N 
ATOM     25  C   UNL     1      -1.223  13.655  23.572  0.00  0.00    +0.000 C 
ATOM     26  C   UNL     1      -1.847  14.928  22.995  0.00  0.00    +0.000 C 
ATOM     27  C   UNL     1      -3.214  14.670  22.371  0.00  0.00    +0.000 C 
ATOM     28  O   UNL     1      -0.963  15.627  22.104  0.00  0.00    +0.000 OA
ATOM     29  C   UNL     1      -0.276  14.842  21.121  0.00  0.00    +0.000 C 
ATOM     30  C   UNL     1      -1.082  14.659  19.837  0.00  0.00    +0.000 C 
ATOM     31  C   UNL     1       0.268  13.511  21.643  0.00  0.00    +0.000 C 
ENDBRANCH   4  22
BRANCH   6  32
ATOM     32  O   UNL     1       0.053   9.821  18.069  0.00  0.00    +0.000 OA
ATOM     33  C   UNL     1      -1.300  10.084  17.712  0.00  0.00    +0.000 C 
ENDBRANCH   6  32
TORSDOF 5
ENDMDL
MODEL 9
REMARK VINA RESULT:      -7.7      2.202      9.234
REMARK  Name = 
REMARK  9 active torsions:
REMARK  status: ('A' for Active; 'I' for Inactive)
REMARK    1  A    between atoms: C_1  and  C_2
REMARK    2  A    between atoms: C_2  and  O_3
REMARK    3  A    between atoms: O_3  and  C_4
REMARK    4  A    between atoms: N_7  and  C_8
REMARK    5  A    between atoms: C_11  and  C_12
REMARK    6  A    between atoms: C_16  and  C_17
REMARK    7  A    between atoms: C_19  and  C_20
REMARK    8  A    between atoms: C_23  and  O_24
REMARK    9  A    between atoms: O_24  and  C_25
REMARK                            x       y       z     vdW  Elec       q    Type
REMARK                         _______ _______ _______ _____ _____    ______ ____
ROOT
ATOM      1  C   UNL     1       1.868   8.132  19.103  0.00  0.00    +0.000 A 
ATOM      2  C   UNL     1       2.054   8.899  17.927  0.00  0.00    +0.000 A 
ATOM      3  C   UNL     1       1.777  10.262  17.874  0.00  0.00    +0.000 A 
ATOM      4  C   UNL     1       1.333  10.901  19.025  0.00  0.00    +0.000 A 
ATOM      5  C   UNL     1       1.168  10.160  20.203  0.00  0.00    +0.000 A 
ATOM      6  C   UNL     1       1.506   8.804  20.276  0.00  0.00    +0.000 A 
ENDROOT
BRANCH   1  10
ATOM      7  C   UNL     1       4.718   4.385  18.891  0.00  0.00    +0.000 A 
ATOM      8  N   UNL     1       3.483   4.907  19.080  0.00  0.00    +0.000 NA
ATOM      9  C   UNL     1       3.212   6.116  18.564  0.00  0.00    +0.000 A 
ATOM     10  N   UNL     1       2.037   6.734  19.025  0.00  0.00    +0.000 N 
ATOM     11  N   UNL     1       4.017   6.809  17.739  0.00  0.00    +0.000 NA
ATOM     12  C   UNL     1       5.212   6.247  17.560  0.00  0.00    +0.000 A 
ATOM     13  N   UNL     1       6.230   6.795  16.833  0.00  0.00    +0.000 N 
ATOM     14  C   UNL     1       7.340   5.995  16.931  0.00  0.00    +0.000 A 
ATOM     15  C   UNL     1       7.004   4.904  17.709  0.00  0.00    +0.000 A 
ATOM     16  C   UNL     1       5.650   5.059  18.106  0.00  0.00    +0.000 A 
ATOM     17  H   UNL     1       1.256   6.212  18.662  0.00  0.00    +0.000 HD
ATOM     18  H   UNL     1       6.162   7.679  16.344  0.00  0.00    +0.000 HD
BRANCH   7  19
ATOM     19  O   UNL     1       5.058   3.203  19.517  0.00  0.00    +0.000 OA
BRANCH  19  21
ATOM     20  C   UNL     1       3.704   1.499  18.551  0.00  0.00    +0.000 C 
ATOM     21  C   UNL     1       3.905   2.393  19.759  0.00  0.00    +0.000 C 
ENDBRANCH  19  21
ENDBRANCH   7  19
ENDBRANCH   1  10
BRANCH   4  22
ATOM     22  C   UNL     1       0.983  12.341  18.946  0.00  0.00    +0.000 C 
ATOM     23  O   UNL     1       1.830  13.110  18.507  0.00  0.00    +0.000 OA
ATOM     24  N   UNL     1      -0.271  12.765  19.371  0.00  0.00    +0.000 N 
ATOM     25  C   UNL     1      -0.716  14.108  19.029  0.00  0.00    +0.000 C 
ATOM     26  C   UNL     1      -1.230  14.852  20.264  0.00  0.00    +0.000 C 
ATOM     27  C   UNL     1      -0.096  15.360  21.146  0.00  0.00    +0.000 C 
ATOM     28  O   UNL     1      -2.202  14.096  21.005  0.00  0.00    +0.000 OA
ATOM     29  C   UNL     1      -1.896  12.720  21.263  0.00  0.00    +0.000 C 
ATOM     30  C   UNL     1      -1.081  12.522  22.540  0.00  0.00    +0.000 C 
ATOM     31  C   UNL     1      -1.279  11.976  20.077  0.00  0.00    +0.000 C 
ENDBRANCH   4  22
BRANCH   6  32
ATOM     32  O   UNL     1       1.314   8.267  21.520  0.00  0.00    +0.000 OA
ATOM     33  C   UNL     1       0.802   9.120  22.538  0.00  0.00    +0.000 C 
ENDBRANCH   6  32
TORSDOF 5
ENDMDL
