MODEL 1
REMARK VINA RESULT:      -9.0      0.000      0.000
REMARK  Name = 
REMARK  6 active torsions:
REMARK  status: ('A' for Active; 'I' for Inactive)
REMARK    1  A    between atoms: O_1  and  C_2
REMARK    2  A    between atoms: C_6  and  C_7
REMARK    3  A    between atoms: C_8  and  C_9
REMARK    4  A    between atoms: C_9  and  N_10
REMARK    5  A    between atoms: C_13  and  C_14
REMARK    6  A    between atoms: C_14  and  C_15
REMARK                            x       y       z     vdW  Elec       q    Type
REMARK                         _______ _______ _______ _____ _____    ______ ____
ROOT
ATOM      1  C   UNL     1       7.900   6.293  18.907  0.00  0.00    +0.000 C 
ENDROOT
BRANCH   1   2
ATOM      2  N   UNL     1       6.940   5.827  17.887  0.00  0.00    +0.000 NA
ATOM      3  C   UNL     1       6.103   4.731  18.402  0.00  0.00    +0.000 C 
ATOM      4  C   UNL     1       5.059   4.270  17.389  0.00  0.00    +0.000 C 
ATOM      5  C   UNL     1       4.170   5.426  16.930  0.00  0.00    +0.000 C 
ATOM      6  C   UNL     1       5.091   6.521  16.368  0.00  0.00    +0.000 C 
ATOM      7  C   UNL     1       6.154   6.958  17.378  0.00  0.00    +0.000 C 
BRANCH   5   8
ATOM      8  C   UNL     1       3.250   5.921  18.075  0.00  0.00    +0.000 C 
BRANCH   8   9
ATOM      9  C   UNL     1       2.526   4.787  18.757  0.00  0.00    +0.000 A 
ATOM     10  C   UNL     1       1.671   3.950  18.025  0.00  0.00    +0.000 A 
ATOM     11  C   UNL     1       0.882   2.998  18.676  0.00  0.00    +0.000 A 
ATOM     12  C   UNL     1       0.962   2.859  20.056  0.00  0.00    +0.000 A 
ATOM     13  C   UNL     1       1.846   3.654  20.775  0.00  0.00    +0.000 A 
ATOM     14  F   UNL     1       1.926   3.513  22.107  0.00  0.00    +0.000 F 
ATOM     15  C   UNL     1       2.633   4.609  20.141  0.00  0.00    +0.000 A 
ENDBRANCH   8   9
ENDBRANCH   5   8
ENDBRANCH   1   2
BRANCH   1  17
ATOM     16  C   UNL     1       8.565   8.988  18.384  0.00  0.00    +0.000 C 
ATOM     17  C   UNL     1       8.257   7.743  18.625  0.00  0.00    +0.000 C 
BRANCH  16  22
ATOM     18  C   UNL     1      11.444  14.030  17.787  0.00  0.00    +0.000 A 
ATOM     19  N   UNL     1      11.722  12.816  18.175  0.00  0.00    +0.000 NA
ATOM     20  C   UNL     1      10.524  12.144  18.052  0.00  0.00    +0.000 A 
ATOM     21  C   UNL     1      10.216  10.802  18.326  0.00  0.00    +0.000 A 
ATOM     22  C   UNL     1       8.905  10.353  18.115  0.00  0.00    +0.000 A 
ATOM     23  C   UNL     1       7.920  11.227  17.641  0.00  0.00    +0.000 A 
ATOM     24  C   UNL     1       8.206  12.571  17.362  0.00  0.00    +0.000 A 
ATOM     25  C   UNL     1       9.518  12.988  17.579  0.00  0.00    +0.000 A 
ATOM     26  N   UNL     1      10.145  14.197  17.422  0.00  0.00    +0.000 N 
ATOM     27  H   UNL     1       9.739  15.059  17.095  0.00  0.00    +0.000 HD
BRANCH  18  28
ATOM     28  O   UNL     1      12.333  14.997  17.757  0.00  0.00    +0.000 OA
ATOM     29  H   UNL     1      12.701  14.899  16.860  0.00  0.00    +0.000 HD
ENDBRANCH  18  28
ENDBRANCH  16  22
ENDBRANCH   1  17
TORSDOF 6
ENDMDL
MODEL 2
REMARK VINA RESULT:      -9.0      1.187      1.340
REMARK  Name = 
REMARK  6 active torsions:
REMARK  status: ('A' for Active; 'I' for Inactive)
REMARK    1  A    between atoms: O_1  and  C_2
REMARK    2  A    between atoms: C_6  and  C_7
REMARK    3  A    between atoms: C_8  and  C_9
REMARK    4  A    between atoms: C_9  and  N_10
REMARK    5  A    between atoms: C_13  and  C_14
REMARK    6  A    between atoms: C_14  and  C_15
REMARK                            x       y       z     vdW  Elec       q    Type
REMARK                         _______ _______ _______ _____ _____    ______ ____
ROOT
ATOM      1  C   UNL     1       7.814   6.473  18.224  0.00  0.00    +0.000 C 
ENDROOT
BRANCH   1   2
ATOM      2  N   UNL     1       6.545   6.334  17.484  0.00  0.00    +0.000 NA
ATOM      3  C   UNL     1       6.629   5.263  16.477  0.00  0.00    +0.000 C 
ATOM      4  C   UNL     1       5.310   5.054  15.737  0.00  0.00    +0.000 C 
ATOM      5  C   UNL     1       4.161   4.765  16.705  0.00  0.00    +0.000 C 
ATOM      6  C   UNL     1       4.096   5.930  17.706  0.00  0.00    +0.000 C 
ATOM      7  C   UNL     1       5.430   6.152  18.422  0.00  0.00    +0.000 C 
BRANCH   5   8
ATOM      8  C   UNL     1       4.325   3.379  17.380  0.00  0.00    +0.000 C 
BRANCH   8   9
ATOM      9  C   UNL     1       3.234   3.100  18.384  0.00  0.00    +0.000 A 
ATOM     10  C   UNL     1       1.887   3.148  17.997  0.00  0.00    +0.000 A 
ATOM     11  C   UNL     1       0.871   3.043  18.951  0.00  0.00    +0.000 A 
ATOM     12  C   UNL     1       1.195   2.864  20.290  0.00  0.00    +0.000 A 
ATOM     13  C   UNL     1       2.529   2.766  20.666  0.00  0.00    +0.000 A 
ATOM     14  F   UNL     1       2.838   2.586  21.960  0.00  0.00    +0.000 F 
ATOM     15  C   UNL     1       3.549   2.874  19.729  0.00  0.00    +0.000 A 
ENDBRANCH   8   9
ENDBRANCH   5   8
ENDBRANCH   1   2
BRANCH   1  17
ATOM     16  C   UNL     1       8.545   9.200  18.295  0.00  0.00    +0.000 C 
ATOM     17  C   UNL     1       8.207   7.941  18.261  0.00  0.00    +0.000 C 
BRANCH  16  22
ATOM     18  C   UNL     1      11.277  14.235  19.415  0.00  0.00    +0.000 A 
ATOM     19  N   UNL     1      11.422  12.981  19.744  0.00  0.00    +0.000 NA
ATOM     20  C   UNL     1      10.384  12.345  19.094  0.00  0.00    +0.000 A 
ATOM     21  C   UNL     1      10.035  10.986  19.079  0.00  0.00    +0.000 A 
ATOM     22  C   UNL     1       8.921  10.582  18.330  0.00  0.00    +0.000 A 
ATOM     23  C   UNL     1       8.169  11.519  17.611  0.00  0.00    +0.000 A 
ATOM     24  C   UNL     1       8.499  12.881  17.614  0.00  0.00    +0.000 A 
ATOM     25  C   UNL     1       9.614  13.252  18.365  0.00  0.00    +0.000 A 
ATOM     26  N   UNL     1      10.215  14.462  18.597  0.00  0.00    +0.000 N 
ATOM     27  H   UNL     1       9.941  15.361  18.235  0.00  0.00    +0.000 HD
BRANCH  18  28
ATOM     28  O   UNL     1      12.080  15.186  19.838  0.00  0.00    +0.000 OA
ATOM     29  H   UNL     1      12.955  14.779  19.705  0.00  0.00    +0.000 HD
ENDBRANCH  18  28
ENDBRANCH  16  22
ENDBRANCH   1  17
TORSDOF 6
ENDMDL
MODEL 3
REMARK VINA RESULT:      -9.0      1.294      1.626
REMARK  Name = 
REMARK  6 active torsions:
REMARK  status: ('A' for Active; 'I' for Inactive)
REMARK    1  A    between atoms: O_1  and  C_2
REMARK    2  A    between atoms: C_6  and  C_7
REMARK    3  A    between atoms: C_8  and  C_9
REMARK    4  A    between atoms: C_9  and  N_10
REMARK    5  A    between atoms: C_13  and  C_14
REMARK    6  A    between atoms: C_14  and  C_15
REMARK                            x       y       z     vdW  Elec       q    Type
REMARK                         _______ _______ _______ _____ _____    ______ ____
ROOT
ATOM      1  C   UNL     1       7.876   6.256  18.402  0.00  0.00    +0.000 C 
ENDROOT
BRANCH   1   2
ATOM      2  N   UNL     1       6.573   6.278  17.711  0.00  0.00    +0.000 NA
ATOM      3  C   UNL     1       6.553   5.338  16.577  0.00  0.00    +0.000 C 
ATOM      4  C   UNL     1       5.195   5.295  15.881  0.00  0.00    +0.000 C 
ATOM      5  C   UNL     1       4.072   4.948  16.859  0.00  0.00    +0.000 C 
ATOM      6  C   UNL     1       4.115   5.981  17.997  0.00  0.00    +0.000 C 
ATOM      7  C   UNL     1       5.487   6.040  18.671  0.00  0.00    +0.000 C 
BRANCH   5   8
ATOM      8  C   UNL     1       4.181   3.482  17.350  0.00  0.00    +0.000 C 
BRANCH   8   9
ATOM      9  C   UNL     1       3.139   3.149  18.389  0.00  0.00    +0.000 A 
ATOM     10  C   UNL     1       1.775   3.203  18.066  0.00  0.00    +0.000 A 
ATOM     11  C   UNL     1       0.804   3.046  19.060  0.00  0.00    +0.000 A 
ATOM     12  C   UNL     1       1.190   2.809  20.373  0.00  0.00    +0.000 A 
ATOM     13  C   UNL     1       2.541   2.706  20.683  0.00  0.00    +0.000 A 
ATOM     14  F   UNL     1       2.910   2.470  21.952  0.00  0.00    +0.000 F 
ATOM     15  C   UNL     1       3.517   2.865  19.706  0.00  0.00    +0.000 A 
ENDBRANCH   8   9
ENDBRANCH   5   8
ENDBRANCH   1   2
BRANCH   1  17
ATOM     16  C   UNL     1       8.753   8.911  18.802  0.00  0.00    +0.000 C 
ATOM     17  C   UNL     1       8.348   7.685  18.617  0.00  0.00    +0.000 C 
BRANCH  16  22
ATOM     18  C   UNL     1      10.623  14.374  17.950  0.00  0.00    +0.000 A 
ATOM     19  N   UNL     1      10.314  13.348  17.206  0.00  0.00    +0.000 NA
ATOM     20  C   UNL     1       9.948  12.376  18.114  0.00  0.00    +0.000 A 
ATOM     21  C   UNL     1       9.517  11.059  17.894  0.00  0.00    +0.000 A 
ATOM     22  C   UNL     1       9.198  10.258  18.999  0.00  0.00    +0.000 A 
ATOM     23  C   UNL     1       9.308  10.763  20.300  0.00  0.00    +0.000 A 
ATOM     24  C   UNL     1       9.736  12.076  20.543  0.00  0.00    +0.000 A 
ATOM     25  C   UNL     1      10.045  12.849  19.424  0.00  0.00    +0.000 A 
ATOM     26  N   UNL     1      10.486  14.138  19.282  0.00  0.00    +0.000 N 
ATOM     27  H   UNL     1      10.675  14.805  20.012  0.00  0.00    +0.000 HD
BRANCH  18  28
ATOM     28  O   UNL     1      11.031  15.522  17.457  0.00  0.00    +0.000 OA
ATOM     29  H   UNL     1      10.192  16.012  17.379  0.00  0.00    +0.000 HD
ENDBRANCH  18  28
ENDBRANCH  16  22
ENDBRANCH   1  17
TORSDOF 6
ENDMDL
MODEL 4
REMARK VINA RESULT:      -8.8      1.501      1.962
REMARK  Name = 
REMARK  6 active torsions:
REMARK  status: ('A' for Active; 'I' for Inactive)
REMARK    1  A    between atoms: O_1  and  C_2
REMARK    2  A    between atoms: C_6  and  C_7
REMARK    3  A    between atoms: C_8  and  C_9
REMARK    4  A    between atoms: C_9  and  N_10
REMARK    5  A    between atoms: C_13  and  C_14
REMARK    6  A    between atoms: C_14  and  C_15
REMARK                            x       y       z     vdW  Elec       q    Type
REMARK                         _______ _______ _______ _____ _____    ______ ____
ROOT
ATOM      1  C   UNL     1       7.943   6.632  18.529  0.00  0.00    +0.000 C 
ENDROOT
BRANCH   1   2
ATOM      2  N   UNL     1       6.731   6.582  17.688  0.00  0.00    +0.000 NA
ATOM      3  C   UNL     1       6.914   5.677  16.541  0.00  0.00    +0.000 C 
ATOM      4  C   UNL     1       5.655   5.559  15.687  0.00  0.00    +0.000 C 
ATOM      5  C   UNL     1       4.453   5.105  16.516  0.00  0.00    +0.000 C 
ATOM      6  C   UNL     1       4.286   6.105  17.672  0.00  0.00    +0.000 C 
ATOM      7  C   UNL     1       5.561   6.241  18.506  0.00  0.00    +0.000 C 
BRANCH   5   8
ATOM      8  C   UNL     1       4.611   3.637  16.986  0.00  0.00    +0.000 C 
BRANCH   8   9
ATOM      9  C   UNL     1       3.631   3.278  18.076  0.00  0.00    +0.000 A 
ATOM     10  C   UNL     1       4.073   3.107  19.397  0.00  0.00    +0.000 A 
ATOM     11  C   UNL     1       3.202   2.625  20.379  0.00  0.00    +0.000 A 
ATOM     12  C   UNL     1       1.882   2.339  20.053  0.00  0.00    +0.000 A 
ATOM     13  C   UNL     1       1.432   2.557  18.756  0.00  0.00    +0.000 A 
ATOM     14  F   UNL     1       0.155   2.285  18.447  0.00  0.00    +0.000 F 
ATOM     15  C   UNL     1       2.289   3.030  17.769  0.00  0.00    +0.000 A 
ENDBRANCH   8   9
ENDBRANCH   5   8
ENDBRANCH   1   2
BRANCH   1  17
ATOM     16  C   UNL     1       8.878   9.295  18.642  0.00  0.00    +0.000 C 
ATOM     17  C   UNL     1       8.446   8.065  18.589  0.00  0.00    +0.000 C 
BRANCH  16  22
ATOM     18  C   UNL     1      11.293  14.446  17.337  0.00  0.00    +0.000 A 
ATOM     19  N   UNL     1      11.107  13.304  16.736  0.00  0.00    +0.000 NA
ATOM     20  C   UNL     1      10.455  12.534  17.677  0.00  0.00    +0.000 A 
ATOM     21  C   UNL     1       9.999  11.210  17.593  0.00  0.00    +0.000 A 
ATOM     22  C   UNL     1       9.355  10.644  18.702  0.00  0.00    +0.000 A 
ATOM     23  C   UNL     1       9.171  11.388  19.874  0.00  0.00    +0.000 A 
ATOM     24  C   UNL     1       9.619  12.712  19.980  0.00  0.00    +0.000 A 
ATOM     25  C   UNL     1      10.254  13.247  18.860  0.00  0.00    +0.000 A 
ATOM     26  N   UNL     1      10.809  14.475  18.607  0.00  0.00    +0.000 N 
ATOM     27  H   UNL     1      10.856  15.265  19.230  0.00  0.00    +0.000 HD
BRANCH  18  28
ATOM     28  O   UNL     1      11.893  15.468  16.769  0.00  0.00    +0.000 OA
ATOM     29  H   UNL     1      12.500  15.757  17.474  0.00  0.00    +0.000 HD
ENDBRANCH  18  28
ENDBRANCH  16  22
ENDBRANCH   1  17
TORSDOF 6
ENDMDL
MODEL 5
REMARK VINA RESULT:      -8.7      5.651      7.428
REMARK  Name = 
REMARK  6 active torsions:
REMARK  status: ('A' for Active; 'I' for Inactive)
REMARK    1  A    between atoms: O_1  and  C_2
REMARK    2  A    between atoms: C_6  and  C_7
REMARK    3  A    between atoms: C_8  and  C_9
REMARK    4  A    between atoms: C_9  and  N_10
REMARK    5  A    between atoms: C_13  and  C_14
REMARK    6  A    between atoms: C_14  and  C_15
REMARK                            x       y       z     vdW  Elec       q    Type
REMARK                         _______ _______ _______ _____ _____    ______ ____
ROOT
ATOM      1  C   UNL     1       2.013   3.897  21.543  0.00  0.00    +0.000 C 
ENDROOT
BRANCH   1   2
ATOM      2  N   UNL     1       2.482   2.946  20.516  0.00  0.00    +0.000 NA
ATOM      3  C   UNL     1       1.494   2.798  19.435  0.00  0.00    +0.000 C 
ATOM      4  C   UNL     1       1.979   1.867  18.327  0.00  0.00    +0.000 C 
ATOM      5  C   UNL     1       3.315   2.330  17.746  0.00  0.00    +0.000 C 
ATOM      6  C   UNL     1       4.315   2.429  18.909  0.00  0.00    +0.000 C 
ATOM      7  C   UNL     1       3.809   3.342  20.029  0.00  0.00    +0.000 C 
BRANCH   5   8
ATOM      8  C   UNL     1       3.159   3.652  16.951  0.00  0.00    +0.000 C 
BRANCH   8   9
ATOM      9  C   UNL     1       4.457   4.414  16.851  0.00  0.00    +0.000 A 
ATOM     10  C   UNL     1       4.642   5.598  17.582  0.00  0.00    +0.000 A 
ATOM     11  C   UNL     1       5.776   6.388  17.376  0.00  0.00    +0.000 A 
ATOM     12  C   UNL     1       6.742   5.988  16.461  0.00  0.00    +0.000 A 
ATOM     13  C   UNL     1       6.583   4.790  15.775  0.00  0.00    +0.000 A 
ATOM     14  F   UNL     1       7.521   4.404  14.897  0.00  0.00    +0.000 F 
ATOM     15  C   UNL     1       5.457   3.997  15.965  0.00  0.00    +0.000 A 
ENDBRANCH   8   9
ENDBRANCH   5   8
ENDBRANCH   1   2
BRANCH   1  17
ATOM     16  C   UNL     1       1.777   6.462  20.384  0.00  0.00    +0.000 C 
ATOM     17  C   UNL     1       1.886   5.278  20.918  0.00  0.00    +0.000 C 
BRANCH  16  22
ATOM     18  C   UNL     1       0.616  12.109  19.471  0.00  0.00    +0.000 A 
ATOM     19  N   UNL     1       0.451  11.249  20.437  0.00  0.00    +0.000 NA
ATOM     20  C   UNL     1       0.976  10.077  19.933  0.00  0.00    +0.000 A 
ATOM     21  C   UNL     1       1.076   8.810  20.527  0.00  0.00    +0.000 A 
ATOM     22  C   UNL     1       1.661   7.765  19.799  0.00  0.00    +0.000 A 
ATOM     23  C   UNL     1       2.137   7.981  18.500  0.00  0.00    +0.000 A 
ATOM     24  C   UNL     1       2.047   9.239  17.887  0.00  0.00    +0.000 A 
ATOM     25  C   UNL     1       1.462  10.259  18.637  0.00  0.00    +0.000 A 
ATOM     26  N   UNL     1       1.210  11.579  18.369  0.00  0.00    +0.000 N 
ATOM     27  H   UNL     1       1.423  12.083  17.524  0.00  0.00    +0.000 HD
BRANCH  18  28
ATOM     28  O   UNL     1       0.239  13.366  19.555  0.00  0.00    +0.000 OA
ATOM     29  H   UNL     1      -0.727  13.289  19.449  0.00  0.00    +0.000 HD
ENDBRANCH  18  28
ENDBRANCH  16  22
ENDBRANCH   1  17
TORSDOF 6
ENDMDL
MODEL 6
REMARK VINA RESULT:      -8.7      1.027      1.384
REMARK  Name = 
REMARK  6 active torsions:
REMARK  status: ('A' for Active; 'I' for Inactive)
REMARK    1  A    between atoms: O_1  and  C_2
REMARK    2  A    between atoms: C_6  and  C_7
REMARK    3  A    between atoms: C_8  and  C_9
REMARK    4  A    between atoms: C_9  and  N_10
REMARK    5  A    between atoms: C_13  and  C_14
REMARK    6  A    between atoms: C_14  and  C_15
REMARK                            x       y       z     vdW  Elec       q    Type
REMARK                         _______ _______ _______ _____ _____    ______ ____
ROOT
ATOM      1  C   UNL     1       7.878   6.076  18.626  0.00  0.00    +0.000 C 
ENDROOT
BRANCH   1   2
ATOM      2  N   UNL     1       6.701   5.784  17.786  0.00  0.00    +0.000 NA
ATOM      3  C   UNL     1       5.884   4.705  18.368  0.00  0.00    +0.000 C 
ATOM      4  C   UNL     1       4.626   4.422  17.552  0.00  0.00    +0.000 C 
ATOM      5  C   UNL     1       3.773   5.680  17.379  0.00  0.00    +0.000 C 
ATOM      6  C   UNL     1       4.662   6.756  16.734  0.00  0.00    +0.000 C 
ATOM      7  C   UNL     1       5.935   7.013  17.542  0.00  0.00    +0.000 C 
BRANCH   5   8
ATOM      8  C   UNL     1       3.141   6.125  18.722  0.00  0.00    +0.000 C 
BRANCH   8   9
ATOM      9  C   UNL     1       2.358   5.016  19.380  0.00  0.00    +0.000 A 
ATOM     10  C   UNL     1       2.473   4.789  20.760  0.00  0.00    +0.000 A 
ATOM     11  C   UNL     1       1.873   3.671  21.347  0.00  0.00    +0.000 A 
ATOM     12  C   UNL     1       1.134   2.792  20.566  0.00  0.00    +0.000 A 
ATOM     13  C   UNL     1       0.978   3.045  19.209  0.00  0.00    +0.000 A 
ATOM     14  F   UNL     1       0.258   2.196  18.459  0.00  0.00    +0.000 F 
ATOM     15  C   UNL     1       1.573   4.149  18.611  0.00  0.00    +0.000 A 
ENDBRANCH   8   9
ENDBRANCH   5   8
ENDBRANCH   1   2
BRANCH   1  17
ATOM     16  C   UNL     1       8.507   8.821  18.408  0.00  0.00    +0.000 C 
ATOM     17  C   UNL     1       8.216   7.554  18.508  0.00  0.00    +0.000 C 
BRANCH  16  22
ATOM     18  C   UNL     1      11.132  14.015  18.861  0.00  0.00    +0.000 A 
ATOM     19  N   UNL     1      11.353  12.798  19.276  0.00  0.00    +0.000 NA
ATOM     20  C   UNL     1      10.287  12.077  18.778  0.00  0.00    +0.000 A 
ATOM     21  C   UNL     1       9.991  10.712  18.904  0.00  0.00    +0.000 A 
ATOM     22  C   UNL     1       8.830  10.212  18.296  0.00  0.00    +0.000 A 
ATOM     23  C   UNL     1       7.981  11.062  17.577  0.00  0.00    +0.000 A 
ATOM     24  C   UNL     1       8.258  12.429  17.440  0.00  0.00    +0.000 A 
ATOM     25  C   UNL     1       9.420  12.896  18.053  0.00  0.00    +0.000 A 
ATOM     26  N   UNL     1       9.993  14.139  18.130  0.00  0.00    +0.000 N 
ATOM     27  H   UNL     1       9.653  14.995  17.723  0.00  0.00    +0.000 HD
BRANCH  18  28
ATOM     28  O   UNL     1      11.932  15.023  19.130  0.00  0.00    +0.000 OA
ATOM     29  H   UNL     1      11.343  15.785  18.987  0.00  0.00    +0.000 HD
ENDBRANCH  18  28
ENDBRANCH  16  22
ENDBRANCH   1  17
TORSDOF 6
ENDMDL
MODEL 7
REMARK VINA RESULT:      -8.7      6.220      8.583
REMARK  Name = 
REMARK  6 active torsions:
REMARK  status: ('A' for Active; 'I' for Inactive)
REMARK    1  A    between atoms: O_1  and  C_2
REMARK    2  A    between atoms: C_6  and  C_7
REMARK    3  A    between atoms: C_8  and  C_9
REMARK    4  A    between atoms: C_9  and  N_10
REMARK    5  A    between atoms: C_13  and  C_14
REMARK    6  A    between atoms: C_14  and  C_15
REMARK                            x       y       z     vdW  Elec       q    Type
REMARK                         _______ _______ _______ _____ _____    ______ ____
ROOT
ATOM      1  C   UNL     1       2.963   5.267  19.815  0.00  0.00    +0.000 C 
ENDROOT
BRANCH   1   2
ATOM      2  N   UNL     1       4.248   5.547  19.148  0.00  0.00    +0.000 NA
ATOM      3  C   UNL     1       5.040   4.318  18.974  0.00  0.00    +0.000 C 
ATOM      4  C   UNL     1       6.349   4.568  18.231  0.00  0.00    +0.000 C 
ATOM      5  C   UNL     1       6.108   5.223  16.870  0.00  0.00    +0.000 C 
ATOM      6  C   UNL     1       5.315   6.517  17.115  0.00  0.00    +0.000 C 
ATOM      7  C   UNL     1       4.018   6.263  17.886  0.00  0.00    +0.000 C 
BRANCH   5   8
ATOM      8  C   UNL     1       5.410   4.248  15.888  0.00  0.00    +0.000 C 
BRANCH   8   9
ATOM      9  C   UNL     1       5.989   4.328  14.497  0.00  0.00    +0.000 A 
ATOM     10  C   UNL     1       5.452   3.549  13.461  0.00  0.00    +0.000 A 
ATOM     11  C   UNL     1       6.078   3.503  12.212  0.00  0.00    +0.000 A 
ATOM     12  C   UNL     1       7.225   4.253  11.984  0.00  0.00    +0.000 A 
ATOM     13  C   UNL     1       7.727   5.063  12.994  0.00  0.00    +0.000 A 
ATOM     14  F   UNL     1       8.831   5.792  12.769  0.00  0.00    +0.000 F 
ATOM     15  C   UNL     1       7.118   5.115  14.243  0.00  0.00    +0.000 A 
ENDBRANCH   8   9
ENDBRANCH   5   8
ENDBRANCH   1   2
BRANCH   1  17
ATOM     16  C   UNL     1       1.619   7.706  20.286  0.00  0.00    +0.000 C 
ATOM     17  C   UNL     1       2.239   6.580  20.068  0.00  0.00    +0.000 C 
BRANCH  16  22
ATOM     18  C   UNL     1      -1.131  12.198  22.803  0.00  0.00    +0.000 A 
ATOM     19  N   UNL     1      -0.617  11.062  23.186  0.00  0.00    +0.000 NA
ATOM     20  C   UNL     1      -0.128  10.507  22.022  0.00  0.00    +0.000 A 
ATOM     21  C   UNL     1       0.534   9.287  21.818  0.00  0.00    +0.000 A 
ATOM     22  C   UNL     1       0.939   8.945  20.520  0.00  0.00    +0.000 A 
ATOM     23  C   UNL     1       0.686   9.806  19.446  0.00  0.00    +0.000 A 
ATOM     24  C   UNL     1       0.026  11.030  19.627  0.00  0.00    +0.000 A 
ATOM     25  C   UNL     1      -0.362  11.343  20.928  0.00  0.00    +0.000 A 
ATOM     26  N   UNL     1      -1.014  12.422  21.467  0.00  0.00    +0.000 N 
ATOM     27  H   UNL     1      -1.347  13.240  20.983  0.00  0.00    +0.000 HD
BRANCH  18  28
ATOM     28  O   UNL     1      -1.710  13.040  23.630  0.00  0.00    +0.000 OA
ATOM     29  H   UNL     1      -1.064  13.769  23.653  0.00  0.00    +0.000 HD
ENDBRANCH  18  28
ENDBRANCH  16  22
ENDBRANCH   1  17
TORSDOF 6
ENDMDL
MODEL 8
REMARK VINA RESULT:      -8.6      5.696      7.416
REMARK  Name = 
REMARK  6 active torsions:
REMARK  status: ('A' for Active; 'I' for Inactive)
REMARK    1  A    between atoms: O_1  and  C_2
REMARK    2  A    between atoms: C_6  and  C_7
REMARK    3  A    between atoms: C_8  and  C_9
REMARK    4  A    between atoms: C_9  and  N_10
REMARK    5  A    between atoms: C_13  and  C_14
REMARK    6  A    between atoms: C_14  and  C_15
REMARK                            x       y       z     vdW  Elec       q    Type
REMARK                         _______ _______ _______ _____ _____    ______ ____
ROOT
ATOM      1  C   UNL     1       2.058   4.041  21.401  0.00  0.00    +0.000 C 
ENDROOT
BRANCH   1   2
ATOM      2  N   UNL     1       2.595   3.134  20.368  0.00  0.00    +0.000 NA
ATOM      3  C   UNL     1       1.670   3.017  19.228  0.00  0.00    +0.000 C 
ATOM      4  C   UNL     1       2.226   2.132  18.116  0.00  0.00    +0.000 C 
ATOM      5  C   UNL     1       3.587   2.631  17.628  0.00  0.00    +0.000 C 
ATOM      6  C   UNL     1       4.520   2.697  18.848  0.00  0.00    +0.000 C 
ATOM      7  C   UNL     1       3.942   3.561  19.971  0.00  0.00    +0.000 C 
BRANCH   5   8
ATOM      8  C   UNL     1       3.458   3.980  16.875  0.00  0.00    +0.000 C 
BRANCH   8   9
ATOM      9  C   UNL     1       4.779   4.451  16.318  0.00  0.00    +0.000 A 
ATOM     10  C   UNL     1       5.308   3.865  15.158  0.00  0.00    +0.000 A 
ATOM     11  C   UNL     1       6.597   4.188  14.725  0.00  0.00    +0.000 A 
ATOM     12  C   UNL     1       7.352   5.115  15.432  0.00  0.00    +0.000 A 
ATOM     13  C   UNL     1       6.809   5.733  16.551  0.00  0.00    +0.000 A 
ATOM     14  F   UNL     1       7.539   6.634  17.227  0.00  0.00    +0.000 F 
ATOM     15  C   UNL     1       5.530   5.418  16.996  0.00  0.00    +0.000 A 
ENDBRANCH   8   9
ENDBRANCH   5   8
ENDBRANCH   1   2
BRANCH   1  17
ATOM     16  C   UNL     1       1.781   6.628  20.302  0.00  0.00    +0.000 C 
ATOM     17  C   UNL     1       1.909   5.434  20.810  0.00  0.00    +0.000 C 
BRANCH  16  22
ATOM     18  C   UNL     1       0.490  12.266  19.518  0.00  0.00    +0.000 A 
ATOM     19  N   UNL     1       0.340  11.379  20.462  0.00  0.00    +0.000 NA
ATOM     20  C   UNL     1       0.896  10.232  19.933  0.00  0.00    +0.000 A 
ATOM     21  C   UNL     1       1.023   8.954  20.497  0.00  0.00    +0.000 A 
ATOM     22  C   UNL     1       1.637   7.941  19.747  0.00  0.00    +0.000 A 
ATOM     23  C   UNL     1       2.115   8.201  18.458  0.00  0.00    +0.000 A 
ATOM     24  C   UNL     1       1.999   9.470  17.875  0.00  0.00    +0.000 A 
ATOM     25  C   UNL     1       1.385  10.457  18.645  0.00  0.00    +0.000 A 
ATOM     26  N   UNL     1       1.104  11.777  18.407  0.00  0.00    +0.000 N 
ATOM     27  H   UNL     1       1.309  12.307  17.576  0.00  0.00    +0.000 HD
BRANCH  18  28
ATOM     28  O   UNL     1       0.082  13.511  19.630  0.00  0.00    +0.000 OA
ATOM     29  H   UNL     1      -0.615  13.552  18.950  0.00  0.00    +0.000 HD
ENDBRANCH  18  28
ENDBRANCH  16  22
ENDBRANCH   1  17
TORSDOF 6
ENDMDL
MODEL 9
REMARK VINA RESULT:      -8.5      1.629      2.266
REMARK  Name = 
REMARK  6 active torsions:
REMARK  status: ('A' for Active; 'I' for Inactive)
REMARK    1  A    between atoms: O_1  and  C_2
REMARK    2  A    between atoms: C_6  and  C_7
REMARK    3  A    between atoms: C_8  and  C_9
REMARK    4  A    between atoms: C_9  and  N_10
REMARK    5  A    between atoms: C_13  and  C_14
REMARK    6  A    between atoms: C_14  and  C_15
REMARK                            x       y       z     vdW  Elec       q    Type
REMARK                         _______ _______ _______ _____ _____    ______ ____
ROOT
ATOM      1  C   UNL     1       7.908   6.924  18.377  0.00  0.00    +0.000 C 
ENDROOT
BRANCH   1   2
ATOM      2  N   UNL     1       6.775   6.666  17.468  0.00  0.00    +0.000 NA
ATOM      3  C   UNL     1       6.993   5.443  16.677  0.00  0.00    +0.000 C 
ATOM      4  C   UNL     1       5.808   5.116  15.772  0.00  0.00    +0.000 C 
ATOM      5  C   UNL     1       4.509   4.992  16.567  0.00  0.00    +0.000 C 
ATOM      6  C   UNL     1       4.313   6.306  17.340  0.00  0.00    +0.000 C 
ATOM      7  C   UNL     1       5.516   6.642  18.223  0.00  0.00    +0.000 C 
BRANCH   5   8
ATOM      8  C   UNL     1       4.520   3.736  17.477  0.00  0.00    +0.000 C 
BRANCH   8   9
ATOM      9  C   UNL     1       3.305   3.667  18.369  0.00  0.00    +0.000 A 
ATOM     10  C   UNL     1       3.336   4.231  19.653  0.00  0.00    +0.000 A 
ATOM     11  C   UNL     1       2.273   4.036  20.539  0.00  0.00    +0.000 A 
ATOM     12  C   UNL     1       1.164   3.302  20.138  0.00  0.00    +0.000 A 
ATOM     13  C   UNL     1       1.111   2.787  18.849  0.00  0.00    +0.000 A 
ATOM     14  F   UNL     1       0.035   2.083  18.463  0.00  0.00    +0.000 F 
ATOM     15  C   UNL     1       2.164   2.968  17.960  0.00  0.00    +0.000 A 
ENDBRANCH   8   9
ENDBRANCH   5   8
ENDBRANCH   1   2
BRANCH   1  17
ATOM     16  C   UNL     1       8.700   9.623  18.119  0.00  0.00    +0.000 C 
ATOM     17  C   UNL     1       8.334   8.377  18.238  0.00  0.00    +0.000 C 
BRANCH  16  22
ATOM     18  C   UNL     1       8.725  15.454  17.852  0.00  0.00    +0.000 A 
ATOM     19  N   UNL     1       7.842  14.515  18.051  0.00  0.00    +0.000 NA
ATOM     20  C   UNL     1       8.573  13.347  17.972  0.00  0.00    +0.000 A 
ATOM     21  C   UNL     1       8.153  12.015  18.107  0.00  0.00    +0.000 A 
ATOM     22  C   UNL     1       9.102  10.991  17.984  0.00  0.00    +0.000 A 
ATOM     23  C   UNL     1      10.445  11.292  17.730  0.00  0.00    +0.000 A 
ATOM     24  C   UNL     1      10.886  12.616  17.591  0.00  0.00    +0.000 A 
ATOM     25  C   UNL     1       9.920  13.612  17.721  0.00  0.00    +0.000 A 
ATOM     26  N   UNL     1       9.983  14.979  17.646  0.00  0.00    +0.000 N 
ATOM     27  H   UNL     1      10.797  15.546  17.476  0.00  0.00    +0.000 HD
BRANCH  18  28
ATOM     28  O   UNL     1       8.425  16.734  17.848  0.00  0.00    +0.000 OA
ATOM     29  H   UNL     1       7.458  16.710  17.960  0.00  0.00    +0.000 HD
ENDBRANCH  18  28
ENDBRANCH  16  22
ENDBRANCH   1  17
TORSDOF 6
ENDMDL
