MODEL 1
REMARK VINA RESULT:      -8.1      0.000      0.000
REMARK  Name = 
REMARK  5 active torsions:
REMARK  status: ('A' for Active; 'I' for Inactive)
REMARK    1  A    between atoms: C_10  and  C_11
REMARK    2  A    between atoms: C_14  and  N_15
REMARK    3  A    between atoms: N_15  and  C_16
REMARK    4  A    between atoms: C_16  and  C_17
REMARK    5  A    between atoms: C_17  and  N_18
REMARK                            x       y       z     vdW  Elec       q    Type
REMARK                         _______ _______ _______ _____ _____    ______ ____
ROOT
ATOM      1  C   UNL     1       1.816   6.458  19.099  0.00  0.00    +0.000 C 
ATOM      2  C   UNL     1       2.880   5.948  20.075  0.00  0.00    +0.000 C 
ATOM      3  C   UNL     1       2.701   4.444  20.313  0.00  0.00    +0.000 C 
ATOM      4  C   UNL     1       2.783   3.628  19.010  0.00  0.00    +0.000 C 
ATOM      5  C   UNL     1       1.739   4.162  18.009  0.00  0.00    +0.000 C 
ATOM      6  C   UNL     1       1.850   5.667  17.777  0.00  0.00    +0.000 C 
ENDROOT
BRANCH   1  16
ATOM      7  C   UNL     1      -0.381   9.348  22.679  0.00  0.00    +0.000 A 
ATOM      8  C   UNL     1       0.387   8.503  21.897  0.00  0.00    +0.000 A 
ATOM      9  C   UNL     1       0.679   9.224  20.734  0.00  0.00    +0.000 A 
ATOM     10  C   UNL     1       0.145  10.496  20.828  0.00  0.00    +0.000 A 
ATOM     11  N   UNL     1       0.219  11.542  19.945  0.00  0.00    +0.000 NA
ATOM     12  C   UNL     1       0.920  11.287  18.863  0.00  0.00    +0.000 A 
ATOM     13  N   UNL     1       1.512  10.038  18.635  0.00  0.00    +0.000 N 
ATOM     14  N   UNL     1       2.193   9.696  17.529  0.00  0.00    +0.000 NA
ATOM     15  N   UNL     1       2.442   8.389  17.618  0.00  0.00    +0.000 NA
ATOM     16  C   UNL     1       1.923   7.915  18.812  0.00  0.00    +0.000 A 
ATOM     17  C   UNL     1       1.396   8.977  19.489  0.00  0.00    +0.000 A 
ATOM     18  N   UNL     1      -0.543  10.543  22.009  0.00  0.00    +0.000 N 
ATOM     19  H   UNL     1      -1.077  11.339  22.328  0.00  0.00    +0.000 HD
ENDBRANCH   1  16
BRANCH   4  20
ATOM     20  N   UNL     1       4.108   3.633  18.374  0.00  0.00    +0.000 NA
ATOM     21  H   UNL     1       4.163   4.388  17.689  0.00  0.00    +0.000 HD
BRANCH  20  22
ATOM     22  C   UNL     1       5.245   3.777  19.297  0.00  0.00    +0.000 C 
BRANCH  22  23
ATOM     23  C   UNL     1       5.941   5.156  19.255  0.00  0.00    +0.000 C 
BRANCH  23  24
ATOM     24  N   UNL     1       7.341   5.119  18.790  0.00  0.00    +0.000 NA
ATOM     25  C   UNL     1       7.998   6.441  18.738  0.00  0.00    +0.000 C 
ATOM     26  C   UNL     1       7.523   7.340  17.586  0.00  0.00    +0.000 C 
ATOM     27  O   UNL     1       7.658   6.682  16.318  0.00  0.00    +0.000 OA
ATOM     28  C   UNL     1       6.940   5.440  16.313  0.00  0.00    +0.000 C 
ATOM     29  C   UNL     1       7.425   4.512  17.440  0.00  0.00    +0.000 C 
ENDBRANCH  23  24
ENDBRANCH  22  23
ENDBRANCH  20  22
ENDBRANCH   4  20
TORSDOF 5
ENDMDL
MODEL 2
REMARK VINA RESULT:      -7.8      1.818      2.938
REMARK  Name = 
REMARK  5 active torsions:
REMARK  status: ('A' for Active; 'I' for Inactive)
REMARK    1  A    between atoms: C_10  and  C_11
REMARK    2  A    between atoms: C_14  and  N_15
REMARK    3  A    between atoms: N_15  and  C_16
REMARK    4  A    between atoms: C_16  and  C_17
REMARK    5  A    between atoms: C_17  and  N_18
REMARK                            x       y       z     vdW  Elec       q    Type
REMARK                         _______ _______ _______ _____ _____    ______ ____
ROOT
ATOM      1  C   UNL     1       0.970   8.294  19.875  0.00  0.00    +0.000 C 
ATOM      2  C   UNL     1       1.418   7.344  20.988  0.00  0.00    +0.000 C 
ATOM      3  C   UNL     1       1.643   5.936  20.422  0.00  0.00    +0.000 C 
ATOM      4  C   UNL     1       2.689   5.916  19.294  0.00  0.00    +0.000 C 
ATOM      5  C   UNL     1       2.263   6.899  18.187  0.00  0.00    +0.000 C 
ATOM      6  C   UNL     1       1.982   8.306  18.713  0.00  0.00    +0.000 C 
ENDROOT
BRANCH   1  16
ATOM      7  C   UNL     1      -2.187  10.894  16.829  0.00  0.00    +0.000 A 
ATOM      8  C   UNL     1      -1.542  10.044  17.711  0.00  0.00    +0.000 A 
ATOM      9  C   UNL     1      -0.864  10.874  18.610  0.00  0.00    +0.000 A 
ATOM     10  C   UNL     1      -1.131  12.198  18.313  0.00  0.00    +0.000 A 
ATOM     11  N   UNL     1      -0.712  13.337  18.951  0.00  0.00    +0.000 NA
ATOM     12  C   UNL     1       0.039  13.120  20.008  0.00  0.00    +0.000 A 
ATOM     13  N   UNL     1       0.392  11.829  20.419  0.00  0.00    +0.000 N 
ATOM     14  N   UNL     1       1.198  11.542  21.455  0.00  0.00    +0.000 NA
ATOM     15  N   UNL     1       1.425  10.227  21.413  0.00  0.00    +0.000 NA
ATOM     16  C   UNL     1       0.732   9.688  20.342  0.00  0.00    +0.000 A 
ATOM     17  C   UNL     1       0.019  10.694  19.756  0.00  0.00    +0.000 A 
ATOM     18  N   UNL     1      -1.908  12.196  17.189  0.00  0.00    +0.000 N 
ATOM     19  H   UNL     1      -2.225  13.028  16.712  0.00  0.00    +0.000 HD
ENDBRANCH   1  16
BRANCH   4  20
ATOM     20  N   UNL     1       4.056   6.241  19.728  0.00  0.00    +0.000 NA
ATOM     21  H   UNL     1       4.045   6.575  20.693  0.00  0.00    +0.000 HD
BRANCH  20  22
ATOM     22  C   UNL     1       5.020   5.133  19.644  0.00  0.00    +0.000 C 
BRANCH  22  23
ATOM     23  C   UNL     1       5.219   4.557  18.223  0.00  0.00    +0.000 C 
BRANCH  23  24
ATOM     24  N   UNL     1       6.628   4.325  17.851  0.00  0.00    +0.000 NA
ATOM     25  C   UNL     1       7.565   5.350  18.355  0.00  0.00    +0.000 C 
ATOM     26  C   UNL     1       7.479   6.700  17.626  0.00  0.00    +0.000 C 
ATOM     27  O   UNL     1       7.649   6.543  16.211  0.00  0.00    +0.000 OA
ATOM     28  C   UNL     1       6.681   5.627  15.683  0.00  0.00    +0.000 C 
ATOM     29  C   UNL     1       6.772   4.258  16.377  0.00  0.00    +0.000 C 
ENDBRANCH  23  24
ENDBRANCH  22  23
ENDBRANCH  20  22
ENDBRANCH   4  20
TORSDOF 5
ENDMDL
MODEL 3
REMARK VINA RESULT:      -7.8      3.676      8.442
REMARK  Name = 
REMARK  5 active torsions:
REMARK  status: ('A' for Active; 'I' for Inactive)
REMARK    1  A    between atoms: C_10  and  C_11
REMARK    2  A    between atoms: C_14  and  N_15
REMARK    3  A    between atoms: N_15  and  C_16
REMARK    4  A    between atoms: C_16  and  C_17
REMARK    5  A    between atoms: C_17  and  N_18
REMARK                            x       y       z     vdW  Elec       q    Type
REMARK                         _______ _______ _______ _____ _____    ______ ____
ROOT
ATOM      1  C   UNL     1       2.207   6.915  20.020  0.00  0.00    +0.000 C 
ATOM      2  C   UNL     1       1.354   7.555  21.118  0.00  0.00    +0.000 C 
ATOM      3  C   UNL     1       1.528   9.079  21.102  0.00  0.00    +0.000 C 
ATOM      4  C   UNL     1       1.148   9.700  19.746  0.00  0.00    +0.000 C 
ATOM      5  C   UNL     1       1.976   9.033  18.630  0.00  0.00    +0.000 C 
ATOM      6  C   UNL     1       1.870   7.509  18.638  0.00  0.00    +0.000 C 
ENDROOT
BRANCH   1  16
ATOM      7  C   UNL     1       5.862   4.746  17.203  0.00  0.00    +0.000 A 
ATOM      8  C   UNL     1       5.067   5.398  18.130  0.00  0.00    +0.000 A 
ATOM      9  C   UNL     1       4.022   4.514  18.422  0.00  0.00    +0.000 A 
ATOM     10  C   UNL     1       4.205   3.331  17.727  0.00  0.00    +0.000 A 
ATOM     11  N   UNL     1       3.453   2.185  17.741  0.00  0.00    +0.000 NA
ATOM     12  C   UNL     1       2.419   2.227  18.553  0.00  0.00    +0.000 A 
ATOM     13  N   UNL     1       2.112   3.364  19.311  0.00  0.00    +0.000 N 
ATOM     14  N   UNL     1       1.043   3.490  20.115  0.00  0.00    +0.000 NA
ATOM     15  N   UNL     1       1.011   4.762  20.516  0.00  0.00    +0.000 NA
ATOM     16  C   UNL     1       2.092   5.432  19.967  0.00  0.00    +0.000 A 
ATOM     17  C   UNL     1       2.830   4.526  19.260  0.00  0.00    +0.000 A 
ATOM     18  N   UNL     1       5.315   3.506  16.948  0.00  0.00    +0.000 N 
ATOM     19  H   UNL     1       5.668   2.819  16.296  0.00  0.00    +0.000 HD
ENDBRANCH   1  16
BRANCH   4  20
ATOM     20  N   UNL     1      -0.281   9.599  19.412  0.00  0.00    +0.000 NA
ATOM     21  H   UNL     1      -0.729   8.902  20.008  0.00  0.00    +0.000 HD
BRANCH  20  22
ATOM     22  C   UNL     1      -1.041  10.853  19.531  0.00  0.00    +0.000 C 
BRANCH  22  23
ATOM     23  C   UNL     1      -1.859  11.234  18.276  0.00  0.00    +0.000 C 
BRANCH  23  24
ATOM     24  N   UNL     1      -2.745  10.164  17.778  0.00  0.00    +0.000 NA
ATOM     25  C   UNL     1      -2.480   9.758  16.382  0.00  0.00    +0.000 C 
ATOM     26  C   UNL     1      -2.937  10.779  15.329  0.00  0.00    +0.000 C 
ATOM     27  O   UNL     1      -4.324  11.107  15.482  0.00  0.00    +0.000 OA
ATOM     28  C   UNL     1      -4.585  11.601  16.803  0.00  0.00    +0.000 C 
ATOM     29  C   UNL     1      -4.165  10.579  17.873  0.00  0.00    +0.000 C 
ENDBRANCH  23  24
ENDBRANCH  22  23
ENDBRANCH  20  22
ENDBRANCH   4  20
TORSDOF 5
ENDMDL
MODEL 4
REMARK VINA RESULT:      -7.7      1.314      1.787
REMARK  Name = 
REMARK  5 active torsions:
REMARK  status: ('A' for Active; 'I' for Inactive)
REMARK    1  A    between atoms: C_10  and  C_11
REMARK    2  A    between atoms: C_14  and  N_15
REMARK    3  A    between atoms: N_15  and  C_16
REMARK    4  A    between atoms: C_16  and  C_17
REMARK    5  A    between atoms: C_17  and  N_18
REMARK                            x       y       z     vdW  Elec       q    Type
REMARK                         _______ _______ _______ _____ _____    ______ ____
ROOT
ATOM      1  C   UNL     1       1.825   5.722  19.428  0.00  0.00    +0.000 C 
ATOM      2  C   UNL     1       2.750   5.194  20.527  0.00  0.00    +0.000 C 
ATOM      3  C   UNL     1       2.275   3.814  20.999  0.00  0.00    +0.000 C 
ATOM      4  C   UNL     1       2.220   2.788  19.854  0.00  0.00    +0.000 C 
ATOM      5  C   UNL     1       1.320   3.331  18.726  0.00  0.00    +0.000 C 
ATOM      6  C   UNL     1       1.728   4.725  18.257  0.00  0.00    +0.000 C 
ENDROOT
BRANCH   1  16
ATOM      7  C   UNL     1      -0.246   9.555  22.077  0.00  0.00    +0.000 A 
ATOM      8  C   UNL     1       0.450   8.468  21.579  0.00  0.00    +0.000 A 
ATOM      9  C   UNL     1       1.003   8.894  20.366  0.00  0.00    +0.000 A 
ATOM     10  C   UNL     1       0.693  10.226  20.157  0.00  0.00    +0.000 A 
ATOM     11  N   UNL     1       1.057  11.055  19.127  0.00  0.00    +0.000 NA
ATOM     12  C   UNL     1       1.828  10.489  18.224  0.00  0.00    +0.000 A 
ATOM     13  N   UNL     1       2.213   9.146  18.309  0.00  0.00    +0.000 N 
ATOM     14  N   UNL     1       2.953   8.495  17.395  0.00  0.00    +0.000 NA
ATOM     15  N   UNL     1       2.955   7.208  17.746  0.00  0.00    +0.000 NA
ATOM     16  C   UNL     1       2.220   7.062  18.911  0.00  0.00    +0.000 A 
ATOM     17  C   UNL     1       1.810   8.303  19.307  0.00  0.00    +0.000 A 
ATOM     18  N   UNL     1      -0.113  10.605  21.193  0.00  0.00    +0.000 N 
ATOM     19  H   UNL     1      -0.533  11.520  21.285  0.00  0.00    +0.000 HD
ENDBRANCH   1  16
BRANCH   4  20
ATOM     20  N   UNL     1       3.532   2.432  19.294  0.00  0.00    +0.000 NA
ATOM     21  H   UNL     1       3.850   1.546  19.687  0.00  0.00    +0.000 HD
BRANCH  20  22
ATOM     22  C   UNL     1       3.577   2.319  17.827  0.00  0.00    +0.000 C 
BRANCH  22  23
ATOM     23  C   UNL     1       4.856   2.890  17.174  0.00  0.00    +0.000 C 
BRANCH  23  24
ATOM     24  N   UNL     1       4.938   4.363  17.177  0.00  0.00    +0.000 NA
ATOM     25  C   UNL     1       5.235   4.957  15.858  0.00  0.00    +0.000 C 
ATOM     26  C   UNL     1       6.687   4.767  15.391  0.00  0.00    +0.000 C 
ATOM     27  O   UNL     1       7.619   5.258  16.364  0.00  0.00    +0.000 OA
ATOM     28  C   UNL     1       7.414   4.618  17.630  0.00  0.00    +0.000 C 
ATOM     29  C   UNL     1       5.974   4.825  18.132  0.00  0.00    +0.000 C 
ENDBRANCH  23  24
ENDBRANCH  22  23
ENDBRANCH  20  22
ENDBRANCH   4  20
TORSDOF 5
ENDMDL
MODEL 5
REMARK VINA RESULT:      -7.6      1.946      3.209
REMARK  Name = 
REMARK  5 active torsions:
REMARK  status: ('A' for Active; 'I' for Inactive)
REMARK    1  A    between atoms: C_10  and  C_11
REMARK    2  A    between atoms: C_14  and  N_15
REMARK    3  A    between atoms: N_15  and  C_16
REMARK    4  A    between atoms: C_16  and  C_17
REMARK    5  A    between atoms: C_17  and  N_18
REMARK                            x       y       z     vdW  Elec       q    Type
REMARK                         _______ _______ _______ _____ _____    ______ ____
ROOT
ATOM      1  C   UNL     1       0.933   8.225  19.946  0.00  0.00    +0.000 C 
ATOM      2  C   UNL     1       1.459   7.289  21.037  0.00  0.00    +0.000 C 
ATOM      3  C   UNL     1       1.679   5.883  20.466  0.00  0.00    +0.000 C 
ATOM      4  C   UNL     1       2.663   5.876  19.283  0.00  0.00    +0.000 C 
ATOM      5  C   UNL     1       2.158   6.845  18.196  0.00  0.00    +0.000 C 
ATOM      6  C   UNL     1       1.880   8.249  18.731  0.00  0.00    +0.000 C 
ENDROOT
BRANCH   1  16
ATOM      7  C   UNL     1      -2.110  10.882  16.836  0.00  0.00    +0.000 A 
ATOM      8  C   UNL     1      -1.499  10.018  17.728  0.00  0.00    +0.000 A 
ATOM      9  C   UNL     1      -0.840  10.834  18.655  0.00  0.00    +0.000 A 
ATOM     10  C   UNL     1      -1.086  12.163  18.363  0.00  0.00    +0.000 A 
ATOM     11  N   UNL     1      -0.675  13.292  19.023  0.00  0.00    +0.000 NA
ATOM     12  C   UNL     1       0.042  13.058  20.100  0.00  0.00    +0.000 A 
ATOM     13  N   UNL     1       0.372  11.759  20.508  0.00  0.00    +0.000 N 
ATOM     14  N   UNL     1       1.144  11.454  21.564  0.00  0.00    +0.000 NA
ATOM     15  N   UNL     1       1.361  10.139  21.516  0.00  0.00    +0.000 NA
ATOM     16  C   UNL     1       0.694   9.616  20.421  0.00  0.00    +0.000 A 
ATOM     17  C   UNL     1       0.008  10.634  19.823  0.00  0.00    +0.000 A 
ATOM     18  N   UNL     1      -1.830  12.178  17.216  0.00  0.00    +0.000 N 
ATOM     19  H   UNL     1      -2.125  13.018  16.738  0.00  0.00    +0.000 HD
ENDBRANCH   1  16
BRANCH   4  20
ATOM     20  N   UNL     1       4.044   6.230  19.640  0.00  0.00    +0.000 NA
ATOM     21  H   UNL     1       4.112   6.404  20.643  0.00  0.00    +0.000 HD
BRANCH  20  22
ATOM     22  C   UNL     1       5.059   5.224  19.286  0.00  0.00    +0.000 C 
BRANCH  22  23
ATOM     23  C   UNL     1       4.898   4.612  17.876  0.00  0.00    +0.000 C 
BRANCH  23  24
ATOM     24  N   UNL     1       4.946   5.594  16.776  0.00  0.00    +0.000 NA
ATOM     25  C   UNL     1       5.317   5.021  15.466  0.00  0.00    +0.000 C 
ATOM     26  C   UNL     1       6.801   4.641  15.339  0.00  0.00    +0.000 C 
ATOM     27  O   UNL     1       7.654   5.754  15.640  0.00  0.00    +0.000 OA
ATOM     28  C   UNL     1       7.379   6.263  16.952  0.00  0.00    +0.000 C 
ATOM     29  C   UNL     1       5.905   6.680  17.090  0.00  0.00    +0.000 C 
ENDBRANCH  23  24
ENDBRANCH  22  23
ENDBRANCH  20  22
ENDBRANCH   4  20
TORSDOF 5
ENDMDL
MODEL 6
REMARK VINA RESULT:      -7.6      1.322      1.680
REMARK  Name = 
REMARK  5 active torsions:
REMARK  status: ('A' for Active; 'I' for Inactive)
REMARK    1  A    between atoms: C_10  and  C_11
REMARK    2  A    between atoms: C_14  and  N_15
REMARK    3  A    between atoms: N_15  and  C_16
REMARK    4  A    between atoms: C_16  and  C_17
REMARK    5  A    between atoms: C_17  and  N_18
REMARK                            x       y       z     vdW  Elec       q    Type
REMARK                         _______ _______ _______ _____ _____    ______ ____
ROOT
ATOM      1  C   UNL     1       2.595   6.844  19.738  0.00  0.00    +0.000 C 
ATOM      2  C   UNL     1       3.794   6.267  18.982  0.00  0.00    +0.000 C 
ATOM      3  C   UNL     1       4.265   4.969  19.648  0.00  0.00    +0.000 C 
ATOM      4  C   UNL     1       3.154   3.906  19.713  0.00  0.00    +0.000 C 
ATOM      5  C   UNL     1       1.929   4.493  20.442  0.00  0.00    +0.000 C 
ATOM      6  C   UNL     1       1.454   5.814  19.839  0.00  0.00    +0.000 C 
ENDROOT
BRANCH   1  16
ATOM      7  C   UNL     1      -0.066   9.630  23.079  0.00  0.00    +0.000 A 
ATOM      8  C   UNL     1       0.861   8.931  22.326  0.00  0.00    +0.000 A 
ATOM      9  C   UNL     1       0.684   9.365  21.008  0.00  0.00    +0.000 A 
ATOM     10  C   UNL     1      -0.294  10.343  20.968  0.00  0.00    +0.000 A 
ATOM     11  N   UNL     1      -0.760  11.067  19.901  0.00  0.00    +0.000 NA
ATOM     12  C   UNL     1      -0.168  10.792  18.760  0.00  0.00    +0.000 A 
ATOM     13  N   UNL     1       0.834   9.819  18.656  0.00  0.00    +0.000 N 
ATOM     14  N   UNL     1       1.440   9.454  17.513  0.00  0.00    +0.000 NA
ATOM     15  N   UNL     1       2.197   8.393  17.801  0.00  0.00    +0.000 NA
ATOM     16  C   UNL     1       2.074   8.109  19.151  0.00  0.00    +0.000 A 
ATOM     17  C   UNL     1       1.265   9.059  19.707  0.00  0.00    +0.000 A 
ATOM     18  N   UNL     1      -0.777  10.462  22.241  0.00  0.00    +0.000 N 
ATOM     19  H   UNL     1      -1.535  11.074  22.509  0.00  0.00    +0.000 HD
ENDBRANCH   1  16
BRANCH   4  20
ATOM     20  N   UNL     1       2.734   3.386  18.404  0.00  0.00    +0.000 NA
ATOM     21  H   UNL     1       2.298   4.130  17.858  0.00  0.00    +0.000 HD
BRANCH  20  22
ATOM     22  C   UNL     1       3.809   2.798  17.589  0.00  0.00    +0.000 C 
BRANCH  22  23
ATOM     23  C   UNL     1       4.517   3.791  16.640  0.00  0.00    +0.000 C 
BRANCH  23  24
ATOM     24  N   UNL     1       5.953   3.521  16.437  0.00  0.00    +0.000 NA
ATOM     25  C   UNL     1       6.852   4.392  17.222  0.00  0.00    +0.000 C 
ATOM     26  C   UNL     1       6.938   5.838  16.710  0.00  0.00    +0.000 C 
ATOM     27  O   UNL     1       7.308   5.883  15.325  0.00  0.00    +0.000 OA
ATOM     28  C   UNL     1       6.388   5.125  14.529  0.00  0.00    +0.000 C 
ATOM     29  C   UNL     1       6.312   3.664  15.005  0.00  0.00    +0.000 C 
ENDBRANCH  23  24
ENDBRANCH  22  23
ENDBRANCH  20  22
ENDBRANCH   4  20
TORSDOF 5
ENDMDL
MODEL 7
REMARK VINA RESULT:      -7.6      0.987      1.098
REMARK  Name = 
REMARK  5 active torsions:
REMARK  status: ('A' for Active; 'I' for Inactive)
REMARK    1  A    between atoms: C_10  and  C_11
REMARK    2  A    between atoms: C_14  and  N_15
REMARK    3  A    between atoms: N_15  and  C_16
REMARK    4  A    between atoms: C_16  and  C_17
REMARK    5  A    between atoms: C_17  and  N_18
REMARK                            x       y       z     vdW  Elec       q    Type
REMARK                         _______ _______ _______ _____ _____    ______ ____
ROOT
ATOM      1  C   UNL     1       1.741   6.095  19.262  0.00  0.00    +0.000 C 
ATOM      2  C   UNL     1       2.645   5.593  20.390  0.00  0.00    +0.000 C 
ATOM      3  C   UNL     1       2.300   4.139  20.735  0.00  0.00    +0.000 C 
ATOM      4  C   UNL     1       2.438   3.198  19.525  0.00  0.00    +0.000 C 
ATOM      5  C   UNL     1       1.557   3.720  18.372  0.00  0.00    +0.000 C 
ATOM      6  C   UNL     1       1.835   5.181  18.025  0.00  0.00    +0.000 C 
ENDROOT
BRANCH   1  16
ATOM      7  C   UNL     1      -0.259   9.492  22.496  0.00  0.00    +0.000 A 
ATOM      8  C   UNL     1       0.440   8.508  21.820  0.00  0.00    +0.000 A 
ATOM      9  C   UNL     1       0.851   9.094  20.617  0.00  0.00    +0.000 A 
ATOM     10  C   UNL     1       0.454  10.418  20.585  0.00  0.00    +0.000 A 
ATOM     11  N   UNL     1       0.673  11.372  19.625  0.00  0.00    +0.000 NA
ATOM     12  C   UNL     1       1.381  10.954  18.598  0.00  0.00    +0.000 A 
ATOM     13  N   UNL     1       1.842   9.635  18.499  0.00  0.00    +0.000 N 
ATOM     14  N   UNL     1       2.521   9.132  17.455  0.00  0.00    +0.000 NA
ATOM     15  N   UNL     1       2.625   7.817  17.660  0.00  0.00    +0.000 NA
ATOM     16  C   UNL     1       2.014   7.504  18.863  0.00  0.00    +0.000 A 
ATOM     17  C   UNL     1       1.581   8.669  19.429  0.00  0.00    +0.000 A 
ATOM     18  N   UNL     1      -0.267  10.636  21.726  0.00  0.00    +0.000 N 
ATOM     19  H   UNL     1      -0.722  11.508  21.956  0.00  0.00    +0.000 HD
ENDBRANCH   1  16
BRANCH   4  20
ATOM     20  N   UNL     1       3.816   3.029  19.041  0.00  0.00    +0.000 NA
ATOM     21  H   UNL     1       4.245   2.220  19.490  0.00  0.00    +0.000 HD
BRANCH  20  22
ATOM     22  C   UNL     1       3.952   2.865  17.585  0.00  0.00    +0.000 C 
BRANCH  22  23
ATOM     23  C   UNL     1       4.845   3.922  16.897  0.00  0.00    +0.000 C 
BRANCH  23  24
ATOM     24  N   UNL     1       5.891   4.495  17.765  0.00  0.00    +0.000 NA
ATOM     25  C   UNL     1       5.701   5.926  18.080  0.00  0.00    +0.000 C 
ATOM     26  C   UNL     1       5.997   6.876  16.910  0.00  0.00    +0.000 C 
ATOM     27  O   UNL     1       7.315   6.667  16.384  0.00  0.00    +0.000 OA
ATOM     28  C   UNL     1       7.487   5.303  15.976  0.00  0.00    +0.000 C 
ATOM     29  C   UNL     1       7.228   4.336  17.144  0.00  0.00    +0.000 C 
ENDBRANCH  23  24
ENDBRANCH  22  23
ENDBRANCH  20  22
ENDBRANCH   4  20
TORSDOF 5
ENDMDL
MODEL 8
REMARK VINA RESULT:      -7.6      1.336      1.844
REMARK  Name = 
REMARK  5 active torsions:
REMARK  status: ('A' for Active; 'I' for Inactive)
REMARK    1  A    between atoms: C_10  and  C_11
REMARK    2  A    between atoms: C_14  and  N_15
REMARK    3  A    between atoms: N_15  and  C_16
REMARK    4  A    between atoms: C_16  and  C_17
REMARK    5  A    between atoms: C_17  and  N_18
REMARK                            x       y       z     vdW  Elec       q    Type
REMARK                         _______ _______ _______ _____ _____    ______ ____
ROOT
ATOM      1  C   UNL     1       1.403   8.471  19.270  0.00  0.00    +0.000 C 
ATOM      2  C   UNL     1       1.757   7.812  20.606  0.00  0.00    +0.000 C 
ATOM      3  C   UNL     1       1.656   6.287  20.487  0.00  0.00    +0.000 C 
ATOM      4  C   UNL     1       2.574   5.721  19.389  0.00  0.00    +0.000 C 
ATOM      5  C   UNL     1       2.248   6.407  18.048  0.00  0.00    +0.000 C 
ATOM      6  C   UNL     1       2.291   7.931  18.132  0.00  0.00    +0.000 C 
ENDROOT
BRANCH   1  16
ATOM      7  C   UNL     1      -1.081  10.500  23.234  0.00  0.00    +0.000 A 
ATOM      8  C   UNL     1      -0.245   9.853  22.341  0.00  0.00    +0.000 A 
ATOM      9  C   UNL     1       0.090  10.809  21.374  0.00  0.00    +0.000 A 
ATOM     10  C   UNL     1      -0.489  12.022  21.700  0.00  0.00    +0.000 A 
ATOM     11  N   UNL     1      -0.397  13.232  21.061  0.00  0.00    +0.000 NA
ATOM     12  C   UNL     1       0.371  13.223  19.994  0.00  0.00    +0.000 A 
ATOM     13  N   UNL     1       1.013  12.061  19.547  0.00  0.00    +0.000 N 
ATOM     14  N   UNL     1       1.766  11.973  18.438  0.00  0.00    +0.000 NA
ATOM     15  N   UNL     1       2.050  10.681  18.267  0.00  0.00    +0.000 NA
ATOM     16  C   UNL     1       1.479   9.957  19.301  0.00  0.00    +0.000 A 
ATOM     17  C   UNL     1       0.882  10.843  20.152  0.00  0.00    +0.000 A 
ATOM     18  N   UNL     1      -1.242  11.806  22.820  0.00  0.00    +0.000 N 
ATOM     19  H   UNL     1      -1.818  12.507  23.265  0.00  0.00    +0.000 HD
ENDBRANCH   1  16
BRANCH   4  20
ATOM     20  N   UNL     1       4.011   5.863  19.667  0.00  0.00    +0.000 NA
ATOM     21  H   UNL     1       4.148   6.253  20.600  0.00  0.00    +0.000 HD
BRANCH  20  22
ATOM     22  C   UNL     1       4.792   4.619  19.576  0.00  0.00    +0.000 C 
BRANCH  22  23
ATOM     23  C   UNL     1       5.394   4.335  18.182  0.00  0.00    +0.000 C 
BRANCH  23  24
ATOM     24  N   UNL     1       6.861   4.477  18.111  0.00  0.00    +0.000 NA
ATOM     25  C   UNL     1       7.372   5.764  18.626  0.00  0.00    +0.000 C 
ATOM     26  C   UNL     1       7.100   6.966  17.709  0.00  0.00    +0.000 C 
ATOM     27  O   UNL     1       7.604   6.741  16.385  0.00  0.00    +0.000 OA
ATOM     28  C   UNL     1       7.041   5.547  15.825  0.00  0.00    +0.000 C 
ATOM     29  C   UNL     1       7.331   4.325  16.712  0.00  0.00    +0.000 C 
ENDBRANCH  23  24
ENDBRANCH  22  23
ENDBRANCH  20  22
ENDBRANCH   4  20
TORSDOF 5
ENDMDL
MODEL 9
REMARK VINA RESULT:      -7.5      3.311      7.479
REMARK  Name = 
REMARK  5 active torsions:
REMARK  status: ('A' for Active; 'I' for Inactive)
REMARK    1  A    between atoms: C_10  and  C_11
REMARK    2  A    between atoms: C_14  and  N_15
REMARK    3  A    between atoms: N_15  and  C_16
REMARK    4  A    between atoms: C_16  and  C_17
REMARK    5  A    between atoms: C_17  and  N_18
REMARK                            x       y       z     vdW  Elec       q    Type
REMARK                         _______ _______ _______ _____ _____    ______ ____
ROOT
ATOM      1  C   UNL     1       1.719   7.734  18.657  0.00  0.00    +0.000 C 
ATOM      2  C   UNL     1       1.573   8.972  17.768  0.00  0.00    +0.000 C 
ATOM      3  C   UNL     1       0.360   9.800  18.210  0.00  0.00    +0.000 C 
ATOM      4  C   UNL     1       0.457  10.246  19.680  0.00  0.00    +0.000 C 
ATOM      5  C   UNL     1       0.641   9.006  20.577  0.00  0.00    +0.000 C 
ATOM      6  C   UNL     1       1.811   8.125  20.144  0.00  0.00    +0.000 C 
ENDROOT
BRANCH   1  16
ATOM      7  C   UNL     1       1.557   3.146  20.876  0.00  0.00    +0.000 A 
ATOM      8  C   UNL     1       1.390   4.307  20.142  0.00  0.00    +0.000 A 
ATOM      9  C   UNL     1       2.643   4.587  19.584  0.00  0.00    +0.000 A 
ATOM     10  C   UNL     1       3.538   3.591  19.930  0.00  0.00    +0.000 A 
ATOM     11  N   UNL     1       4.854   3.439  19.576  0.00  0.00    +0.000 NA
ATOM     12  C   UNL     1       5.310   4.378  18.776  0.00  0.00    +0.000 A 
ATOM     13  N   UNL     1       4.513   5.449  18.352  0.00  0.00    +0.000 N 
ATOM     14  N   UNL     1       4.933   6.466  17.582  0.00  0.00    +0.000 NA
ATOM     15  N   UNL     1       3.941   7.358  17.547  0.00  0.00    +0.000 NA
ATOM     16  C   UNL     1       2.879   6.875  18.294  0.00  0.00    +0.000 A 
ATOM     17  C   UNL     1       3.217   5.631  18.745  0.00  0.00    +0.000 A 
ATOM     18  N   UNL     1       2.869   2.737  20.761  0.00  0.00    +0.000 N 
ATOM     19  H   UNL     1       3.285   1.932  21.209  0.00  0.00    +0.000 HD
ENDBRANCH   1  16
BRANCH   4  20
ATOM     20  N   UNL     1       1.537  11.204  19.954  0.00  0.00    +0.000 NA
ATOM     21  H   UNL     1       2.418  10.853  19.577  0.00  0.00    +0.000 HD
BRANCH  20  22
ATOM     22  C   UNL     1       1.323  12.558  19.419  0.00  0.00    +0.000 C 
BRANCH  22  23
ATOM     23  C   UNL     1       2.475  13.095  18.540  0.00  0.00    +0.000 C 
BRANCH  23  24
ATOM     24  N   UNL     1       3.324  14.107  19.197  0.00  0.00    +0.000 NA
ATOM     25  C   UNL     1       2.572  15.195  19.856  0.00  0.00    +0.000 C 
ATOM     26  C   UNL     1       1.933  16.200  18.885  0.00  0.00    +0.000 C 
ATOM     27  O   UNL     1       2.907  16.757  17.991  0.00  0.00    +0.000 OA
ATOM     28  C   UNL     1       3.580  15.720  17.265  0.00  0.00    +0.000 C 
ATOM     29  C   UNL     1       4.255  14.720  18.219  0.00  0.00    +0.000 C 
ENDBRANCH  23  24
ENDBRANCH  22  23
ENDBRANCH  20  22
ENDBRANCH   4  20
TORSDOF 5
ENDMDL
