MODEL 1
REMARK VINA RESULT:      -7.6      0.000      0.000
REMARK  Name = 
REMARK  4 active torsions:
REMARK  status: ('A' for Active; 'I' for Inactive)
REMARK    1  A    between atoms: C_1  and  C_2
REMARK    2  A    between atoms: C_2  and  C_4
REMARK    3  A    between atoms: N_7  and  C_8
REMARK    4  A    between atoms: C_19  and  C_20
REMARK                            x       y       z     vdW  Elec       q    Type
REMARK                         _______ _______ _______ _____ _____    ______ ____
ROOT
ATOM      1  C   UNL     1       0.515  10.500  21.138  0.00  0.00    +0.000 A 
ATOM      2  S   UNL     1       1.197   9.286  22.101  0.00  0.00    +0.000 S 
ATOM      3  C   UNL     1       1.376   8.235  20.809  0.00  0.00    +0.000 A 
ATOM      4  N   UNL     1       1.942   6.935  20.890  0.00  0.00    +0.000 N 
ATOM      5  N   UNL     1       0.880   8.753  19.666  0.00  0.00    +0.000 NA
ATOM      6  C   UNL     1       0.395  10.006  19.831  0.00  0.00    +0.000 A 
ATOM      7  C   UNL     1      -0.212  10.732  18.673  0.00  0.00    +0.000 C 
ATOM      8  H   UNL     1       2.000   6.500  21.820  0.00  0.00    +0.000 HD
ENDROOT
BRANCH   4   9
ATOM      9  C   UNL     1       2.420   6.245  19.731  0.00  0.00    +0.000 A 
ATOM     10  C   UNL     1       3.330   6.889  18.861  0.00  0.00    +0.000 A 
ATOM     11  C   UNL     1       3.828   6.254  17.732  0.00  0.00    +0.000 A 
ATOM     12  C   UNL     1       3.433   4.958  17.429  0.00  0.00    +0.000 A 
ATOM     13  C   UNL     1       2.536   4.280  18.265  0.00  0.00    +0.000 A 
ATOM     14  C   UNL     1       2.140   2.975  17.939  0.00  0.00    +0.000 A 
ATOM     15  C   UNL     1       1.239   2.290  18.751  0.00  0.00    +0.000 A 
ATOM     16  C   UNL     1       0.727   2.898  19.897  0.00  0.00    +0.000 A 
ATOM     17  C   UNL     1       1.111   4.198  20.241  0.00  0.00    +0.000 A 
ATOM     18  C   UNL     1       2.026   4.912  19.433  0.00  0.00    +0.000 A 
ENDBRANCH   4   9
BRANCH   1  20
ATOM     19  C   UNL     1      -1.195  12.049  22.295  0.00  0.00    +0.000 C 
ATOM     20  C   UNL     1       0.136  11.837  21.637  0.00  0.00    +0.000 C 
ATOM     21  O   UNL     1       0.910  12.777  21.538  0.00  0.00    +0.000 OA
ENDBRANCH   1  20
TORSDOF 2
ENDMDL
MODEL 2
REMARK VINA RESULT:      -7.1      3.260      7.078
REMARK  Name = 
REMARK  4 active torsions:
REMARK  status: ('A' for Active; 'I' for Inactive)
REMARK    1  A    between atoms: C_1  and  C_2
REMARK    2  A    between atoms: C_2  and  C_4
REMARK    3  A    between atoms: N_7  and  C_8
REMARK    4  A    between atoms: C_19  and  C_20
REMARK                            x       y       z     vdW  Elec       q    Type
REMARK                         _______ _______ _______ _____ _____    ______ ____
ROOT
ATOM      1  C   UNL     1       3.594   3.847  19.673  0.00  0.00    +0.000 A 
ATOM      2  S   UNL     1       2.371   4.271  20.763  0.00  0.00    +0.000 S 
ATOM      3  C   UNL     1       2.424   5.889  20.335  0.00  0.00    +0.000 A 
ATOM      4  N   UNL     1       1.593   6.903  20.881  0.00  0.00    +0.000 N 
ATOM      5  N   UNL     1       3.387   6.137  19.423  0.00  0.00    +0.000 NA
ATOM      6  C   UNL     1       4.048   5.017  19.047  0.00  0.00    +0.000 A 
ATOM      7  C   UNL     1       5.164   5.104  18.055  0.00  0.00    +0.000 C 
ATOM      8  H   UNL     1       1.122   6.701  21.772  0.00  0.00    +0.000 HD
ENDROOT
BRANCH   4   9
ATOM      9  C   UNL     1       1.407   8.163  20.227  0.00  0.00    +0.000 A 
ATOM     10  C   UNL     1       1.890   8.343  18.910  0.00  0.00    +0.000 A 
ATOM     11  C   UNL     1       1.722   9.543  18.234  0.00  0.00    +0.000 A 
ATOM     12  C   UNL     1       1.072  10.604  18.847  0.00  0.00    +0.000 A 
ATOM     13  C   UNL     1       0.573  10.470  20.150  0.00  0.00    +0.000 A 
ATOM     14  C   UNL     1      -0.072  11.555  20.759  0.00  0.00    +0.000 A 
ATOM     15  C   UNL     1      -0.562  11.443  22.058  0.00  0.00    +0.000 A 
ATOM     16  C   UNL     1      -0.416  10.247  22.761  0.00  0.00    +0.000 A 
ATOM     17  C   UNL     1       0.222   9.153  22.171  0.00  0.00    +0.000 A 
ATOM     18  C   UNL     1       0.726   9.242  20.853  0.00  0.00    +0.000 A 
ENDBRANCH   4   9
BRANCH   1  20
ATOM     19  C   UNL     1       3.487   1.643  18.335  0.00  0.00    +0.000 C 
ATOM     20  C   UNL     1       4.062   2.464  19.449  0.00  0.00    +0.000 C 
ATOM     21  O   UNL     1       4.937   1.985  20.155  0.00  0.00    +0.000 OA
ENDBRANCH   1  20
TORSDOF 2
ENDMDL
MODEL 3
REMARK VINA RESULT:      -7.1      3.115      7.209
REMARK  Name = 
REMARK  4 active torsions:
REMARK  status: ('A' for Active; 'I' for Inactive)
REMARK    1  A    between atoms: C_1  and  C_2
REMARK    2  A    between atoms: C_2  and  C_4
REMARK    3  A    between atoms: N_7  and  C_8
REMARK    4  A    between atoms: C_19  and  C_20
REMARK                            x       y       z     vdW  Elec       q    Type
REMARK                         _______ _______ _______ _____ _____    ______ ____
ROOT
ATOM      1  C   UNL     1       3.178   4.102  19.517  0.00  0.00    +0.000 A 
ATOM      2  S   UNL     1       3.614   5.541  18.741  0.00  0.00    +0.000 S 
ATOM      3  C   UNL     1       2.405   6.422  19.494  0.00  0.00    +0.000 A 
ATOM      4  N   UNL     1       2.175   7.811  19.311  0.00  0.00    +0.000 N 
ATOM      5  N   UNL     1       1.633   5.645  20.283  0.00  0.00    +0.000 NA
ATOM      6  C   UNL     1       2.045   4.355  20.304  0.00  0.00    +0.000 A 
ATOM      7  C   UNL     1       1.296   3.344  21.112  0.00  0.00    +0.000 C 
ATOM      8  H   UNL     1       2.585   8.254  18.478  0.00  0.00    +0.000 HD
ENDROOT
BRANCH   4   9
ATOM      9  C   UNL     1       1.405   8.580  20.241  0.00  0.00    +0.000 A 
ATOM     10  C   UNL     1       1.590   8.383  21.629  0.00  0.00    +0.000 A 
ATOM     11  C   UNL     1       0.873   9.114  22.567  0.00  0.00    +0.000 A 
ATOM     12  C   UNL     1      -0.053  10.061  22.153  0.00  0.00    +0.000 A 
ATOM     13  C   UNL     1      -0.266  10.292  20.788  0.00  0.00    +0.000 A 
ATOM     14  C   UNL     1      -1.213  11.246  20.388  0.00  0.00    +0.000 A 
ATOM     15  C   UNL     1      -1.446  11.479  19.034  0.00  0.00    +0.000 A 
ATOM     16  C   UNL     1      -0.737  10.766  18.067  0.00  0.00    +0.000 A 
ATOM     17  C   UNL     1       0.213   9.813  18.446  0.00  0.00    +0.000 A 
ATOM     18  C   UNL     1       0.469   9.561  19.814  0.00  0.00    +0.000 A 
ENDBRANCH   4   9
BRANCH   1  20
ATOM     19  C   UNL     1       3.477   1.833  18.326  0.00  0.00    +0.000 C 
ATOM     20  C   UNL     1       3.905   2.825  19.365  0.00  0.00    +0.000 C 
ATOM     21  O   UNL     1       4.872   2.576  20.067  0.00  0.00    +0.000 OA
ENDBRANCH   1  20
TORSDOF 2
ENDMDL
MODEL 4
REMARK VINA RESULT:      -6.9      4.526      7.616
REMARK  Name = 
REMARK  4 active torsions:
REMARK  status: ('A' for Active; 'I' for Inactive)
REMARK    1  A    between atoms: C_1  and  C_2
REMARK    2  A    between atoms: C_2  and  C_4
REMARK    3  A    between atoms: N_7  and  C_8
REMARK    4  A    between atoms: C_19  and  C_20
REMARK                            x       y       z     vdW  Elec       q    Type
REMARK                         _______ _______ _______ _____ _____    ______ ____
ROOT
ATOM      1  C   UNL     1       6.160   4.470  15.386  0.00  0.00    +0.000 A 
ATOM      2  S   UNL     1       4.558   4.031  15.061  0.00  0.00    +0.000 S 
ATOM      3  C   UNL     1       4.177   3.866  16.684  0.00  0.00    +0.000 A 
ATOM      4  N   UNL     1       2.899   3.508  17.187  0.00  0.00    +0.000 N 
ATOM      5  N   UNL     1       5.249   4.079  17.476  0.00  0.00    +0.000 NA
ATOM      6  C   UNL     1       6.357   4.410  16.773  0.00  0.00    +0.000 A 
ATOM      7  C   UNL     1       7.647   4.665  17.487  0.00  0.00    +0.000 C 
ATOM      8  H   UNL     1       2.240   3.063  16.535  0.00  0.00    +0.000 HD
ENDROOT
BRANCH   4   9
ATOM      9  C   UNL     1       2.525   3.753  18.547  0.00  0.00    +0.000 A 
ATOM     10  C   UNL     1       2.360   2.662  19.432  0.00  0.00    +0.000 A 
ATOM     11  C   UNL     1       2.010   2.853  20.761  0.00  0.00    +0.000 A 
ATOM     12  C   UNL     1       1.807   4.136  21.252  0.00  0.00    +0.000 A 
ATOM     13  C   UNL     1       1.962   5.247  20.411  0.00  0.00    +0.000 A 
ATOM     14  C   UNL     1       1.743   6.534  20.921  0.00  0.00    +0.000 A 
ATOM     15  C   UNL     1       1.880   7.649  20.096  0.00  0.00    +0.000 A 
ATOM     16  C   UNL     1       2.240   7.490  18.758  0.00  0.00    +0.000 A 
ATOM     17  C   UNL     1       2.465   6.215  18.232  0.00  0.00    +0.000 A 
ATOM     18  C   UNL     1       2.334   5.069  19.050  0.00  0.00    +0.000 A 
ENDBRANCH   4   9
BRANCH   1  20
ATOM     19  C   UNL     1       7.052   4.262  12.974  0.00  0.00    +0.000 C 
ATOM     20  C   UNL     1       7.142   4.849  14.350  0.00  0.00    +0.000 C 
ATOM     21  O   UNL     1       8.022   5.659  14.599  0.00  0.00    +0.000 OA
ENDBRANCH   1  20
TORSDOF 2
ENDMDL
MODEL 5
REMARK VINA RESULT:      -6.8      2.055      2.602
REMARK  Name = 
REMARK  4 active torsions:
REMARK  status: ('A' for Active; 'I' for Inactive)
REMARK    1  A    between atoms: C_1  and  C_2
REMARK    2  A    between atoms: C_2  and  C_4
REMARK    3  A    between atoms: N_7  and  C_8
REMARK    4  A    between atoms: C_19  and  C_20
REMARK                            x       y       z     vdW  Elec       q    Type
REMARK                         _______ _______ _______ _____ _____    ______ ____
ROOT
ATOM      1  C   UNL     1       0.750   9.485  19.314  0.00  0.00    +0.000 A 
ATOM      2  S   UNL     1       1.475   9.154  17.821  0.00  0.00    +0.000 S 
ATOM      3  C   UNL     1       2.456   7.956  18.460  0.00  0.00    +0.000 A 
ATOM      4  N   UNL     1       3.382   7.179  17.715  0.00  0.00    +0.000 N 
ATOM      5  N   UNL     1       2.295   7.832  19.794  0.00  0.00    +0.000 NA
ATOM      6  C   UNL     1       1.355   8.674  20.284  0.00  0.00    +0.000 A 
ATOM      7  C   UNL     1       1.055   8.688  21.750  0.00  0.00    +0.000 C 
ATOM      8  H   UNL     1       3.673   7.539  16.797  0.00  0.00    +0.000 HD
ENDROOT
BRANCH   4   9
ATOM      9  C   UNL     1       3.900   5.940  18.210  0.00  0.00    +0.000 A 
ATOM     10  C   UNL     1       5.245   5.868  18.641  0.00  0.00    +0.000 A 
ATOM     11  C   UNL     1       5.786   4.691  19.137  0.00  0.00    +0.000 A 
ATOM     12  C   UNL     1       5.008   3.544  19.216  0.00  0.00    +0.000 A 
ATOM     13  C   UNL     1       3.669   3.569  18.803  0.00  0.00    +0.000 A 
ATOM     14  C   UNL     1       2.900   2.400  18.879  0.00  0.00    +0.000 A 
ATOM     15  C   UNL     1       1.571   2.404  18.461  0.00  0.00    +0.000 A 
ATOM     16  C   UNL     1       0.996   3.574  17.965  0.00  0.00    +0.000 A 
ATOM     17  C   UNL     1       1.745   4.751  17.883  0.00  0.00    +0.000 A 
ATOM     18  C   UNL     1       3.095   4.772  18.304  0.00  0.00    +0.000 A 
ENDBRANCH   4   9
BRANCH   1  20
ATOM     19  C   UNL     1      -0.087  11.734  20.264  0.00  0.00    +0.000 C 
ATOM     20  C   UNL     1      -0.339  10.465  19.507  0.00  0.00    +0.000 C 
ATOM     21  O   UNL     1      -1.446  10.262  19.033  0.00  0.00    +0.000 OA
ENDBRANCH   1  20
TORSDOF 2
ENDMDL
MODEL 6
REMARK VINA RESULT:      -6.8      2.179      3.720
REMARK  Name = 
REMARK  4 active torsions:
REMARK  status: ('A' for Active; 'I' for Inactive)
REMARK    1  A    between atoms: C_1  and  C_2
REMARK    2  A    between atoms: C_2  and  C_4
REMARK    3  A    between atoms: N_7  and  C_8
REMARK    4  A    between atoms: C_19  and  C_20
REMARK                            x       y       z     vdW  Elec       q    Type
REMARK                         _______ _______ _______ _____ _____    ______ ____
ROOT
ATOM      1  C   UNL     1       0.597   9.966  19.686  0.00  0.00    +0.000 A 
ATOM      2  S   UNL     1       1.266   9.901  18.133  0.00  0.00    +0.000 S 
ATOM      3  C   UNL     1       2.132   8.506  18.464  0.00  0.00    +0.000 A 
ATOM      4  N   UNL     1       2.965   7.827  17.537  0.00  0.00    +0.000 N 
ATOM      5  N   UNL     1       1.977   8.110  19.745  0.00  0.00    +0.000 NA
ATOM      6  C   UNL     1       1.133   8.910  20.437  0.00  0.00    +0.000 A 
ATOM      7  C   UNL     1       0.855   8.632  21.881  0.00  0.00    +0.000 C 
ATOM      8  H   UNL     1       3.277   8.349  16.708  0.00  0.00    +0.000 HD
ENDROOT
BRANCH   4   9
ATOM      9  C   UNL     1       3.364   6.466  17.734  0.00  0.00    +0.000 A 
ATOM     10  C   UNL     1       2.384   5.486  18.013  0.00  0.00    +0.000 A 
ATOM     11  C   UNL     1       2.724   4.153  18.200  0.00  0.00    +0.000 A 
ATOM     12  C   UNL     1       4.051   3.754  18.120  0.00  0.00    +0.000 A 
ATOM     13  C   UNL     1       5.056   4.691  17.842  0.00  0.00    +0.000 A 
ATOM     14  C   UNL     1       6.392   4.272  17.775  0.00  0.00    +0.000 A 
ATOM     15  C   UNL     1       7.405   5.193  17.513  0.00  0.00    +0.000 A 
ATOM     16  C   UNL     1       7.094   6.537  17.312  0.00  0.00    +0.000 A 
ATOM     17  C   UNL     1       5.768   6.974  17.373  0.00  0.00    +0.000 A 
ATOM     18  C   UNL     1       4.723   6.058  17.635  0.00  0.00    +0.000 A 
ENDBRANCH   4   9
BRANCH   1  20
ATOM     19  C   UNL     1      -0.021  11.977  21.180  0.00  0.00    +0.000 C 
ATOM     20  C   UNL     1      -0.385  10.979  20.124  0.00  0.00    +0.000 C 
ATOM     21  O   UNL     1      -1.495  11.024  19.615  0.00  0.00    +0.000 OA
ENDBRANCH   1  20
TORSDOF 2
ENDMDL
MODEL 7
REMARK VINA RESULT:      -6.6      1.158      1.215
REMARK  Name = 
REMARK  4 active torsions:
REMARK  status: ('A' for Active; 'I' for Inactive)
REMARK    1  A    between atoms: C_1  and  C_2
REMARK    2  A    between atoms: C_2  and  C_4
REMARK    3  A    between atoms: N_7  and  C_8
REMARK    4  A    between atoms: C_19  and  C_20
REMARK                            x       y       z     vdW  Elec       q    Type
REMARK                         _______ _______ _______ _____ _____    ______ ____
ROOT
ATOM      1  C   UNL     1      -0.246  10.996  19.972  0.00  0.00    +0.000 A 
ATOM      2  S   UNL     1       0.827  10.313  21.088  0.00  0.00    +0.000 S 
ATOM      3  C   UNL     1       1.088   8.954  20.145  0.00  0.00    +0.000 A 
ATOM      4  N   UNL     1       1.957   7.883  20.483  0.00  0.00    +0.000 N 
ATOM      5  N   UNL     1       0.338   8.969  19.023  0.00  0.00    +0.000 NA
ATOM      6  C   UNL     1      -0.410  10.092  18.913  0.00  0.00    +0.000 A 
ATOM      7  C   UNL     1      -1.318  10.273  17.738  0.00  0.00    +0.000 C 
ATOM      8  H   UNL     1       2.237   7.793  21.469  0.00  0.00    +0.000 HD
ENDROOT
BRANCH   4   9
ATOM      9  C   UNL     1       2.435   6.958  19.502  0.00  0.00    +0.000 A 
ATOM     10  C   UNL     1       3.215   7.429  18.420  0.00  0.00    +0.000 A 
ATOM     11  C   UNL     1       3.709   6.567  17.452  0.00  0.00    +0.000 A 
ATOM     12  C   UNL     1       3.438   5.207  17.525  0.00  0.00    +0.000 A 
ATOM     13  C   UNL     1       2.672   4.695  18.581  0.00  0.00    +0.000 A 
ATOM     14  C   UNL     1       2.400   3.321  18.634  0.00  0.00    +0.000 A 
ATOM     15  C   UNL     1       1.629   2.796  19.669  0.00  0.00    +0.000 A 
ATOM     16  C   UNL     1       1.125   3.636  20.662  0.00  0.00    +0.000 A 
ATOM     17  C   UNL     1       1.388   5.009  20.628  0.00  0.00    +0.000 A 
ATOM     18  C   UNL     1       2.169   5.564  19.589  0.00  0.00    +0.000 A 
ENDBRANCH   4   9
BRANCH   1  20
ATOM     19  C   UNL     1      -1.925  12.546  21.171  0.00  0.00    +0.000 C 
ATOM     20  C   UNL     1      -0.870  12.326  20.129  0.00  0.00    +0.000 C 
ATOM     21  O   UNL     1      -0.518  13.261  19.427  0.00  0.00    +0.000 OA
ENDBRANCH   1  20
TORSDOF 2
ENDMDL
MODEL 8
REMARK VINA RESULT:      -6.6      3.065      7.061
REMARK  Name = 
REMARK  4 active torsions:
REMARK  status: ('A' for Active; 'I' for Inactive)
REMARK    1  A    between atoms: C_1  and  C_2
REMARK    2  A    between atoms: C_2  and  C_4
REMARK    3  A    between atoms: N_7  and  C_8
REMARK    4  A    between atoms: C_19  and  C_20
REMARK                            x       y       z     vdW  Elec       q    Type
REMARK                         _______ _______ _______ _____ _____    ______ ____
ROOT
ATOM      1  C   UNL     1       2.571   3.869  19.544  0.00  0.00    +0.000 A 
ATOM      2  S   UNL     1       1.961   4.490  20.995  0.00  0.00    +0.000 S 
ATOM      3  C   UNL     1       1.984   6.069  20.436  0.00  0.00    +0.000 A 
ATOM      4  N   UNL     1       1.557   7.201  21.179  0.00  0.00    +0.000 N 
ATOM      5  N   UNL     1       2.497   6.154  19.191  0.00  0.00    +0.000 NA
ATOM      6  C   UNL     1       2.831   4.945  18.683  0.00  0.00    +0.000 A 
ATOM      7  C   UNL     1       3.433   4.848  17.317  0.00  0.00    +0.000 C 
ATOM      8  H   UNL     1       1.484   7.099  22.199  0.00  0.00    +0.000 HD
ENDROOT
BRANCH   4   9
ATOM      9  C   UNL     1       1.235   8.444  20.545  0.00  0.00    +0.000 A 
ATOM     10  C   UNL     1       1.691   8.695  19.231  0.00  0.00    +0.000 A 
ATOM     11  C   UNL     1       1.394   9.881  18.574  0.00  0.00    +0.000 A 
ATOM     12  C   UNL     1       0.638  10.858  19.206  0.00  0.00    +0.000 A 
ATOM     13  C   UNL     1       0.162  10.651  20.508  0.00  0.00    +0.000 A 
ATOM     14  C   UNL     1      -0.592  11.653  21.136  0.00  0.00    +0.000 A 
ATOM     15  C   UNL     1      -1.062  11.469  22.435  0.00  0.00    +0.000 A 
ATOM     16  C   UNL     1      -0.787  10.284  23.118  0.00  0.00    +0.000 A 
ATOM     17  C   UNL     1      -0.039   9.273  22.509  0.00  0.00    +0.000 A 
ATOM     18  C   UNL     1       0.447   9.436  21.190  0.00  0.00    +0.000 A 
ENDBRANCH   4   9
BRANCH   1  20
ATOM     19  C   UNL     1       4.150   1.848  19.262  0.00  0.00    +0.000 C 
ATOM     20  C   UNL     1       2.769   2.430  19.277  0.00  0.00    +0.000 C 
ATOM     21  O   UNL     1       1.809   1.698  19.088  0.00  0.00    +0.000 OA
ENDBRANCH   1  20
TORSDOF 2
ENDMDL
MODEL 9
REMARK VINA RESULT:      -6.5      2.892      6.975
REMARK  Name = 
REMARK  4 active torsions:
REMARK  status: ('A' for Active; 'I' for Inactive)
REMARK    1  A    between atoms: C_1  and  C_2
REMARK    2  A    between atoms: C_2  and  C_4
REMARK    3  A    between atoms: N_7  and  C_8
REMARK    4  A    between atoms: C_19  and  C_20
REMARK                            x       y       z     vdW  Elec       q    Type
REMARK                         _______ _______ _______ _____ _____    ______ ____
ROOT
ATOM      1  C   UNL     1       3.418   6.336  18.865  0.00  0.00    +0.000 A 
ATOM      2  S   UNL     1       3.477   7.548  17.686  0.00  0.00    +0.000 S 
ATOM      3  C   UNL     1       2.144   8.347  18.309  0.00  0.00    +0.000 A 
ATOM      4  N   UNL     1       1.598   9.550  17.786  0.00  0.00    +0.000 N 
ATOM      5  N   UNL     1       1.610   7.691  19.360  0.00  0.00    +0.000 NA
ATOM      6  C   UNL     1       2.302   6.572  19.680  0.00  0.00    +0.000 A 
ATOM      7  C   UNL     1       1.844   5.708  20.811  0.00  0.00    +0.000 C 
ATOM      8  H   UNL     1       1.852   9.807  16.824  0.00  0.00    +0.000 HD
ENDROOT
BRANCH   4   9
ATOM      9  C   UNL     1       0.727  10.383  18.558  0.00  0.00    +0.000 A 
ATOM     10  C   UNL     1       1.257  11.154  19.618  0.00  0.00    +0.000 A 
ATOM     11  C   UNL     1       0.452  11.984  20.385  0.00  0.00    +0.000 A 
ATOM     12  C   UNL     1      -0.909  12.071  20.125  0.00  0.00    +0.000 A 
ATOM     13  C   UNL     1      -1.477  11.327  19.082  0.00  0.00    +0.000 A 
ATOM     14  C   UNL     1      -2.855  11.419  18.840  0.00  0.00    +0.000 A 
ATOM     15  C   UNL     1      -3.439  10.677  17.815  0.00  0.00    +0.000 A 
ATOM     16  C   UNL     1      -2.655   9.840  17.022  0.00  0.00    +0.000 A 
ATOM     17  C   UNL     1      -1.279   9.737  17.246  0.00  0.00    +0.000 A 
ATOM     18  C   UNL     1      -0.664  10.481  18.278  0.00  0.00    +0.000 A 
ENDBRANCH   4   9
BRANCH   1  20
ATOM     19  C   UNL     1       4.144   3.921  18.320  0.00  0.00    +0.000 C 
ATOM     20  C   UNL     1       4.404   5.242  18.979  0.00  0.00    +0.000 C 
ATOM     21  O   UNL     1       5.447   5.410  19.591  0.00  0.00    +0.000 OA
ENDBRANCH   1  20
TORSDOF 2
ENDMDL
