MODEL 1
REMARK VINA RESULT:      -7.7      0.000      0.000
REMARK  Name = 
REMARK  10 active torsions:
REMARK  status: ('A' for Active; 'I' for Inactive)
REMARK    1  A    between atoms: C_1  and  C_2
REMARK    2  A    between atoms: C_2  and  C_3
REMARK    3  A    between atoms: C_3  and  C_4
REMARK    4  A    between atoms: C_4  and  C_5
REMARK    5  A    between atoms: C_5  and  C_6
REMARK    6  A    between atoms: C_6  and  C_7
REMARK    7  A    between atoms: C_12  and  C_13
REMARK    8  A    between atoms: C_17  and  O_18
REMARK    9  A    between atoms: O_18  and  C_19
REMARK   10  A    between atoms: C_21  and  C_22
REMARK                            x       y       z     vdW  Elec       q    Type
REMARK                         _______ _______ _______ _____ _____    ______ ____
ROOT
ATOM      1  C   UNL     1       1.426   8.037  20.257  0.00  0.00    +0.000 A 
ATOM      2  C   UNL     1       1.505   9.113  19.364  0.00  0.00    +0.000 A 
ATOM      3  C   UNL     1       2.252   9.032  18.180  0.00  0.00    +0.000 A 
ATOM      4  C   UNL     1       2.933   7.836  17.926  0.00  0.00    +0.000 A 
ATOM      5  N   UNL     1       3.748   7.475  16.877  0.00  0.00    +0.000 N 
ATOM      6  C   UNL     1       4.277   6.210  17.066  0.00  0.00    +0.000 A 
ATOM      7  C   UNL     1       3.690   5.728  18.227  0.00  0.00    +0.000 A 
ATOM      8  C   UNL     1       2.877   6.748  18.789  0.00  0.00    +0.000 A 
ATOM      9  C   UNL     1       2.116   6.851  19.969  0.00  0.00    +0.000 A 
ATOM     10  H   UNL     1       3.962   8.073  16.094  0.00  0.00    +0.000 HD
ENDROOT
BRANCH   7  11
ATOM     11  C   UNL     1       3.925   4.461  18.815  0.00  0.00    +0.000 C 
ATOM     12  C   UNL     1       3.105   3.412  18.928  0.00  0.00    +0.000 C 
ATOM     13 BR   UNL     1       1.367   3.223  18.365  0.00  0.00    +0.000 Br
ATOM     14  C   UNL     1       3.840   2.348  19.634  0.00  0.00    +0.000 C 
ATOM     15  O   UNL     1       3.405   1.261  19.976  0.00  0.00    +0.000 OA
ATOM     16  N   UNL     1       5.092   2.805  19.855  0.00  0.00    +0.000 N 
ATOM     17  C   UNL     1       5.204   4.089  19.457  0.00  0.00    +0.000 C 
ATOM     18  O   UNL     1       6.161   4.815  19.645  0.00  0.00    +0.000 OA
ATOM     19  H   UNL     1       5.796   2.310  20.373  0.00  0.00    +0.000 HD
ENDBRANCH   7  11
BRANCH   6  20
ATOM     20  C   UNL     1       5.305   5.636  16.191  0.00  0.00    +0.000 A 
ATOM     21  C   UNL     1       6.648   6.019  16.310  0.00  0.00    +0.000 A 
ATOM     22  C   UNL     1       7.591   5.615  15.368  0.00  0.00    +0.000 A 
ATOM     23  C   UNL     1       7.207   4.783  14.320  0.00  0.00    +0.000 A 
ATOM     24  C   UNL     1       5.889   4.339  14.214  0.00  0.00    +0.000 A 
ATOM     25  C   UNL     1       4.942   4.769  15.149  0.00  0.00    +0.000 A 
BRANCH  24  26
ATOM     26  O   UNL     1       5.645   3.515  13.150  0.00  0.00    +0.000 OA
ATOM     27  C   UNL     1       6.603   3.525  12.100  0.00  0.00    +0.000 C 
ENDBRANCH  24  26
ENDBRANCH   6  20
BRANCH   1  28
ATOM     28  C   UNL     1       0.606   8.124  21.522  0.00  0.00    +0.000 C 
BRANCH  28  29
ATOM     29  C   UNL     1       0.808   9.424  22.300  0.00  0.00    +0.000 C 
BRANCH  29  30
ATOM     30  C   UNL     1      -0.455   9.905  23.023  0.00  0.00    +0.000 C 
BRANCH  30  31
ATOM     31  C   UNL     1      -0.733  11.371  22.690  0.00  0.00    +0.000 C 
BRANCH  31  33
ATOM     32  C   UNL     1       0.271  12.813  20.899  0.00  0.00    +0.000 C 
ATOM     33  C   UNL     1      -0.648  11.638  21.189  0.00  0.00    +0.000 C 
ENDBRANCH  31  33
ENDBRANCH  30  31
ENDBRANCH  29  30
ENDBRANCH  28  29
ENDBRANCH   1  28
TORSDOF 8
ENDMDL
MODEL 2
REMARK VINA RESULT:      -7.3      2.475      8.109
REMARK  Name = 
REMARK  10 active torsions:
REMARK  status: ('A' for Active; 'I' for Inactive)
REMARK    1  A    between atoms: C_1  and  C_2
REMARK    2  A    between atoms: C_2  and  C_3
REMARK    3  A    between atoms: C_3  and  C_4
REMARK    4  A    between atoms: C_4  and  C_5
REMARK    5  A    between atoms: C_5  and  C_6
REMARK    6  A    between atoms: C_6  and  C_7
REMARK    7  A    between atoms: C_12  and  C_13
REMARK    8  A    between atoms: C_17  and  O_18
REMARK    9  A    between atoms: O_18  and  C_19
REMARK   10  A    between atoms: C_21  and  C_22
REMARK                            x       y       z     vdW  Elec       q    Type
REMARK                         _______ _______ _______ _____ _____    ______ ____
ROOT
ATOM      1  C   UNL     1       5.684   4.341  14.822  0.00  0.00    +0.000 A 
ATOM      2  C   UNL     1       6.226   5.624  14.677  0.00  0.00    +0.000 A 
ATOM      3  C   UNL     1       5.863   6.675  15.530  0.00  0.00    +0.000 A 
ATOM      4  C   UNL     1       4.921   6.402  16.528  0.00  0.00    +0.000 A 
ATOM      5  N   UNL     1       4.364   7.222  17.484  0.00  0.00    +0.000 N 
ATOM      6  C   UNL     1       3.411   6.549  18.228  0.00  0.00    +0.000 A 
ATOM      7  C   UNL     1       3.448   5.236  17.784  0.00  0.00    +0.000 A 
ATOM      8  C   UNL     1       4.362   5.141  16.701  0.00  0.00    +0.000 A 
ATOM      9  C   UNL     1       4.747   4.099  15.836  0.00  0.00    +0.000 A 
ATOM     10  H   UNL     1       4.594   8.198  17.596  0.00  0.00    +0.000 HD
ENDROOT
BRANCH   7  11
ATOM     11  C   UNL     1       2.645   4.172  18.264  0.00  0.00    +0.000 C 
ATOM     12  C   UNL     1       2.952   3.196  19.124  0.00  0.00    +0.000 C 
ATOM     13 BR   UNL     1       4.531   2.870  20.003  0.00  0.00    +0.000 Br
ATOM     14  C   UNL     1       1.761   2.343  19.272  0.00  0.00    +0.000 C 
ATOM     15  O   UNL     1       1.672   1.318  19.926  0.00  0.00    +0.000 OA
ATOM     16  N   UNL     1       0.777   2.895  18.528  0.00  0.00    +0.000 N 
ATOM     17  C   UNL     1       1.246   3.955  17.837  0.00  0.00    +0.000 C 
ATOM     18  O   UNL     1       0.642   4.575  16.983  0.00  0.00    +0.000 OA
ATOM     19  H   UNL     1      -0.132   2.490  18.395  0.00  0.00    +0.000 HD
ENDBRANCH   7  11
BRANCH   6  20
ATOM     20  C   UNL     1       2.541   7.218  19.202  0.00  0.00    +0.000 A 
ATOM     21  C   UNL     1       2.141   6.568  20.376  0.00  0.00    +0.000 A 
ATOM     22  C   UNL     1       1.175   7.129  21.210  0.00  0.00    +0.000 A 
ATOM     23  C   UNL     1       0.633   8.373  20.897  0.00  0.00    +0.000 A 
ATOM     24  C   UNL     1       1.060   9.068  19.765  0.00  0.00    +0.000 A 
ATOM     25  C   UNL     1       2.010   8.487  18.920  0.00  0.00    +0.000 A 
BRANCH  24  26
ATOM     26  O   UNL     1       0.462  10.283  19.579  0.00  0.00    +0.000 OA
ATOM     27  C   UNL     1      -0.310  10.789  20.661  0.00  0.00    +0.000 C 
ENDBRANCH  24  26
ENDBRANCH   6  20
BRANCH   1  28
ATOM     28  C   UNL     1       6.092   3.207  13.911  0.00  0.00    +0.000 C 
BRANCH  28  29
ATOM     29  C   UNL     1       6.644   3.668  12.562  0.00  0.00    +0.000 C 
BRANCH  29  30
ATOM     30  C   UNL     1       5.753   3.287  11.375  0.00  0.00    +0.000 C 
BRANCH  30  31
ATOM     31  C   UNL     1       4.278   3.438  11.747  0.00  0.00    +0.000 C 
BRANCH  31  33
ATOM     32  C   UNL     1       3.000   4.169   9.716  0.00  0.00    +0.000 C 
ATOM     33  C   UNL     1       3.358   2.995  10.613  0.00  0.00    +0.000 C 
ENDBRANCH  31  33
ENDBRANCH  30  31
ENDBRANCH  29  30
ENDBRANCH  28  29
ENDBRANCH   1  28
TORSDOF 8
ENDMDL
MODEL 3
REMARK VINA RESULT:      -7.2      1.374      1.655
REMARK  Name = 
REMARK  10 active torsions:
REMARK  status: ('A' for Active; 'I' for Inactive)
REMARK    1  A    between atoms: C_1  and  C_2
REMARK    2  A    between atoms: C_2  and  C_3
REMARK    3  A    between atoms: C_3  and  C_4
REMARK    4  A    between atoms: C_4  and  C_5
REMARK    5  A    between atoms: C_5  and  C_6
REMARK    6  A    between atoms: C_6  and  C_7
REMARK    7  A    between atoms: C_12  and  C_13
REMARK    8  A    between atoms: C_17  and  O_18
REMARK    9  A    between atoms: O_18  and  C_19
REMARK   10  A    between atoms: C_21  and  C_22
REMARK                            x       y       z     vdW  Elec       q    Type
REMARK                         _______ _______ _______ _____ _____    ______ ____
ROOT
ATOM      1  C   UNL     1       1.402   8.199  20.198  0.00  0.00    +0.000 A 
ATOM      2  C   UNL     1       1.549   9.260  19.297  0.00  0.00    +0.000 A 
ATOM      3  C   UNL     1       2.299   9.127  18.120  0.00  0.00    +0.000 A 
ATOM      4  C   UNL     1       2.914   7.892  17.882  0.00  0.00    +0.000 A 
ATOM      5  N   UNL     1       3.716   7.476  16.843  0.00  0.00    +0.000 N 
ATOM      6  C   UNL     1       4.171   6.185  17.047  0.00  0.00    +0.000 A 
ATOM      7  C   UNL     1       3.549   5.747  18.207  0.00  0.00    +0.000 A 
ATOM      8  C   UNL     1       2.790   6.817  18.754  0.00  0.00    +0.000 A 
ATOM      9  C   UNL     1       2.026   6.973  19.926  0.00  0.00    +0.000 A 
ATOM     10  H   UNL     1       3.969   8.054  16.056  0.00  0.00    +0.000 HD
ENDROOT
BRANCH   7  11
ATOM     11  C   UNL     1       3.707   4.475  18.808  0.00  0.00    +0.000 C 
ATOM     12  C   UNL     1       4.790   3.929  19.370  0.00  0.00    +0.000 C 
ATOM     13 BR   UNL     1       6.478   4.626  19.569  0.00  0.00    +0.000 Br
ATOM     14  C   UNL     1       4.419   2.581  19.833  0.00  0.00    +0.000 C 
ATOM     15  O   UNL     1       5.157   1.754  20.341  0.00  0.00    +0.000 OA
ATOM     16  N   UNL     1       3.104   2.415  19.570  0.00  0.00    +0.000 N 
ATOM     17  C   UNL     1       2.619   3.477  18.894  0.00  0.00    +0.000 C 
ATOM     18  O   UNL     1       1.511   3.565  18.401  0.00  0.00    +0.000 OA
ATOM     19  H   UNL     1       2.595   1.563  19.727  0.00  0.00    +0.000 HD
ENDBRANCH   7  11
BRANCH   6  20
ATOM     20  C   UNL     1       5.172   5.546  16.186  0.00  0.00    +0.000 A 
ATOM     21  C   UNL     1       6.541   5.757  16.394  0.00  0.00    +0.000 A 
ATOM     22  C   UNL     1       7.482   5.301  15.473  0.00  0.00    +0.000 A 
ATOM     23  C   UNL     1       7.062   4.586  14.355  0.00  0.00    +0.000 A 
ATOM     24  C   UNL     1       5.709   4.310  14.157  0.00  0.00    +0.000 A 
ATOM     25  C   UNL     1       4.769   4.793  15.073  0.00  0.00    +0.000 A 
BRANCH  24  26
ATOM     26  O   UNL     1       5.430   3.587  13.031  0.00  0.00    +0.000 OA
ATOM     27  C   UNL     1       6.515   3.331  12.149  0.00  0.00    +0.000 C 
ENDBRANCH  24  26
ENDBRANCH   6  20
BRANCH   1  28
ATOM     28  C   UNL     1       0.579   8.343  21.456  0.00  0.00    +0.000 C 
BRANCH  28  29
ATOM     29  C   UNL     1      -0.272   9.613  21.494  0.00  0.00    +0.000 C 
BRANCH  29  30
ATOM     30  C   UNL     1      -0.369  10.241  22.888  0.00  0.00    +0.000 C 
BRANCH  30  31
ATOM     31  C   UNL     1      -1.225  11.507  22.842  0.00  0.00    +0.000 C 
BRANCH  31  33
ATOM     32  C   UNL     1      -2.558  12.955  21.287  0.00  0.00    +0.000 C 
ATOM     33  C   UNL     1      -1.330  12.070  21.428  0.00  0.00    +0.000 C 
ENDBRANCH  31  33
ENDBRANCH  30  31
ENDBRANCH  29  30
ENDBRANCH  28  29
ENDBRANCH   1  28
TORSDOF 8
ENDMDL
MODEL 4
REMARK VINA RESULT:      -7.0      5.379     10.725
REMARK  Name = 
REMARK  10 active torsions:
REMARK  status: ('A' for Active; 'I' for Inactive)
REMARK    1  A    between atoms: C_1  and  C_2
REMARK    2  A    between atoms: C_2  and  C_3
REMARK    3  A    between atoms: C_3  and  C_4
REMARK    4  A    between atoms: C_4  and  C_5
REMARK    5  A    between atoms: C_5  and  C_6
REMARK    6  A    between atoms: C_6  and  C_7
REMARK    7  A    between atoms: C_12  and  C_13
REMARK    8  A    between atoms: C_17  and  O_18
REMARK    9  A    between atoms: O_18  and  C_19
REMARK   10  A    between atoms: C_21  and  C_22
REMARK                            x       y       z     vdW  Elec       q    Type
REMARK                         _______ _______ _______ _____ _____    ______ ____
ROOT
ATOM      1  C   UNL     1       1.869   8.156  19.344  0.00  0.00    +0.000 A 
ATOM      2  C   UNL     1       1.659   7.347  20.467  0.00  0.00    +0.000 A 
ATOM      3  C   UNL     1       0.883   7.780  21.550  0.00  0.00    +0.000 A 
ATOM      4  C   UNL     1       0.332   9.064  21.479  0.00  0.00    +0.000 A 
ATOM      5  N   UNL     1      -0.442   9.759  22.381  0.00  0.00    +0.000 N 
ATOM      6  C   UNL     1      -0.707  11.041  21.930  0.00  0.00    +0.000 A 
ATOM      7  C   UNL     1      -0.161  11.111  20.658  0.00  0.00    +0.000 A 
ATOM      8  C   UNL     1       0.519   9.896  20.381  0.00  0.00    +0.000 A 
ATOM      9  C   UNL     1       1.298   9.436  19.301  0.00  0.00    +0.000 A 
ATOM     10  H   UNL     1      -0.740   9.392  23.272  0.00  0.00    +0.000 HD
ENDROOT
BRANCH   7  11
ATOM     11  C   UNL     1      -0.192  12.238  19.799  0.00  0.00    +0.000 C 
ATOM     12  C   UNL     1       0.657  13.266  19.717  0.00  0.00    +0.000 C 
ATOM     13 BR   UNL     1       2.179  13.604  20.688  0.00  0.00    +0.000 Br
ATOM     14  C   UNL     1       0.159  14.170  18.666  0.00  0.00    +0.000 C 
ATOM     15  O   UNL     1       0.632  15.247  18.342  0.00  0.00    +0.000 OA
ATOM     16  N   UNL     1      -0.942  13.597  18.133  0.00  0.00    +0.000 N 
ATOM     17  C   UNL     1      -1.260  12.470  18.803  0.00  0.00    +0.000 C 
ATOM     18  O   UNL     1      -2.267  11.806  18.649  0.00  0.00    +0.000 OA
ATOM     19  H   UNL     1      -1.524  14.022  17.433  0.00  0.00    +0.000 HD
ENDBRANCH   7  11
BRANCH   6  20
ATOM     20  C   UNL     1      -1.368  12.056  22.758  0.00  0.00    +0.000 A 
ATOM     21  C   UNL     1      -2.719  11.933  23.108  0.00  0.00    +0.000 A 
ATOM     22  C   UNL     1      -3.392  12.979  23.736  0.00  0.00    +0.000 A 
ATOM     23  C   UNL     1      -2.705  14.144  24.063  0.00  0.00    +0.000 A 
ATOM     24  C   UNL     1      -1.344  14.267  23.780  0.00  0.00    +0.000 A 
ATOM     25  C   UNL     1      -0.682  13.223  23.126  0.00  0.00    +0.000 A 
BRANCH  24  26
ATOM     26  O   UNL     1      -0.783  15.453  24.165  0.00  0.00    +0.000 OA
ATOM     27  C   UNL     1      -1.673  16.538  24.391  0.00  0.00    +0.000 C 
ENDBRANCH  24  26
ENDBRANCH   6  20
BRANCH   1  28
ATOM     28  C   UNL     1       2.692   7.678  18.171  0.00  0.00    +0.000 C 
BRANCH  28  29
ATOM     29  C   UNL     1       3.087   6.204  18.256  0.00  0.00    +0.000 C 
BRANCH  29  30
ATOM     30  C   UNL     1       1.962   5.245  17.853  0.00  0.00    +0.000 C 
BRANCH  30  31
ATOM     31  C   UNL     1       2.388   3.796  18.089  0.00  0.00    +0.000 C 
BRANCH  31  33
ATOM     32  C   UNL     1       0.957   3.774  20.149  0.00  0.00    +0.000 C 
ATOM     33  C   UNL     1       2.314   3.416  19.565  0.00  0.00    +0.000 C 
ENDBRANCH  31  33
ENDBRANCH  30  31
ENDBRANCH  29  30
ENDBRANCH  28  29
ENDBRANCH   1  28
TORSDOF 8
ENDMDL
MODEL 5
REMARK VINA RESULT:      -6.9      1.321      1.667
REMARK  Name = 
REMARK  10 active torsions:
REMARK  status: ('A' for Active; 'I' for Inactive)
REMARK    1  A    between atoms: C_1  and  C_2
REMARK    2  A    between atoms: C_2  and  C_3
REMARK    3  A    between atoms: C_3  and  C_4
REMARK    4  A    between atoms: C_4  and  C_5
REMARK    5  A    between atoms: C_5  and  C_6
REMARK    6  A    between atoms: C_6  and  C_7
REMARK    7  A    between atoms: C_12  and  C_13
REMARK    8  A    between atoms: C_17  and  O_18
REMARK    9  A    between atoms: O_18  and  C_19
REMARK   10  A    between atoms: C_21  and  C_22
REMARK                            x       y       z     vdW  Elec       q    Type
REMARK                         _______ _______ _______ _____ _____    ______ ____
ROOT
ATOM      1  C   UNL     1       1.339   8.628  20.457  0.00  0.00    +0.000 A 
ATOM      2  C   UNL     1       1.316   9.498  19.360  0.00  0.00    +0.000 A 
ATOM      3  C   UNL     1       1.904   9.151  18.135  0.00  0.00    +0.000 A 
ATOM      4  C   UNL     1       2.532   7.904  18.050  0.00  0.00    +0.000 A 
ATOM      5  N   UNL     1       3.202   7.307  17.005  0.00  0.00    +0.000 N 
ATOM      6  C   UNL     1       3.735   6.087  17.383  0.00  0.00    +0.000 A 
ATOM      7  C   UNL     1       3.296   5.872  18.680  0.00  0.00    +0.000 A 
ATOM      8  C   UNL     1       2.574   7.015  19.117  0.00  0.00    +0.000 A 
ATOM      9  C   UNL     1       1.971   7.382  20.335  0.00  0.00    +0.000 A 
ATOM     10  H   UNL     1       3.322   7.727  16.096  0.00  0.00    +0.000 HD
ENDROOT
BRANCH   7  11
ATOM     11  C   UNL     1       3.588   4.742  19.482  0.00  0.00    +0.000 C 
ATOM     12  C   UNL     1       2.754   3.888  20.084  0.00  0.00    +0.000 C 
ATOM     13 BR   UNL     1       0.918   3.865  20.097  0.00  0.00    +0.000 Br
ATOM     14  C   UNL     1       3.574   2.898  20.803  0.00  0.00    +0.000 C 
ATOM     15  O   UNL     1       3.172   1.996  21.519  0.00  0.00    +0.000 OA
ATOM     16  N   UNL     1       4.869   3.184  20.541  0.00  0.00    +0.000 N 
ATOM     17  C   UNL     1       4.965   4.316  19.814  0.00  0.00    +0.000 C 
ATOM     18  O   UNL     1       5.994   4.902  19.536  0.00  0.00    +0.000 OA
ATOM     19  H   UNL     1       5.652   2.705  20.950  0.00  0.00    +0.000 HD
ENDBRANCH   7  11
BRANCH   6  20
ATOM     20  C   UNL     1       4.636   5.310  16.525  0.00  0.00    +0.000 A 
ATOM     21  C   UNL     1       4.469   3.928  16.369  0.00  0.00    +0.000 A 
ATOM     22  C   UNL     1       5.426   3.164  15.704  0.00  0.00    +0.000 A 
ATOM     23  C   UNL     1       6.540   3.786  15.147  0.00  0.00    +0.000 A 
ATOM     24  C   UNL     1       6.698   5.169  15.236  0.00  0.00    +0.000 A 
ATOM     25  C   UNL     1       5.747   5.926  15.927  0.00  0.00    +0.000 A 
BRANCH  24  26
ATOM     26  O   UNL     1       7.825   5.657  14.636  0.00  0.00    +0.000 OA
ATOM     27  C   UNL     1       7.992   5.367  13.254  0.00  0.00    +0.000 C 
ENDBRANCH  24  26
ENDBRANCH   6  20
BRANCH   1  28
ATOM     28  C   UNL     1       0.689   8.999  21.768  0.00  0.00    +0.000 C 
BRANCH  28  29
ATOM     29  C   UNL     1      -0.188  10.249  21.690  0.00  0.00    +0.000 C 
BRANCH  29  30
ATOM     30  C   UNL     1      -0.884  10.590  23.012  0.00  0.00    +0.000 C 
BRANCH  30  31
ATOM     31  C   UNL     1      -1.264  12.070  23.046  0.00  0.00    +0.000 C 
BRANCH  31  33
ATOM     32  C   UNL     1      -3.271  12.530  21.614  0.00  0.00    +0.000 C 
ATOM     33  C   UNL     1      -2.777  12.269  23.027  0.00  0.00    +0.000 C 
ENDBRANCH  31  33
ENDBRANCH  30  31
ENDBRANCH  29  30
ENDBRANCH  28  29
ENDBRANCH   1  28
TORSDOF 8
ENDMDL
MODEL 6
REMARK VINA RESULT:      -6.9      5.026     10.898
REMARK  Name = 
REMARK  10 active torsions:
REMARK  status: ('A' for Active; 'I' for Inactive)
REMARK    1  A    between atoms: C_1  and  C_2
REMARK    2  A    between atoms: C_2  and  C_3
REMARK    3  A    between atoms: C_3  and  C_4
REMARK    4  A    between atoms: C_4  and  C_5
REMARK    5  A    between atoms: C_5  and  C_6
REMARK    6  A    between atoms: C_6  and  C_7
REMARK    7  A    between atoms: C_12  and  C_13
REMARK    8  A    between atoms: C_17  and  O_18
REMARK    9  A    between atoms: O_18  and  C_19
REMARK   10  A    between atoms: C_21  and  C_22
REMARK                            x       y       z     vdW  Elec       q    Type
REMARK                         _______ _______ _______ _____ _____    ______ ____
ROOT
ATOM      1  C   UNL     1       1.908   8.295  19.266  0.00  0.00    +0.000 A 
ATOM      2  C   UNL     1       1.699   7.450  20.363  0.00  0.00    +0.000 A 
ATOM      3  C   UNL     1       0.908   7.842  21.452  0.00  0.00    +0.000 A 
ATOM      4  C   UNL     1       0.344   9.122  21.413  0.00  0.00    +0.000 A 
ATOM      5  N   UNL     1      -0.445   9.782  22.329  0.00  0.00    +0.000 N 
ATOM      6  C   UNL     1      -0.722  11.073  21.914  0.00  0.00    +0.000 A 
ATOM      7  C   UNL     1      -0.166  11.187  20.648  0.00  0.00    +0.000 A 
ATOM      8  C   UNL     1       0.530   9.988  20.342  0.00  0.00    +0.000 A 
ATOM      9  C   UNL     1       1.323   9.569  19.256  0.00  0.00    +0.000 A 
ATOM     10  H   UNL     1      -0.747   9.386  23.206  0.00  0.00    +0.000 HD
ENDROOT
BRANCH   7  11
ATOM     11  C   UNL     1      -0.203  12.338  19.823  0.00  0.00    +0.000 C 
ATOM     12  C   UNL     1       0.660  13.356  19.747  0.00  0.00    +0.000 C 
ATOM     13 BR   UNL     1       2.213  13.643  20.684  0.00  0.00    +0.000 Br
ATOM     14  C   UNL     1       0.148  14.297  18.736  0.00  0.00    +0.000 C 
ATOM     15  O   UNL     1       0.629  15.375  18.429  0.00  0.00    +0.000 OA
ATOM     16  N   UNL     1      -0.976  13.755  18.217  0.00  0.00    +0.000 N 
ATOM     17  C   UNL     1      -1.293  12.614  18.864  0.00  0.00    +0.000 C 
ATOM     18  O   UNL     1      -2.315  11.970  18.719  0.00  0.00    +0.000 OA
ATOM     19  H   UNL     1      -1.570  14.209  17.546  0.00  0.00    +0.000 HD
ENDBRANCH   7  11
BRANCH   6  20
ATOM     20  C   UNL     1      -1.401  12.056  22.765  0.00  0.00    +0.000 A 
ATOM     21  C   UNL     1      -2.718  11.850  23.194  0.00  0.00    +0.000 A 
ATOM     22  C   UNL     1      -3.423  12.859  23.847  0.00  0.00    +0.000 A 
ATOM     23  C   UNL     1      -2.797  14.072  24.119  0.00  0.00    +0.000 A 
ATOM     24  C   UNL     1      -1.466  14.280  23.755  0.00  0.00    +0.000 A 
ATOM     25  C   UNL     1      -0.774  13.272  23.078  0.00  0.00    +0.000 A 
BRANCH  24  26
ATOM     26  O   UNL     1      -0.965  15.507  24.092  0.00  0.00    +0.000 OA
ATOM     27  C   UNL     1      -1.008  15.860  25.468  0.00  0.00    +0.000 C 
ENDBRANCH  24  26
ENDBRANCH   6  20
BRANCH   1  28
ATOM     28  C   UNL     1       2.746   7.860  18.087  0.00  0.00    +0.000 C 
BRANCH  28  29
ATOM     29  C   UNL     1       3.090   6.371  18.090  0.00  0.00    +0.000 C 
BRANCH  29  30
ATOM     30  C   UNL     1       4.593   6.090  17.990  0.00  0.00    +0.000 C 
BRANCH  30  31
ATOM     31  C   UNL     1       5.159   6.678  16.698  0.00  0.00    +0.000 C 
BRANCH  31  33
ATOM     32  C   UNL     1       6.813   4.918  16.022  0.00  0.00    +0.000 C 
ATOM     33  C   UNL     1       5.495   5.592  15.679  0.00  0.00    +0.000 C 
ENDBRANCH  31  33
ENDBRANCH  30  31
ENDBRANCH  29  30
ENDBRANCH  28  29
ENDBRANCH   1  28
TORSDOF 8
ENDMDL
MODEL 7
REMARK VINA RESULT:      -6.9      5.077     10.919
REMARK  Name = 
REMARK  10 active torsions:
REMARK  status: ('A' for Active; 'I' for Inactive)
REMARK    1  A    between atoms: C_1  and  C_2
REMARK    2  A    between atoms: C_2  and  C_3
REMARK    3  A    between atoms: C_3  and  C_4
REMARK    4  A    between atoms: C_4  and  C_5
REMARK    5  A    between atoms: C_5  and  C_6
REMARK    6  A    between atoms: C_6  and  C_7
REMARK    7  A    between atoms: C_12  and  C_13
REMARK    8  A    between atoms: C_17  and  O_18
REMARK    9  A    between atoms: O_18  and  C_19
REMARK   10  A    between atoms: C_21  and  C_22
REMARK                            x       y       z     vdW  Elec       q    Type
REMARK                         _______ _______ _______ _____ _____    ______ ____
ROOT
ATOM      1  C   UNL     1       2.022   8.460  19.067  0.00  0.00    +0.000 A 
ATOM      2  C   UNL     1       1.789   7.587  20.137  0.00  0.00    +0.000 A 
ATOM      3  C   UNL     1       0.961   7.946  21.210  0.00  0.00    +0.000 A 
ATOM      4  C   UNL     1       0.382   9.220  21.183  0.00  0.00    +0.000 A 
ATOM      5  N   UNL     1      -0.443   9.849  22.089  0.00  0.00    +0.000 N 
ATOM      6  C   UNL     1      -0.721  11.146  21.695  0.00  0.00    +0.000 A 
ATOM      7  C   UNL     1      -0.128  11.296  20.450  0.00  0.00    +0.000 A 
ATOM      8  C   UNL     1       0.592  10.112  20.138  0.00  0.00    +0.000 A 
ATOM      9  C   UNL     1       1.422   9.727  19.069  0.00  0.00    +0.000 A 
ATOM     10  H   UNL     1      -0.767   9.429  22.946  0.00  0.00    +0.000 HD
ENDROOT
BRANCH   7  11
ATOM     11  C   UNL     1      -0.153  12.465  19.651  0.00  0.00    +0.000 C 
ATOM     12  C   UNL     1       0.668  13.520  19.663  0.00  0.00    +0.000 C 
ATOM     13 BR   UNL     1       2.132  13.847  20.722  0.00  0.00    +0.000 Br
ATOM     14  C   UNL     1       0.192  14.464  18.638  0.00  0.00    +0.000 C 
ATOM     15  O   UNL     1       0.647  15.569  18.393  0.00  0.00    +0.000 OA
ATOM     16  N   UNL     1      -0.865  13.889  18.023  0.00  0.00    +0.000 N 
ATOM     17  C   UNL     1      -1.180  12.720  18.618  0.00  0.00    +0.000 C 
ATOM     18  O   UNL     1      -2.158  12.038  18.382  0.00  0.00    +0.000 OA
ATOM     19  H   UNL     1      -1.426  14.335  17.319  0.00  0.00    +0.000 HD
ENDBRANCH   7  11
BRANCH   6  20
ATOM     20  C   UNL     1      -1.438  12.101  22.547  0.00  0.00    +0.000 A 
ATOM     21  C   UNL     1      -0.838  13.302  22.947  0.00  0.00    +0.000 A 
ATOM     22  C   UNL     1      -1.444  14.121  23.898  0.00  0.00    +0.000 A 
ATOM     23  C   UNL     1      -2.684  13.768  24.423  0.00  0.00    +0.000 A 
ATOM     24  C   UNL     1      -3.330  12.608  23.995  0.00  0.00    +0.000 A 
ATOM     25  C   UNL     1      -2.704  11.778  23.060  0.00  0.00    +0.000 A 
BRANCH  24  26
ATOM     26  O   UNL     1      -4.547  12.382  24.575  0.00  0.00    +0.000 OA
ATOM     27  C   UNL     1      -5.687  12.882  23.888  0.00  0.00    +0.000 C 
ENDBRANCH  24  26
ENDBRANCH   6  20
BRANCH   1  28
ATOM     28  C   UNL     1       2.901   8.062  17.905  0.00  0.00    +0.000 C 
BRANCH  28  29
ATOM     29  C   UNL     1       3.361   6.605  17.950  0.00  0.00    +0.000 C 
BRANCH  29  30
ATOM     30  C   UNL     1       4.844   6.422  17.612  0.00  0.00    +0.000 C 
BRANCH  30  31
ATOM     31  C   UNL     1       5.040   6.361  16.097  0.00  0.00    +0.000 C 
BRANCH  31  33
ATOM     32  C   UNL     1       5.571   4.463  14.546  0.00  0.00    +0.000 C 
ATOM     33  C   UNL     1       6.076   5.314  15.699  0.00  0.00    +0.000 C 
ENDBRANCH  31  33
ENDBRANCH  30  31
ENDBRANCH  29  30
ENDBRANCH  28  29
ENDBRANCH   1  28
TORSDOF 8
ENDMDL
MODEL 8
REMARK VINA RESULT:      -6.8      1.678      2.154
REMARK  Name = 
REMARK  10 active torsions:
REMARK  status: ('A' for Active; 'I' for Inactive)
REMARK    1  A    between atoms: C_1  and  C_2
REMARK    2  A    between atoms: C_2  and  C_3
REMARK    3  A    between atoms: C_3  and  C_4
REMARK    4  A    between atoms: C_4  and  C_5
REMARK    5  A    between atoms: C_5  and  C_6
REMARK    6  A    between atoms: C_6  and  C_7
REMARK    7  A    between atoms: C_12  and  C_13
REMARK    8  A    between atoms: C_17  and  O_18
REMARK    9  A    between atoms: O_18  and  C_19
REMARK   10  A    between atoms: C_21  and  C_22
REMARK                            x       y       z     vdW  Elec       q    Type
REMARK                         _______ _______ _______ _____ _____    ______ ____
ROOT
ATOM      1  C   UNL     1       1.501   8.398  20.389  0.00  0.00    +0.000 A 
ATOM      2  C   UNL     1       1.570   9.382  19.395  0.00  0.00    +0.000 A 
ATOM      3  C   UNL     1       2.185   9.136  18.159  0.00  0.00    +0.000 A 
ATOM      4  C   UNL     1       2.745   7.870  17.957  0.00  0.00    +0.000 A 
ATOM      5  N   UNL     1       3.421   7.352  16.875  0.00  0.00    +0.000 N 
ATOM      6  C   UNL     1       3.870   6.068  17.132  0.00  0.00    +0.000 A 
ATOM      7  C   UNL     1       3.369   5.740  18.383  0.00  0.00    +0.000 A 
ATOM      8  C   UNL     1       2.696   6.870  18.920  0.00  0.00    +0.000 A 
ATOM      9  C   UNL     1       2.067   7.138  20.151  0.00  0.00    +0.000 A 
ATOM     10  H   UNL     1       3.600   7.860  16.022  0.00  0.00    +0.000 HD
ENDROOT
BRANCH   7  11
ATOM     11  C   UNL     1       3.566   4.514  19.064  0.00  0.00    +0.000 C 
ATOM     12  C   UNL     1       4.702   3.949  19.484  0.00  0.00    +0.000 C 
ATOM     13 BR   UNL     1       6.431   4.550  19.333  0.00  0.00    +0.000 Br
ATOM     14  C   UNL     1       4.351   2.670  20.124  0.00  0.00    +0.000 C 
ATOM     15  O   UNL     1       5.124   1.841  20.577  0.00  0.00    +0.000 OA
ATOM     16  N   UNL     1       3.004   2.566  20.102  0.00  0.00    +0.000 N 
ATOM     17  C   UNL     1       2.463   3.598  19.422  0.00  0.00    +0.000 C 
ATOM     18  O   UNL     1       1.292   3.715  19.115  0.00  0.00    +0.000 OA
ATOM     19  H   UNL     1       2.489   1.765  20.420  0.00  0.00    +0.000 HD
ENDBRANCH   7  11
BRANCH   6  20
ATOM     20  C   UNL     1       4.759   5.337  16.223  0.00  0.00    +0.000 A 
ATOM     21  C   UNL     1       4.574   3.970  15.979  0.00  0.00    +0.000 A 
ATOM     22  C   UNL     1       5.519   3.238  15.263  0.00  0.00    +0.000 A 
ATOM     23  C   UNL     1       6.640   3.880  14.744  0.00  0.00    +0.000 A 
ATOM     24  C   UNL     1       6.816   5.252  14.922  0.00  0.00    +0.000 A 
ATOM     25  C   UNL     1       5.876   5.975  15.663  0.00  0.00    +0.000 A 
BRANCH  24  26
ATOM     26  O   UNL     1       7.948   5.764  14.351  0.00  0.00    +0.000 OA
ATOM     27  C   UNL     1       8.162   5.468  12.977  0.00  0.00    +0.000 C 
ENDBRANCH  24  26
ENDBRANCH   6  20
BRANCH   1  28
ATOM     28  C   UNL     1       0.822   8.663  21.712  0.00  0.00    +0.000 C 
BRANCH  28  29
ATOM     29  C   UNL     1      -0.522   9.380  21.583  0.00  0.00    +0.000 C 
BRANCH  29  30
ATOM     30  C   UNL     1      -0.459  10.866  21.951  0.00  0.00    +0.000 C 
BRANCH  30  31
ATOM     31  C   UNL     1      -1.370  11.158  23.143  0.00  0.00    +0.000 C 
BRANCH  31  33
ATOM     32  C   UNL     1      -3.219  12.626  22.297  0.00  0.00    +0.000 C 
ATOM     33  C   UNL     1      -1.928  12.578  23.097  0.00  0.00    +0.000 C 
ENDBRANCH  31  33
ENDBRANCH  30  31
ENDBRANCH  29  30
ENDBRANCH  28  29
ENDBRANCH   1  28
TORSDOF 8
ENDMDL
MODEL 9
REMARK VINA RESULT:      -6.8      5.389     10.872
REMARK  Name = 
REMARK  10 active torsions:
REMARK  status: ('A' for Active; 'I' for Inactive)
REMARK    1  A    between atoms: C_1  and  C_2
REMARK    2  A    between atoms: C_2  and  C_3
REMARK    3  A    between atoms: C_3  and  C_4
REMARK    4  A    between atoms: C_4  and  C_5
REMARK    5  A    between atoms: C_5  and  C_6
REMARK    6  A    between atoms: C_6  and  C_7
REMARK    7  A    between atoms: C_12  and  C_13
REMARK    8  A    between atoms: C_17  and  O_18
REMARK    9  A    between atoms: O_18  and  C_19
REMARK   10  A    between atoms: C_21  and  C_22
REMARK                            x       y       z     vdW  Elec       q    Type
REMARK                         _______ _______ _______ _____ _____    ______ ____
ROOT
ATOM      1  C   UNL     1       1.832   8.356  19.428  0.00  0.00    +0.000 A 
ATOM      2  C   UNL     1       1.548   7.536  20.528  0.00  0.00    +0.000 A 
ATOM      3  C   UNL     1       0.716   7.967  21.570  0.00  0.00    +0.000 A 
ATOM      4  C   UNL     1       0.186   9.260  21.482  0.00  0.00    +0.000 A 
ATOM      5  N   UNL     1      -0.630   9.955  22.347  0.00  0.00    +0.000 N 
ATOM      6  C   UNL     1      -0.853  11.245  21.897  0.00  0.00    +0.000 A 
ATOM      7  C   UNL     1      -0.234  11.322  20.659  0.00  0.00    +0.000 A 
ATOM      8  C   UNL     1       0.447  10.101  20.407  0.00  0.00    +0.000 A 
ATOM      9  C   UNL     1       1.280   9.643  19.369  0.00  0.00    +0.000 A 
ATOM     10  H   UNL     1      -0.984   9.582  23.214  0.00  0.00    +0.000 HD
ENDROOT
BRANCH   7  11
ATOM     11  C   UNL     1      -0.201  12.459  19.814  0.00  0.00    +0.000 C 
ATOM     12  C   UNL     1       0.662  13.479  19.796  0.00  0.00    +0.000 C 
ATOM     13 BR   UNL     1       2.124  13.791  20.863  0.00  0.00    +0.000 Br
ATOM     14  C   UNL     1       0.238  14.400  18.728  0.00  0.00    +0.000 C 
ATOM     15  O   UNL     1       0.740  15.475  18.446  0.00  0.00    +0.000 OA
ATOM     16  N   UNL     1      -0.834  13.844  18.121  0.00  0.00    +0.000 N 
ATOM     17  C   UNL     1      -1.203  12.713  18.757  0.00  0.00    +0.000 C 
ATOM     18  O   UNL     1      -2.205  12.062  18.533  0.00  0.00    +0.000 OA
ATOM     19  H   UNL     1      -1.367  14.283  17.391  0.00  0.00    +0.000 HD
ENDBRANCH   7  11
BRANCH   6  20
ATOM     20  C   UNL     1      -1.548  12.259  22.697  0.00  0.00    +0.000 A 
ATOM     21  C   UNL     1      -0.924  13.470  23.025  0.00  0.00    +0.000 A 
ATOM     22  C   UNL     1      -1.510  14.352  23.931  0.00  0.00    +0.000 A 
ATOM     23  C   UNL     1      -2.752  14.051  24.483  0.00  0.00    +0.000 A 
ATOM     24  C   UNL     1      -3.421  12.880  24.125  0.00  0.00    +0.000 A 
ATOM     25  C   UNL     1      -2.815  11.987  23.235  0.00  0.00    +0.000 A 
BRANCH  24  26
ATOM     26  O   UNL     1      -4.638  12.709  24.724  0.00  0.00    +0.000 OA
ATOM     27  C   UNL     1      -5.786  12.931  23.916  0.00  0.00    +0.000 C 
ENDBRANCH  24  26
ENDBRANCH   6  20
BRANCH   1  28
ATOM     28  C   UNL     1       2.715   7.880  18.300  0.00  0.00    +0.000 C 
BRANCH  28  29
ATOM     29  C   UNL     1       2.777   6.358  18.164  0.00  0.00    +0.000 C 
BRANCH  29  30
ATOM     30  C   UNL     1       3.967   5.728  18.895  0.00  0.00    +0.000 C 
BRANCH  30  31
ATOM     31  C   UNL     1       3.826   4.206  18.926  0.00  0.00    +0.000 C 
BRANCH  31  33
ATOM     32  C   UNL     1       2.194   2.609  17.888  0.00  0.00    +0.000 C 
ATOM     33  C   UNL     1       2.365   3.769  18.854  0.00  0.00    +0.000 C 
ENDBRANCH  31  33
ENDBRANCH  30  31
ENDBRANCH  29  30
ENDBRANCH  28  29
ENDBRANCH   1  28
TORSDOF 8
ENDMDL
