MODEL 1
REMARK VINA RESULT:      -7.5      0.000      0.000
REMARK  Name = 
REMARK  9 active torsions:
REMARK  status: ('A' for Active; 'I' for Inactive)
REMARK    1  A    between atoms: C_1  and  C_2
REMARK    2  A    between atoms: C_2  and  O_3
REMARK    3  A    between atoms: O_3  and  C_4
REMARK    4  A    between atoms: C_7  and  N_8
REMARK    5  A    between atoms: N_9  and  C_10
REMARK    6  A    between atoms: C_17  and  C_18
REMARK    7  A    between atoms: N_20  and  C_21
REMARK    8  A    between atoms: C_24  and  O_25
REMARK    9  A    between atoms: O_25  and  C_26
REMARK                            x       y       z     vdW  Elec       q    Type
REMARK                         _______ _______ _______ _____ _____    ______ ____
ROOT
ATOM      1  C   UNL     1       2.577   7.411  18.689  0.00  0.00    +0.000 A 
ATOM      2  C   UNL     1       2.372   6.574  19.801  0.00  0.00    +0.000 A 
ATOM      3  C   UNL     1       1.585   6.980  20.886  0.00  0.00    +0.000 A 
ATOM      4  C   UNL     1       0.998   8.242  20.863  0.00  0.00    +0.000 A 
ATOM      5  O   UNL     1       0.340   8.681  22.029  0.00  0.00    +0.000 OA
ATOM      6  C   UNL     1       0.005  10.028  22.167  0.00  0.00    +0.000 A 
ATOM      7  O   UNL     1      -0.140  10.548  23.270  0.00  0.00    +0.000 OA
ATOM      8  C   UNL     1      -0.217  10.784  20.918  0.00  0.00    +0.000 A 
ATOM      9  C   UNL     1       0.342  10.323  19.779  0.00  0.00    +0.000 A 
ATOM     10  C   UNL     1       1.115   9.078  19.759  0.00  0.00    +0.000 A 
ATOM     11  C   UNL     1       1.911   8.658  18.671  0.00  0.00    +0.000 A 
ENDROOT
BRANCH   8  12
ATOM     12  C   UNL     1      -1.078  12.023  20.854  0.00  0.00    +0.000 C 
ATOM     13  O   UNL     1      -0.771  12.907  20.050  0.00  0.00    +0.000 OA
ATOM     14  N   UNL     1      -2.152  12.097  21.731  0.00  0.00    +0.000 N 
ATOM     15  H   UNL     1      -2.233  11.358  22.428  0.00  0.00    +0.000 HD
BRANCH  14  16
ATOM     16  C   UNL     1      -3.151  13.117  21.777  0.00  0.00    +0.000 A 
ATOM     17  C   UNL     1      -4.275  13.135  20.946  0.00  0.00    +0.000 A 
ATOM     18  C   UNL     1      -5.243  14.150  21.058  0.00  0.00    +0.000 A 
ATOM     19  C   UNL     1      -5.117  15.163  22.002  0.00  0.00    +0.000 A 
ATOM     20  C   UNL     1      -3.992  15.178  22.823  0.00  0.00    +0.000 A 
ATOM     21  C   UNL     1      -3.026  14.149  22.717  0.00  0.00    +0.000 A 
BRANCH  19  22
ATOM     22  O   UNL     1      -6.119  16.096  22.001  0.00  0.00    +0.000 OA
ATOM     23  C   UNL     1      -7.450  15.598  21.932  0.00  0.00    +0.000 C 
ENDBRANCH  19  22
ENDBRANCH  14  16
ENDBRANCH   8  12
BRANCH   1  25
ATOM     24  N   UNL     1       4.000   5.857  17.920  0.00  0.00    +0.000 NA
ATOM     25  N   UNL     1       3.373   6.901  17.625  0.00  0.00    +0.000 NA
BRANCH  24  29
ATOM     26  C   UNL     1       6.054   4.119  14.591  0.00  0.00    +0.000 A 
ATOM     27  C   UNL     1       5.551   3.338  15.636  0.00  0.00    +0.000 A 
ATOM     28  C   UNL     1       4.894   3.933  16.727  0.00  0.00    +0.000 A 
ATOM     29  C   UNL     1       4.741   5.323  16.824  0.00  0.00    +0.000 A 
ATOM     30  C   UNL     1       5.268   6.094  15.774  0.00  0.00    +0.000 A 
ATOM     31  C   UNL     1       5.921   5.505  14.672  0.00  0.00    +0.000 A 
BRANCH  26  32
ATOM     32  O   UNL     1       6.673   3.425  13.584  0.00  0.00    +0.000 OA
BRANCH  32  34
ATOM     33  C   UNL     1       4.872   3.291  11.999  0.00  0.00    +0.000 C 
ATOM     34  C   UNL     1       6.301   3.757  12.245  0.00  0.00    +0.000 C 
ENDBRANCH  32  34
ENDBRANCH  26  32
ENDBRANCH  24  29
ENDBRANCH   1  25
TORSDOF 7
ENDMDL
MODEL 2
REMARK VINA RESULT:      -7.4      0.881      1.279
REMARK  Name = 
REMARK  9 active torsions:
REMARK  status: ('A' for Active; 'I' for Inactive)
REMARK    1  A    between atoms: C_1  and  C_2
REMARK    2  A    between atoms: C_2  and  O_3
REMARK    3  A    between atoms: O_3  and  C_4
REMARK    4  A    between atoms: C_7  and  N_8
REMARK    5  A    between atoms: N_9  and  C_10
REMARK    6  A    between atoms: C_17  and  C_18
REMARK    7  A    between atoms: N_20  and  C_21
REMARK    8  A    between atoms: C_24  and  O_25
REMARK    9  A    between atoms: O_25  and  C_26
REMARK                            x       y       z     vdW  Elec       q    Type
REMARK                         _______ _______ _______ _____ _____    ______ ____
ROOT
ATOM      1  C   UNL     1       2.207   7.846  19.129  0.00  0.00    +0.000 A 
ATOM      2  C   UNL     1       1.969   7.090  20.292  0.00  0.00    +0.000 A 
ATOM      3  C   UNL     1       1.120   7.554  21.304  0.00  0.00    +0.000 A 
ATOM      4  C   UNL     1       0.504   8.793  21.158  0.00  0.00    +0.000 A 
ATOM      5  O   UNL     1      -0.221   9.299  22.255  0.00  0.00    +0.000 OA
ATOM      6  C   UNL     1      -0.596  10.642  22.274  0.00  0.00    +0.000 A 
ATOM      7  O   UNL     1      -0.808  11.239  23.326  0.00  0.00    +0.000 OA
ATOM      8  C   UNL     1      -0.776  11.295  20.962  0.00  0.00    +0.000 A 
ATOM      9  C   UNL     1      -0.151  10.767  19.889  0.00  0.00    +0.000 A 
ATOM     10  C   UNL     1       0.653   9.547  20.000  0.00  0.00    +0.000 A 
ATOM     11  C   UNL     1       1.512   9.069  18.986  0.00  0.00    +0.000 A 
ENDROOT
BRANCH   8  12
ATOM     12  C   UNL     1      -1.664  12.501  20.764  0.00  0.00    +0.000 C 
ATOM     13  O   UNL     1      -1.362  13.309  19.882  0.00  0.00    +0.000 OA
ATOM     14  N   UNL     1      -2.756  12.633  21.612  0.00  0.00    +0.000 N 
ATOM     15  H   UNL     1      -2.833  11.964  22.376  0.00  0.00    +0.000 HD
BRANCH  14  16
ATOM     16  C   UNL     1      -3.779  13.627  21.542  0.00  0.00    +0.000 A 
ATOM     17  C   UNL     1      -4.842  13.579  20.636  0.00  0.00    +0.000 A 
ATOM     18  C   UNL     1      -5.838  14.573  20.634  0.00  0.00    +0.000 A 
ATOM     19  C   UNL     1      -5.802  15.630  21.537  0.00  0.00    +0.000 A 
ATOM     20  C   UNL     1      -4.736  15.711  22.431  0.00  0.00    +0.000 A 
ATOM     21  C   UNL     1      -3.743  14.704  22.439  0.00  0.00    +0.000 A 
BRANCH  19  22
ATOM     22  O   UNL     1      -6.822  16.536  21.424  0.00  0.00    +0.000 OA
ATOM     23  C   UNL     1      -6.861  17.572  22.397  0.00  0.00    +0.000 C 
ENDBRANCH  19  22
ENDBRANCH  14  16
ENDBRANCH   8  12
BRANCH   1  25
ATOM     24  N   UNL     1       3.294   6.061  18.316  0.00  0.00    +0.000 NA
ATOM     25  N   UNL     1       3.066   7.282  18.146  0.00  0.00    +0.000 NA
BRANCH  24  29
ATOM     26  C   UNL     1       5.888   4.499  15.291  0.00  0.00    +0.000 A 
ATOM     27  C   UNL     1       5.633   5.869  15.408  0.00  0.00    +0.000 A 
ATOM     28  C   UNL     1       4.764   6.357  16.400  0.00  0.00    +0.000 A 
ATOM     29  C   UNL     1       4.103   5.496  17.287  0.00  0.00    +0.000 A 
ATOM     30  C   UNL     1       4.358   4.121  17.144  0.00  0.00    +0.000 A 
ATOM     31  C   UNL     1       5.234   3.624  16.158  0.00  0.00    +0.000 A 
BRANCH  26  32
ATOM     32  O   UNL     1       6.752   4.145  14.288  0.00  0.00    +0.000 OA
BRANCH  32  34
ATOM     33  C   UNL     1       7.112   3.938  11.921  0.00  0.00    +0.000 C 
ATOM     34  C   UNL     1       6.173   3.640  13.083  0.00  0.00    +0.000 C 
ENDBRANCH  32  34
ENDBRANCH  26  32
ENDBRANCH  24  29
ENDBRANCH   1  25
TORSDOF 7
ENDMDL
MODEL 3
REMARK VINA RESULT:      -7.4      0.854      1.232
REMARK  Name = 
REMARK  9 active torsions:
REMARK  status: ('A' for Active; 'I' for Inactive)
REMARK    1  A    between atoms: C_1  and  C_2
REMARK    2  A    between atoms: C_2  and  O_3
REMARK    3  A    between atoms: O_3  and  C_4
REMARK    4  A    between atoms: C_7  and  N_8
REMARK    5  A    between atoms: N_9  and  C_10
REMARK    6  A    between atoms: C_17  and  C_18
REMARK    7  A    between atoms: N_20  and  C_21
REMARK    8  A    between atoms: C_24  and  O_25
REMARK    9  A    between atoms: O_25  and  C_26
REMARK                            x       y       z     vdW  Elec       q    Type
REMARK                         _______ _______ _______ _____ _____    ______ ____
ROOT
ATOM      1  C   UNL     1       2.150   7.827  18.834  0.00  0.00    +0.000 A 
ATOM      2  C   UNL     1       2.060   7.200  20.090  0.00  0.00    +0.000 A 
ATOM      3  C   UNL     1       1.325   7.766  21.139  0.00  0.00    +0.000 A 
ATOM      4  C   UNL     1       0.676   8.979  20.934  0.00  0.00    +0.000 A 
ATOM      5  O   UNL     1       0.072   9.598  22.047  0.00  0.00    +0.000 OA
ATOM      6  C   UNL     1      -0.321  10.933  21.965  0.00  0.00    +0.000 A 
ATOM      7  O   UNL     1      -0.421  11.640  22.965  0.00  0.00    +0.000 OA
ATOM      8  C   UNL     1      -0.662  11.440  20.621  0.00  0.00    +0.000 A 
ATOM      9  C   UNL     1      -0.154  10.801  19.546  0.00  0.00    +0.000 A 
ATOM     10  C   UNL     1       0.678   9.604  19.692  0.00  0.00    +0.000 A 
ATOM     11  C   UNL     1       1.423   9.023  18.642  0.00  0.00    +0.000 A 
ENDROOT
BRANCH   8  12
ATOM     12  C   UNL     1      -1.586  12.613  20.399  0.00  0.00    +0.000 C 
ATOM     13  O   UNL     1      -1.312  13.411  19.499  0.00  0.00    +0.000 OA
ATOM     14  N   UNL     1      -2.680  12.730  21.246  0.00  0.00    +0.000 N 
ATOM     15  H   UNL     1      -2.735  12.075  22.026  0.00  0.00    +0.000 HD
BRANCH  14  16
ATOM     16  C   UNL     1      -3.734  13.690  21.158  0.00  0.00    +0.000 A 
ATOM     17  C   UNL     1      -3.772  14.866  21.914  0.00  0.00    +0.000 A 
ATOM     18  C   UNL     1      -4.822  15.791  21.762  0.00  0.00    +0.000 A 
ATOM     19  C   UNL     1      -5.850  15.570  20.852  0.00  0.00    +0.000 A 
ATOM     20  C   UNL     1      -5.844  14.392  20.108  0.00  0.00    +0.000 A 
ATOM     21  C   UNL     1      -4.781  13.470  20.254  0.00  0.00    +0.000 A 
BRANCH  19  22
ATOM     22  O   UNL     1      -6.816  16.538  20.809  0.00  0.00    +0.000 OA
ATOM     23  C   UNL     1      -7.745  16.556  21.887  0.00  0.00    +0.000 C 
ENDBRANCH  19  22
ENDBRANCH  14  16
ENDBRANCH   8  12
BRANCH   1  25
ATOM     24  N   UNL     1       3.907   6.557  18.260  0.00  0.00    +0.000 NA
ATOM     25  N   UNL     1       2.901   7.163  17.824  0.00  0.00    +0.000 NA
BRANCH  24  29
ATOM     26  C   UNL     1       5.827   4.328  15.150  0.00  0.00    +0.000 A 
ATOM     27  C   UNL     1       5.018   3.710  16.109  0.00  0.00    +0.000 A 
ATOM     28  C   UNL     1       4.411   4.461  17.131  0.00  0.00    +0.000 A 
ATOM     29  C   UNL     1       4.611   5.844  17.245  0.00  0.00    +0.000 A 
ATOM     30  C   UNL     1       5.441   6.446  16.283  0.00  0.00    +0.000 A 
ATOM     31  C   UNL     1       6.047   5.702  15.251  0.00  0.00    +0.000 A 
BRANCH  26  32
ATOM     32  O   UNL     1       6.362   3.492  14.205  0.00  0.00    +0.000 OA
BRANCH  32  34
ATOM     33  C   UNL     1       5.292   3.207  12.073  0.00  0.00    +0.000 C 
ATOM     34  C   UNL     1       6.363   3.957  12.854  0.00  0.00    +0.000 C 
ENDBRANCH  32  34
ENDBRANCH  26  32
ENDBRANCH  24  29
ENDBRANCH   1  25
TORSDOF 7
ENDMDL
MODEL 4
REMARK VINA RESULT:      -7.4      1.280      1.807
REMARK  Name = 
REMARK  9 active torsions:
REMARK  status: ('A' for Active; 'I' for Inactive)
REMARK    1  A    between atoms: C_1  and  C_2
REMARK    2  A    between atoms: C_2  and  O_3
REMARK    3  A    between atoms: O_3  and  C_4
REMARK    4  A    between atoms: C_7  and  N_8
REMARK    5  A    between atoms: N_9  and  C_10
REMARK    6  A    between atoms: C_17  and  C_18
REMARK    7  A    between atoms: N_20  and  C_21
REMARK    8  A    between atoms: C_24  and  O_25
REMARK    9  A    between atoms: O_25  and  C_26
REMARK                            x       y       z     vdW  Elec       q    Type
REMARK                         _______ _______ _______ _____ _____    ______ ____
ROOT
ATOM      1  C   UNL     1       2.462   7.035  18.746  0.00  0.00    +0.000 A 
ATOM      2  C   UNL     1       2.136   6.087  19.732  0.00  0.00    +0.000 A 
ATOM      3  C   UNL     1       1.442   6.450  20.893  0.00  0.00    +0.000 A 
ATOM      4  C   UNL     1       1.074   7.779  21.076  0.00  0.00    +0.000 A 
ATOM      5  O   UNL     1       0.513   8.141  22.317  0.00  0.00    +0.000 OA
ATOM      6  C   UNL     1       0.409   9.489  22.660  0.00  0.00    +0.000 A 
ATOM      7  O   UNL     1       0.368   9.856  23.832  0.00  0.00    +0.000 OA
ATOM      8  C   UNL     1       0.300  10.448  21.543  0.00  0.00    +0.000 A 
ATOM      9  C   UNL     1       0.759  10.077  20.330  0.00  0.00    +0.000 A 
ATOM     10  C   UNL     1       1.313   8.740  20.100  0.00  0.00    +0.000 A 
ATOM     11  C   UNL     1       2.014   8.362  18.934  0.00  0.00    +0.000 A 
ENDROOT
BRANCH   8  12
ATOM     12  C   UNL     1      -0.343  11.807  21.692  0.00  0.00    +0.000 C 
ATOM     13  O   UNL     1      -0.257  12.600  20.750  0.00  0.00    +0.000 OA
ATOM     14  N   UNL     1      -0.972  12.084  22.898  0.00  0.00    +0.000 N 
ATOM     15  H   UNL     1      -0.875  11.394  23.642  0.00  0.00    +0.000 HD
BRANCH  14  16
ATOM     16  C   UNL     1      -1.728  13.252  23.222  0.00  0.00    +0.000 A 
ATOM     17  C   UNL     1      -1.149  14.462  23.618  0.00  0.00    +0.000 A 
ATOM     18  C   UNL     1      -1.944  15.589  23.895  0.00  0.00    +0.000 A 
ATOM     19  C   UNL     1      -3.329  15.540  23.778  0.00  0.00    +0.000 A 
ATOM     20  C   UNL     1      -3.927  14.337  23.409  0.00  0.00    +0.000 A 
ATOM     21  C   UNL     1      -3.125  13.208  23.119  0.00  0.00    +0.000 A 
BRANCH  19  22
ATOM     22  O   UNL     1      -3.987  16.699  24.087  0.00  0.00    +0.000 OA
ATOM     23  C   UNL     1      -5.363  16.576  24.427  0.00  0.00    +0.000 C 
ENDBRANCH  19  22
ENDBRANCH  14  16
ENDBRANCH   8  12
BRANCH   1  25
ATOM     24  N   UNL     1       4.139   5.846  17.850  0.00  0.00    +0.000 NA
ATOM     25  N   UNL     1       3.148   6.567  17.590  0.00  0.00    +0.000 NA
BRANCH  24  29
ATOM     26  C   UNL     1       6.207   4.458  14.368  0.00  0.00    +0.000 A 
ATOM     27  C   UNL     1       5.816   5.793  14.510  0.00  0.00    +0.000 A 
ATOM     28  C   UNL     1       5.124   6.222  15.656  0.00  0.00    +0.000 A 
ATOM     29  C   UNL     1       4.776   5.332  16.682  0.00  0.00    +0.000 A 
ATOM     30  C   UNL     1       5.161   3.990  16.514  0.00  0.00    +0.000 A 
ATOM     31  C   UNL     1       5.863   3.553  15.373  0.00  0.00    +0.000 A 
BRANCH  26  32
ATOM     32  O   UNL     1       6.876   4.162  13.209  0.00  0.00    +0.000 OA
BRANCH  32  34
ATOM     33  C   UNL     1       4.976   3.501  11.896  0.00  0.00    +0.000 C 
ATOM     34  C   UNL     1       6.352   3.098  12.412  0.00  0.00    +0.000 C 
ENDBRANCH  32  34
ENDBRANCH  26  32
ENDBRANCH  24  29
ENDBRANCH   1  25
TORSDOF 7
ENDMDL
MODEL 5
REMARK VINA RESULT:      -7.2      1.956      2.274
REMARK  Name = 
REMARK  9 active torsions:
REMARK  status: ('A' for Active; 'I' for Inactive)
REMARK    1  A    between atoms: C_1  and  C_2
REMARK    2  A    between atoms: C_2  and  O_3
REMARK    3  A    between atoms: O_3  and  C_4
REMARK    4  A    between atoms: C_7  and  N_8
REMARK    5  A    between atoms: N_9  and  C_10
REMARK    6  A    between atoms: C_17  and  C_18
REMARK    7  A    between atoms: N_20  and  C_21
REMARK    8  A    between atoms: C_24  and  O_25
REMARK    9  A    between atoms: O_25  and  C_26
REMARK                            x       y       z     vdW  Elec       q    Type
REMARK                         _______ _______ _______ _____ _____    ______ ____
ROOT
ATOM      1  C   UNL     1       2.480   7.920  18.666  0.00  0.00    +0.000 A 
ATOM      2  C   UNL     1       2.435   7.382  19.965  0.00  0.00    +0.000 A 
ATOM      3  C   UNL     1       1.558   7.885  20.934  0.00  0.00    +0.000 A 
ATOM      4  C   UNL     1       0.717   8.944  20.604  0.00  0.00    +0.000 A 
ATOM      5  O   UNL     1      -0.043   9.525  21.638  0.00  0.00    +0.000 OA
ATOM      6  C   UNL     1      -0.660  10.759  21.431  0.00  0.00    +0.000 A 
ATOM      7  O   UNL     1      -0.935  11.509  22.364  0.00  0.00    +0.000 OA
ATOM      8  C   UNL     1      -1.012  11.095  20.037  0.00  0.00    +0.000 A 
ATOM      9  C   UNL     1      -0.344  10.479  19.039  0.00  0.00    +0.000 A 
ATOM     10  C   UNL     1       0.676   9.464  19.316  0.00  0.00    +0.000 A 
ATOM     11  C   UNL     1       1.565   8.950  18.348  0.00  0.00    +0.000 A 
ENDROOT
BRANCH   8  12
ATOM     12  C   UNL     1      -2.115  12.064  19.683  0.00  0.00    +0.000 C 
ATOM     13  O   UNL     1      -1.899  13.271  19.820  0.00  0.00    +0.000 OA
ATOM     14  N   UNL     1      -3.318  11.526  19.246  0.00  0.00    +0.000 N 
ATOM     15  H   UNL     1      -3.414  10.512  19.287  0.00  0.00    +0.000 HD
BRANCH  14  16
ATOM     16  C   UNL     1      -4.453  12.245  18.763  0.00  0.00    +0.000 A 
ATOM     17  C   UNL     1      -4.985  12.079  17.480  0.00  0.00    +0.000 A 
ATOM     18  C   UNL     1      -6.124  12.794  17.070  0.00  0.00    +0.000 A 
ATOM     19  C   UNL     1      -6.764  13.684  17.927  0.00  0.00    +0.000 A 
ATOM     20  C   UNL     1      -6.235  13.883  19.201  0.00  0.00    +0.000 A 
ATOM     21  C   UNL     1      -5.096  13.153  19.615  0.00  0.00    +0.000 A 
BRANCH  19  22
ATOM     22  O   UNL     1      -7.854  14.325  17.404  0.00  0.00    +0.000 OA
ATOM     23  C   UNL     1      -7.913  15.733  17.594  0.00  0.00    +0.000 C 
ENDBRANCH  19  22
ENDBRANCH  14  16
ENDBRANCH   8  12
BRANCH   1  25
ATOM     24  N   UNL     1       3.472   6.082  17.850  0.00  0.00    +0.000 NA
ATOM     25  N   UNL     1       3.388   7.328  17.745  0.00  0.00    +0.000 NA
BRANCH  24  29
ATOM     26  C   UNL     1       5.893   4.205  14.860  0.00  0.00    +0.000 A 
ATOM     27  C   UNL     1       5.167   3.460  15.795  0.00  0.00    +0.000 A 
ATOM     28  C   UNL     1       4.391   4.100  16.778  0.00  0.00    +0.000 A 
ATOM     29  C   UNL     1       4.336   5.497  16.877  0.00  0.00    +0.000 A 
ATOM     30  C   UNL     1       5.086   6.230  15.941  0.00  0.00    +0.000 A 
ATOM     31  C   UNL     1       5.860   5.597  14.947  0.00  0.00    +0.000 A 
BRANCH  26  32
ATOM     32  O   UNL     1       6.609   3.470  13.952  0.00  0.00    +0.000 OA
BRANCH  32  34
ATOM     33  C   UNL     1       5.231   3.203  12.002  0.00  0.00    +0.000 C 
ATOM     34  C   UNL     1       6.489   3.842  12.578  0.00  0.00    +0.000 C 
ENDBRANCH  32  34
ENDBRANCH  26  32
ENDBRANCH  24  29
ENDBRANCH   1  25
TORSDOF 7
ENDMDL
MODEL 6
REMARK VINA RESULT:      -7.0      1.347      1.665
REMARK  Name = 
REMARK  9 active torsions:
REMARK  status: ('A' for Active; 'I' for Inactive)
REMARK    1  A    between atoms: C_1  and  C_2
REMARK    2  A    between atoms: C_2  and  O_3
REMARK    3  A    between atoms: O_3  and  C_4
REMARK    4  A    between atoms: C_7  and  N_8
REMARK    5  A    between atoms: N_9  and  C_10
REMARK    6  A    between atoms: C_17  and  C_18
REMARK    7  A    between atoms: N_20  and  C_21
REMARK    8  A    between atoms: C_24  and  O_25
REMARK    9  A    between atoms: O_25  and  C_26
REMARK                            x       y       z     vdW  Elec       q    Type
REMARK                         _______ _______ _______ _____ _____    ______ ____
ROOT
ATOM      1  C   UNL     1       2.232   7.927  18.815  0.00  0.00    +0.000 A 
ATOM      2  C   UNL     1       2.106   7.281  20.058  0.00  0.00    +0.000 A 
ATOM      3  C   UNL     1       1.341   7.833  21.094  0.00  0.00    +0.000 A 
ATOM      4  C   UNL     1       0.698   9.049  20.888  0.00  0.00    +0.000 A 
ATOM      5  O   UNL     1       0.064   9.652  21.993  0.00  0.00    +0.000 OA
ATOM      6  C   UNL     1      -0.327  10.989  21.920  0.00  0.00    +0.000 A 
ATOM      7  O   UNL     1      -0.455  11.680  22.927  0.00  0.00    +0.000 OA
ATOM      8  C   UNL     1      -0.629  11.515  20.574  0.00  0.00    +0.000 A 
ATOM      9  C   UNL     1      -0.091  10.892  19.504  0.00  0.00    +0.000 A 
ATOM     10  C   UNL     1       0.736   9.692  19.656  0.00  0.00    +0.000 A 
ATOM     11  C   UNL     1       1.510   9.127  18.620  0.00  0.00    +0.000 A 
ENDROOT
BRANCH   8  12
ATOM     12  C   UNL     1      -1.546  12.692  20.343  0.00  0.00    +0.000 C 
ATOM     13  O   UNL     1      -2.078  12.810  19.236  0.00  0.00    +0.000 OA
ATOM     14  N   UNL     1      -1.712  13.585  21.393  0.00  0.00    +0.000 N 
ATOM     15  H   UNL     1      -1.128  13.445  22.217  0.00  0.00    +0.000 HD
BRANCH  14  16
ATOM     16  C   UNL     1      -2.602  14.701  21.437  0.00  0.00    +0.000 A 
ATOM     17  C   UNL     1      -3.866  14.659  22.033  0.00  0.00    +0.000 A 
ATOM     18  C   UNL     1      -4.688  15.800  22.072  0.00  0.00    +0.000 A 
ATOM     19  C   UNL     1      -4.268  17.008  21.526  0.00  0.00    +0.000 A 
ATOM     20  C   UNL     1      -3.022  17.065  20.905  0.00  0.00    +0.000 A 
ATOM     21  C   UNL     1      -2.193  15.920  20.878  0.00  0.00    +0.000 A 
BRANCH  19  22
ATOM     22  O   UNL     1      -5.164  18.039  21.618  0.00  0.00    +0.000 OA
ATOM     23  C   UNL     1      -5.381  18.577  22.917  0.00  0.00    +0.000 C 
ENDBRANCH  19  22
ENDBRANCH  14  16
ENDBRANCH   8  12
BRANCH   1  25
ATOM     24  N   UNL     1       3.618   6.263  18.232  0.00  0.00    +0.000 NA
ATOM     25  N   UNL     1       3.010   7.277  17.817  0.00  0.00    +0.000 NA
BRANCH  24  29
ATOM     26  C   UNL     1       5.974   4.325  15.229  0.00  0.00    +0.000 A 
ATOM     27  C   UNL     1       6.015   5.710  15.418  0.00  0.00    +0.000 A 
ATOM     28  C   UNL     1       5.220   6.326  16.401  0.00  0.00    +0.000 A 
ATOM     29  C   UNL     1       4.341   5.587  17.205  0.00  0.00    +0.000 A 
ATOM     30  C   UNL     1       4.300   4.198  16.989  0.00  0.00    +0.000 A 
ATOM     31  C   UNL     1       5.100   3.572  16.013  0.00  0.00    +0.000 A 
BRANCH  26  32
ATOM     32  O   UNL     1       6.795   3.842  14.243  0.00  0.00    +0.000 OA
BRANCH  32  34
ATOM     33  C   UNL     1       5.703   3.175  12.209  0.00  0.00    +0.000 C 
ATOM     34  C   UNL     1       6.515   4.260  12.906  0.00  0.00    +0.000 C 
ENDBRANCH  32  34
ENDBRANCH  26  32
ENDBRANCH  24  29
ENDBRANCH   1  25
TORSDOF 7
ENDMDL
MODEL 7
REMARK VINA RESULT:      -6.9      1.565     12.674
REMARK  Name = 
REMARK  9 active torsions:
REMARK  status: ('A' for Active; 'I' for Inactive)
REMARK    1  A    between atoms: C_1  and  C_2
REMARK    2  A    between atoms: C_2  and  O_3
REMARK    3  A    between atoms: O_3  and  C_4
REMARK    4  A    between atoms: C_7  and  N_8
REMARK    5  A    between atoms: N_9  and  C_10
REMARK    6  A    between atoms: C_17  and  C_18
REMARK    7  A    between atoms: N_20  and  C_21
REMARK    8  A    between atoms: C_24  and  O_25
REMARK    9  A    between atoms: O_25  and  C_26
REMARK                            x       y       z     vdW  Elec       q    Type
REMARK                         _______ _______ _______ _____ _____    ______ ____
ROOT
ATOM      1  C   UNL     1      -0.996  11.165  21.613  0.00  0.00    +0.000 A 
ATOM      2  C   UNL     1      -0.667  10.540  22.829  0.00  0.00    +0.000 A 
ATOM      3  C   UNL     1       0.200   9.441  22.875  0.00  0.00    +0.000 A 
ATOM      4  C   UNL     1       0.742   8.955  21.689  0.00  0.00    +0.000 A 
ATOM      5  O   UNL     1       1.487   7.760  21.749  0.00  0.00    +0.000 OA
ATOM      6  C   UNL     1       1.789   7.076  20.571  0.00  0.00    +0.000 A 
ATOM      7  O   UNL     1       2.015   5.869  20.565  0.00  0.00    +0.000 OA
ATOM      8  C   UNL     1       1.876   7.887  19.341  0.00  0.00    +0.000 A 
ATOM      9  C   UNL     1       1.232   9.073  19.306  0.00  0.00    +0.000 A 
ATOM     10  C   UNL     1       0.501   9.579  20.470  0.00  0.00    +0.000 A 
ATOM     11  C   UNL     1      -0.375  10.686  20.437  0.00  0.00    +0.000 A 
ENDROOT
BRANCH   8  12
ATOM     12  C   UNL     1       2.687   7.466  18.138  0.00  0.00    +0.000 C 
ATOM     13  O   UNL     1       2.765   8.244  17.184  0.00  0.00    +0.000 OA
ATOM     14  N   UNL     1       3.276   6.209  18.178  0.00  0.00    +0.000 N 
ATOM     15  H   UNL     1       3.042   5.612  18.970  0.00  0.00    +0.000 HD
BRANCH  14  16
ATOM     16  C   UNL     1       4.163   5.648  17.209  0.00  0.00    +0.000 A 
ATOM     17  C   UNL     1       4.326   4.272  17.017  0.00  0.00    +0.000 A 
ATOM     18  C   UNL     1       5.193   3.778  16.025  0.00  0.00    +0.000 A 
ATOM     19  C   UNL     1       5.910   4.639  15.201  0.00  0.00    +0.000 A 
ATOM     20  C   UNL     1       5.781   6.012  15.394  0.00  0.00    +0.000 A 
ATOM     21  C   UNL     1       4.900   6.507  16.383  0.00  0.00    +0.000 A 
BRANCH  19  22
ATOM     22  O   UNL     1       6.728   4.032  14.286  0.00  0.00    +0.000 OA
ATOM     23  C   UNL     1       6.115   3.596  13.078  0.00  0.00    +0.000 C 
ENDBRANCH  19  22
ENDBRANCH  14  16
ENDBRANCH   8  12
BRANCH   1  25
ATOM     24  N   UNL     1      -2.380  12.473  22.798  0.00  0.00    +0.000 NA
ATOM     25  N   UNL     1      -1.866  12.289  21.670  0.00  0.00    +0.000 NA
BRANCH  24  29
ATOM     26  C   UNL     1      -4.919  15.918  22.774  0.00  0.00    +0.000 A 
ATOM     27  C   UNL     1      -4.041  15.642  21.721  0.00  0.00    +0.000 A 
ATOM     28  C   UNL     1      -3.206  14.512  21.759  0.00  0.00    +0.000 A 
ATOM     29  C   UNL     1      -3.198  13.640  22.856  0.00  0.00    +0.000 A 
ATOM     30  C   UNL     1      -4.073  13.943  23.913  0.00  0.00    +0.000 A 
ATOM     31  C   UNL     1      -4.921  15.069  23.880  0.00  0.00    +0.000 A 
BRANCH  26  32
ATOM     32  O   UNL     1      -5.683  17.046  22.621  0.00  0.00    +0.000 OA
BRANCH  32  34
ATOM     33  C   UNL     1      -7.822  16.186  21.944  0.00  0.00    +0.000 C 
ATOM     34  C   UNL     1      -7.055  16.957  23.011  0.00  0.00    +0.000 C 
ENDBRANCH  32  34
ENDBRANCH  26  32
ENDBRANCH  24  29
ENDBRANCH   1  25
TORSDOF 7
ENDMDL
MODEL 8
REMARK VINA RESULT:      -6.8      1.545      2.043
REMARK  Name = 
REMARK  9 active torsions:
REMARK  status: ('A' for Active; 'I' for Inactive)
REMARK    1  A    between atoms: C_1  and  C_2
REMARK    2  A    between atoms: C_2  and  O_3
REMARK    3  A    between atoms: O_3  and  C_4
REMARK    4  A    between atoms: C_7  and  N_8
REMARK    5  A    between atoms: N_9  and  C_10
REMARK    6  A    between atoms: C_17  and  C_18
REMARK    7  A    between atoms: N_20  and  C_21
REMARK    8  A    between atoms: C_24  and  O_25
REMARK    9  A    between atoms: O_25  and  C_26
REMARK                            x       y       z     vdW  Elec       q    Type
REMARK                         _______ _______ _______ _____ _____    ______ ____
ROOT
ATOM      1  C   UNL     1       3.004   6.101  18.311  0.00  0.00    +0.000 A 
ATOM      2  C   UNL     1       2.713   5.287  19.420  0.00  0.00    +0.000 A 
ATOM      3  C   UNL     1       2.051   5.794  20.545  0.00  0.00    +0.000 A 
ATOM      4  C   UNL     1       1.680   7.135  20.566  0.00  0.00    +0.000 A 
ATOM      5  O   UNL     1       1.153   7.652  21.766  0.00  0.00    +0.000 OA
ATOM      6  C   UNL     1       1.051   9.033  21.937  0.00  0.00    +0.000 A 
ATOM      7  O   UNL     1       1.041   9.548  23.052  0.00  0.00    +0.000 OA
ATOM      8  C   UNL     1       0.902   9.840  20.709  0.00  0.00    +0.000 A 
ATOM      9  C   UNL     1       1.328   9.317  19.540  0.00  0.00    +0.000 A 
ATOM     10  C   UNL     1       1.884   7.963  19.468  0.00  0.00    +0.000 A 
ATOM     11  C   UNL     1       2.552   7.440  18.340  0.00  0.00    +0.000 A 
ENDROOT
BRANCH   8  12
ATOM     12  C   UNL     1       0.255  11.204  20.701  0.00  0.00    +0.000 C 
ATOM     13  O   UNL     1       0.487  11.955  19.750  0.00  0.00    +0.000 OA
ATOM     14  N   UNL     1      -0.546  11.535  21.786  0.00  0.00    +0.000 N 
ATOM     15  H   UNL     1      -0.567  10.878  22.564  0.00  0.00    +0.000 HD
BRANCH  14  16
ATOM     16  C   UNL     1      -1.333  12.717  21.941  0.00  0.00    +0.000 A 
ATOM     17  C   UNL     1      -0.987  13.768  22.797  0.00  0.00    +0.000 A 
ATOM     18  C   UNL     1      -1.787  14.922  22.886  0.00  0.00    +0.000 A 
ATOM     19  C   UNL     1      -2.941  15.059  22.123  0.00  0.00    +0.000 A 
ATOM     20  C   UNL     1      -3.317  14.012  21.283  0.00  0.00    +0.000 A 
ATOM     21  C   UNL     1      -2.505  12.858  21.186  0.00  0.00    +0.000 A 
BRANCH  19  22
ATOM     22  O   UNL     1      -3.636  16.223  22.311  0.00  0.00    +0.000 OA
ATOM     23  C   UNL     1      -2.935  17.285  22.946  0.00  0.00    +0.000 C 
ENDBRANCH  19  22
ENDBRANCH  14  16
ENDBRANCH   8  12
BRANCH   1  25
ATOM     24  N   UNL     1       4.745   6.033  16.898  0.00  0.00    +0.000 NA
ATOM     25  N   UNL     1       3.658   5.489  17.205  0.00  0.00    +0.000 NA
BRANCH  24  29
ATOM     26  C   UNL     1       6.615   4.121  13.556  0.00  0.00    +0.000 A 
ATOM     27  C   UNL     1       5.263   3.923  13.857  0.00  0.00    +0.000 A 
ATOM     28  C   UNL     1       4.675   4.550  14.970  0.00  0.00    +0.000 A 
ATOM     29  C   UNL     1       5.419   5.369  15.831  0.00  0.00    +0.000 A 
ATOM     30  C   UNL     1       6.780   5.541  15.524  0.00  0.00    +0.000 A 
ATOM     31  C   UNL     1       7.375   4.924  14.406  0.00  0.00    +0.000 A 
BRANCH  26  32
ATOM     32  O   UNL     1       7.073   3.458  12.447  0.00  0.00    +0.000 OA
BRANCH  32  34
ATOM     33  C   UNL     1       6.867   1.459  11.129  0.00  0.00    +0.000 C 
ATOM     34  C   UNL     1       6.132   2.643  11.746  0.00  0.00    +0.000 C 
ENDBRANCH  32  34
ENDBRANCH  26  32
ENDBRANCH  24  29
ENDBRANCH   1  25
TORSDOF 7
ENDMDL
MODEL 9
REMARK VINA RESULT:      -6.8      1.982     12.627
REMARK  Name = 
REMARK  9 active torsions:
REMARK  status: ('A' for Active; 'I' for Inactive)
REMARK    1  A    between atoms: C_1  and  C_2
REMARK    2  A    between atoms: C_2  and  O_3
REMARK    3  A    between atoms: O_3  and  C_4
REMARK    4  A    between atoms: C_7  and  N_8
REMARK    5  A    between atoms: N_9  and  C_10
REMARK    6  A    between atoms: C_17  and  C_18
REMARK    7  A    between atoms: N_20  and  C_21
REMARK    8  A    between atoms: C_24  and  O_25
REMARK    9  A    between atoms: O_25  and  C_26
REMARK                            x       y       z     vdW  Elec       q    Type
REMARK                         _______ _______ _______ _____ _____    ______ ____
ROOT
ATOM      1  C   UNL     1      -1.041  11.348  21.771  0.00  0.00    +0.000 A 
ATOM      2  C   UNL     1      -0.835  10.631  22.963  0.00  0.00    +0.000 A 
ATOM      3  C   UNL     1      -0.031   9.485  22.998  0.00  0.00    +0.000 A 
ATOM      4  C   UNL     1       0.573   9.045  21.824  0.00  0.00    +0.000 A 
ATOM      5  O   UNL     1       1.250   7.810  21.857  0.00  0.00    +0.000 OA
ATOM      6  C   UNL     1       1.606   7.185  20.661  0.00  0.00    +0.000 A 
ATOM      7  O   UNL     1       1.770   5.970  20.591  0.00  0.00    +0.000 OA
ATOM      8  C   UNL     1       1.825   8.066  19.497  0.00  0.00    +0.000 A 
ATOM      9  C   UNL     1       1.247   9.286  19.495  0.00  0.00    +0.000 A 
ATOM     10  C   UNL     1       0.456   9.757  20.635  0.00  0.00    +0.000 A 
ATOM     11  C   UNL     1      -0.358  10.910  20.613  0.00  0.00    +0.000 A 
ENDROOT
BRANCH   8  12
ATOM     12  C   UNL     1       2.702   7.677  18.330  0.00  0.00    +0.000 C 
ATOM     13  O   UNL     1       2.666   8.375  17.314  0.00  0.00    +0.000 OA
ATOM     14  N   UNL     1       3.480   6.535  18.472  0.00  0.00    +0.000 N 
ATOM     15  H   UNL     1       3.335   5.977  19.313  0.00  0.00    +0.000 HD
BRANCH  14  16
ATOM     16  C   UNL     1       4.451   6.040  17.550  0.00  0.00    +0.000 A 
ATOM     17  C   UNL     1       5.651   6.699  17.265  0.00  0.00    +0.000 A 
ATOM     18  C   UNL     1       6.585   6.147  16.369  0.00  0.00    +0.000 A 
ATOM     19  C   UNL     1       6.350   4.927  15.745  0.00  0.00    +0.000 A 
ATOM     20  C   UNL     1       5.149   4.267  15.996  0.00  0.00    +0.000 A 
ATOM     21  C   UNL     1       4.217   4.818  16.906  0.00  0.00    +0.000 A 
BRANCH  19  22
ATOM     22  O   UNL     1       7.330   4.506  14.887  0.00  0.00    +0.000 OA
ATOM     23  C   UNL     1       7.396   5.162  13.627  0.00  0.00    +0.000 C 
ENDBRANCH  19  22
ENDBRANCH  14  16
ENDBRANCH   8  12
BRANCH   1  25
ATOM     24  N   UNL     1      -1.875  13.047  22.973  0.00  0.00    +0.000 NA
ATOM     25  N   UNL     1      -1.855  12.512  21.840  0.00  0.00    +0.000 NA
BRANCH  24  29
ATOM     26  C   UNL     1      -4.233  16.618  22.870  0.00  0.00    +0.000 A 
ATOM     27  C   UNL     1      -3.204  16.387  21.951  0.00  0.00    +0.000 A 
ATOM     28  C   UNL     1      -2.433  15.213  22.015  0.00  0.00    +0.000 A 
ATOM     29  C   UNL     1      -2.643  14.248  23.010  0.00  0.00    +0.000 A 
ATOM     30  C   UNL     1      -3.669  14.506  23.936  0.00  0.00    +0.000 A 
ATOM     31  C   UNL     1      -4.453  15.675  23.874  0.00  0.00    +0.000 A 
BRANCH  26  32
ATOM     32  O   UNL     1      -4.914  17.796  22.706  0.00  0.00    +0.000 OA
BRANCH  32  34
ATOM     33  C   UNL     1      -5.878  18.631  20.669  0.00  0.00    +0.000 C 
ATOM     34  C   UNL     1      -4.623  18.554  21.530  0.00  0.00    +0.000 C 
ENDBRANCH  32  34
ENDBRANCH  26  32
ENDBRANCH  24  29
ENDBRANCH   1  25
TORSDOF 7
ENDMDL
