MODEL 1
REMARK VINA RESULT:      -8.1      0.000      0.000
REMARK  Name = 
REMARK  7 active torsions:
REMARK  status: ('A' for Active; 'I' for Inactive)
REMARK    1  A    between atoms: C_1  and  C_2
REMARK    2  A    between atoms: C_6  and  C_7
REMARK    3  A    between atoms: C_7  and  N_8
REMARK    4  A    between atoms: C_7  and  C_19
REMARK    5  A    between atoms: C_9  and  C_11
REMARK    6  A    between atoms: C_13  and  C_14
REMARK    7  A    between atoms: C_16  and  C_17
REMARK                            x       y       z     vdW  Elec       q    Type
REMARK                         _______ _______ _______ _____ _____    ______ ____
ROOT
ATOM      1  N   UNL     1       5.248   4.653  16.715  0.00  0.00    +0.000 N 
ATOM      2  C   UNL     1       6.546   4.568  16.272  0.00  0.00    +0.000 C 
ATOM      3  O   UNL     1       7.514   4.536  17.024  0.00  0.00    +0.000 OA
ATOM      4  H   UNL     1       4.507   4.544  16.032  0.00  0.00    +0.000 HD
ENDROOT
BRANCH   2   5
ATOM      5  C   UNL     1       6.723   4.551  14.784  0.00  0.00    +0.000 A 
ATOM      6  C   UNL     1       6.005   3.625  14.052  0.00  0.00    +0.000 A 
ATOM      7  C   UNL     1       6.258   3.599  12.702  0.00  0.00    +0.000 A 
ATOM      8  C   UNL     1       5.578   2.608  11.811  0.00  0.00    +0.000 C 
ATOM      9  N   UNL     1       7.160   4.421  12.129  0.00  0.00    +0.000 NA
ATOM     10  C   UNL     1       7.817   5.289  12.924  0.00  0.00    +0.000 A 
ATOM     11  C   UNL     1       8.855   6.152  12.276  0.00  0.00    +0.000 C 
ATOM     12  N   UNL     1       7.635   5.403  14.252  0.00  0.00    +0.000 NA
ENDBRANCH   2   5
BRANCH   1  13
ATOM     13  C   UNL     1       4.912   4.751  18.123  0.00  0.00    +0.000 C 
BRANCH  13  19
ATOM     14  C   UNL     1       2.062   2.715  21.589  0.00  0.00    +0.000 C 
ATOM     15  C   UNL     1       2.475   2.771  20.149  0.00  0.00    +0.000 A 
ATOM     16  C   UNL     1       1.836   1.976  19.203  0.00  0.00    +0.000 A 
ATOM     17  C   UNL     1       2.194   2.108  17.868  0.00  0.00    +0.000 A 
ATOM     18  C   UNL     1       3.186   3.019  17.520  0.00  0.00    +0.000 A 
ATOM     19  C   UNL     1       3.818   3.761  18.522  0.00  0.00    +0.000 A 
ATOM     20  N   UNL     1       3.454   3.657  19.828  0.00  0.00    +0.000 NA
ENDBRANCH  13  19
BRANCH  13  21
ATOM     21  C   UNL     1       4.539   6.188  18.411  0.00  0.00    +0.000 C 
ATOM     22  C   UNL     1       4.291   7.215  17.331  0.00  0.00    +0.000 C 
ATOM     23  C   UNL     1       3.130   6.646  18.094  0.00  0.00    +0.000 C 
ENDBRANCH  13  21
ENDBRANCH   1  13
TORSDOF 4
ENDMDL
MODEL 2
REMARK VINA RESULT:      -8.1      3.277      7.487
REMARK  Name = 
REMARK  7 active torsions:
REMARK  status: ('A' for Active; 'I' for Inactive)
REMARK    1  A    between atoms: C_1  and  C_2
REMARK    2  A    between atoms: C_6  and  C_7
REMARK    3  A    between atoms: C_7  and  N_8
REMARK    4  A    between atoms: C_7  and  C_19
REMARK    5  A    between atoms: C_9  and  C_11
REMARK    6  A    between atoms: C_13  and  C_14
REMARK    7  A    between atoms: C_16  and  C_17
REMARK                            x       y       z     vdW  Elec       q    Type
REMARK                         _______ _______ _______ _____ _____    ______ ____
ROOT
ATOM      1  N   UNL     1       2.999   5.621  18.807  0.00  0.00    +0.000 N 
ATOM      2  C   UNL     1       2.438   5.942  20.019  0.00  0.00    +0.000 C 
ATOM      3  O   UNL     1       2.372   5.159  20.961  0.00  0.00    +0.000 OA
ATOM      4  H   UNL     1       3.127   6.367  18.132  0.00  0.00    +0.000 HD
ENDROOT
BRANCH   2   5
ATOM      5  C   UNL     1       1.865   7.323  20.123  0.00  0.00    +0.000 A 
ATOM      6  C   UNL     1       1.150   7.648  21.260  0.00  0.00    +0.000 A 
ATOM      7  C   UNL     1       0.582   8.899  21.275  0.00  0.00    +0.000 A 
ATOM      8  C   UNL     1      -0.257   9.349  22.430  0.00  0.00    +0.000 C 
ATOM      9  N   UNL     1       0.708   9.753  20.240  0.00  0.00    +0.000 NA
ATOM     10  C   UNL     1       1.422   9.347  19.171  0.00  0.00    +0.000 A 
ATOM     11  C   UNL     1       1.501  10.289  18.009  0.00  0.00    +0.000 C 
ATOM     12  N   UNL     1       2.026   8.150  19.061  0.00  0.00    +0.000 NA
ENDBRANCH   2   5
BRANCH   1  13
ATOM     13  C   UNL     1       3.533   4.302  18.522  0.00  0.00    +0.000 C 
BRANCH  13  19
ATOM     14  C   UNL     1       6.072   4.050  14.307  0.00  0.00    +0.000 C 
ATOM     15  C   UNL     1       6.086   4.237  15.794  0.00  0.00    +0.000 A 
ATOM     16  C   UNL     1       7.277   4.517  16.457  0.00  0.00    +0.000 A 
ATOM     17  C   UNL     1       7.240   4.758  17.824  0.00  0.00    +0.000 A 
ATOM     18  C   UNL     1       6.021   4.698  18.489  0.00  0.00    +0.000 A 
ATOM     19  C   UNL     1       4.864   4.372  17.774  0.00  0.00    +0.000 A 
ATOM     20  N   UNL     1       4.888   4.163  16.430  0.00  0.00    +0.000 NA
ENDBRANCH  13  19
BRANCH  13  21
ATOM     21  C   UNL     1       2.475   3.527  17.769  0.00  0.00    +0.000 C 
ATOM     22  C   UNL     1       2.449   2.019  17.688  0.00  0.00    +0.000 C 
ATOM     23  C   UNL     1       1.460   2.732  18.563  0.00  0.00    +0.000 C 
ENDBRANCH  13  21
ENDBRANCH   1  13
TORSDOF 4
ENDMDL
MODEL 3
REMARK VINA RESULT:      -8.0      3.246      7.561
REMARK  Name = 
REMARK  7 active torsions:
REMARK  status: ('A' for Active; 'I' for Inactive)
REMARK    1  A    between atoms: C_1  and  C_2
REMARK    2  A    between atoms: C_6  and  C_7
REMARK    3  A    between atoms: C_7  and  N_8
REMARK    4  A    between atoms: C_7  and  C_19
REMARK    5  A    between atoms: C_9  and  C_11
REMARK    6  A    between atoms: C_13  and  C_14
REMARK    7  A    between atoms: C_16  and  C_17
REMARK                            x       y       z     vdW  Elec       q    Type
REMARK                         _______ _______ _______ _____ _____    ______ ____
ROOT
ATOM      1  N   UNL     1       2.952   5.658  18.830  0.00  0.00    +0.000 N 
ATOM      2  C   UNL     1       2.342   5.975  20.019  0.00  0.00    +0.000 C 
ATOM      3  O   UNL     1       2.235   5.188  20.954  0.00  0.00    +0.000 OA
ATOM      4  H   UNL     1       3.110   6.407  18.165  0.00  0.00    +0.000 HD
ENDROOT
BRANCH   2   5
ATOM      5  C   UNL     1       1.770   7.358  20.106  0.00  0.00    +0.000 A 
ATOM      6  C   UNL     1       1.946   8.205  19.029  0.00  0.00    +0.000 A 
ATOM      7  C   UNL     1       1.469   9.484  19.187  0.00  0.00    +0.000 A 
ATOM      8  C   UNL     1       1.643  10.509  18.110  0.00  0.00    +0.000 C 
ATOM      9  N   UNL     1       0.873   9.889  20.327  0.00  0.00    +0.000 NA
ATOM     10  C   UNL     1       0.749   8.992  21.325  0.00  0.00    +0.000 A 
ATOM     11  C   UNL     1       0.136   9.479  22.603  0.00  0.00    +0.000 C 
ATOM     12  N   UNL     1       1.171   7.716  21.269  0.00  0.00    +0.000 NA
ENDBRANCH   2   5
BRANCH   1  13
ATOM     13  C   UNL     1       3.494   4.339  18.562  0.00  0.00    +0.000 C 
BRANCH  13  19
ATOM     14  C   UNL     1       6.163   3.964  14.437  0.00  0.00    +0.000 C 
ATOM     15  C   UNL     1       6.128   4.216  15.914  0.00  0.00    +0.000 A 
ATOM     16  C   UNL     1       7.292   4.552  16.598  0.00  0.00    +0.000 A 
ATOM     17  C   UNL     1       7.209   4.851  17.952  0.00  0.00    +0.000 A 
ATOM     18  C   UNL     1       5.972   4.791  18.583  0.00  0.00    +0.000 A 
ATOM     19  C   UNL     1       4.845   4.408  17.851  0.00  0.00    +0.000 A 
ATOM     20  N   UNL     1       4.913   4.141  16.518  0.00  0.00    +0.000 NA
ENDBRANCH  13  19
BRANCH  13  21
ATOM     21  C   UNL     1       2.456   3.563  17.781  0.00  0.00    +0.000 C 
ATOM     22  C   UNL     1       2.453   2.056  17.672  0.00  0.00    +0.000 C 
ATOM     23  C   UNL     1       1.443   2.738  18.548  0.00  0.00    +0.000 C 
ENDBRANCH  13  21
ENDBRANCH   1  13
TORSDOF 4
ENDMDL
MODEL 4
REMARK VINA RESULT:      -8.0      4.358      7.677
REMARK  Name = 
REMARK  7 active torsions:
REMARK  status: ('A' for Active; 'I' for Inactive)
REMARK    1  A    between atoms: C_1  and  C_2
REMARK    2  A    between atoms: C_6  and  C_7
REMARK    3  A    between atoms: C_7  and  N_8
REMARK    4  A    between atoms: C_7  and  C_19
REMARK    5  A    between atoms: C_9  and  C_11
REMARK    6  A    between atoms: C_13  and  C_14
REMARK    7  A    between atoms: C_16  and  C_17
REMARK                            x       y       z     vdW  Elec       q    Type
REMARK                         _______ _______ _______ _____ _____    ______ ____
ROOT
ATOM      1  N   UNL     1       2.146   7.412  19.072  0.00  0.00    +0.000 N 
ATOM      2  C   UNL     1       1.760   8.649  18.618  0.00  0.00    +0.000 C 
ATOM      3  O   UNL     1       1.787   8.973  17.436  0.00  0.00    +0.000 OA
ATOM      4  H   UNL     1       1.968   7.188  20.045  0.00  0.00    +0.000 HD
ENDROOT
BRANCH   2   5
ATOM      5  C   UNL     1       1.324   9.620  19.674  0.00  0.00    +0.000 A 
ATOM      6  C   UNL     1       0.910   9.116  20.892  0.00  0.00    +0.000 A 
ATOM      7  C   UNL     1       0.449  10.040  21.799  0.00  0.00    +0.000 A 
ATOM      8  C   UNL     1      -0.073   9.613  23.135  0.00  0.00    +0.000 C 
ATOM      9  N   UNL     1       0.396  11.357  21.513  0.00  0.00    +0.000 NA
ATOM     10  C   UNL     1       0.818  11.755  20.296  0.00  0.00    +0.000 A 
ATOM     11  C   UNL     1       0.697  13.214  19.979  0.00  0.00    +0.000 C 
ATOM     12  N   UNL     1       1.296  10.935  19.343  0.00  0.00    +0.000 NA
ENDBRANCH   2   5
BRANCH   1  13
ATOM     13  C   UNL     1       2.660   6.384  18.186  0.00  0.00    +0.000 C 
BRANCH  13  19
ATOM     14  C   UNL     1       2.124   3.109  21.827  0.00  0.00    +0.000 C 
ATOM     15  C   UNL     1       2.041   3.410  20.361  0.00  0.00    +0.000 A 
ATOM     16  C   UNL     1       1.582   2.445  19.470  0.00  0.00    +0.000 A 
ATOM     17  C   UNL     1       1.448   2.783  18.130  0.00  0.00    +0.000 A 
ATOM     18  C   UNL     1       1.789   4.067  17.719  0.00  0.00    +0.000 A 
ATOM     19  C   UNL     1       2.282   4.980  18.656  0.00  0.00    +0.000 A 
ATOM     20  N   UNL     1       2.389   4.665  19.975  0.00  0.00    +0.000 NA
ENDBRANCH  13  19
BRANCH  13  21
ATOM     21  C   UNL     1       4.155   6.583  18.066  0.00  0.00    +0.000 C 
ATOM     22  C   UNL     1       5.090   5.540  17.498  0.00  0.00    +0.000 C 
ATOM     23  C   UNL     1       4.752   6.756  16.685  0.00  0.00    +0.000 C 
ENDBRANCH  13  21
ENDBRANCH   1  13
TORSDOF 4
ENDMDL
MODEL 5
REMARK VINA RESULT:      -7.9      4.276      7.797
REMARK  Name = 
REMARK  7 active torsions:
REMARK  status: ('A' for Active; 'I' for Inactive)
REMARK    1  A    between atoms: C_1  and  C_2
REMARK    2  A    between atoms: C_6  and  C_7
REMARK    3  A    between atoms: C_7  and  N_8
REMARK    4  A    between atoms: C_7  and  C_19
REMARK    5  A    between atoms: C_9  and  C_11
REMARK    6  A    between atoms: C_13  and  C_14
REMARK    7  A    between atoms: C_16  and  C_17
REMARK                            x       y       z     vdW  Elec       q    Type
REMARK                         _______ _______ _______ _____ _____    ______ ____
ROOT
ATOM      1  N   UNL     1       2.093   7.433  19.049  0.00  0.00    +0.000 N 
ATOM      2  C   UNL     1       1.714   8.667  18.578  0.00  0.00    +0.000 C 
ATOM      3  O   UNL     1       1.787   8.990  17.397  0.00  0.00    +0.000 OA
ATOM      4  H   UNL     1       1.878   7.209  20.015  0.00  0.00    +0.000 HD
ENDROOT
BRANCH   2   5
ATOM      5  C   UNL     1       1.225   9.634  19.613  0.00  0.00    +0.000 A 
ATOM      6  C   UNL     1       1.281  10.984  19.323  0.00  0.00    +0.000 A 
ATOM      7  C   UNL     1       0.892  11.832  20.331  0.00  0.00    +0.000 A 
ATOM      8  C   UNL     1       0.955  13.317  20.155  0.00  0.00    +0.000 C 
ATOM      9  N   UNL     1       0.489  11.374  21.534  0.00  0.00    +0.000 NA
ATOM     10  C   UNL     1       0.471  10.040  21.727  0.00  0.00    +0.000 A 
ATOM     11  C   UNL     1       0.074   9.556  23.088  0.00  0.00    +0.000 C 
ATOM     12  N   UNL     1       0.820   9.126  20.804  0.00  0.00    +0.000 NA
ENDBRANCH   2   5
BRANCH   1  13
ATOM     13  C   UNL     1       2.654   6.410  18.186  0.00  0.00    +0.000 C 
BRANCH  13  19
ATOM     14  C   UNL     1       2.127   3.125  21.820  0.00  0.00    +0.000 C 
ATOM     15  C   UNL     1       2.049   3.428  20.354  0.00  0.00    +0.000 A 
ATOM     16  C   UNL     1       1.602   2.461  19.459  0.00  0.00    +0.000 A 
ATOM     17  C   UNL     1       1.472   2.800  18.119  0.00  0.00    +0.000 A 
ATOM     18  C   UNL     1       1.804   4.087  17.711  0.00  0.00    +0.000 A 
ATOM     19  C   UNL     1       2.285   5.002  18.652  0.00  0.00    +0.000 A 
ATOM     20  N   UNL     1       2.389   4.686  19.971  0.00  0.00    +0.000 NA
ENDBRANCH  13  19
BRANCH  13  21
ATOM     21  C   UNL     1       4.148   6.635  18.114  0.00  0.00    +0.000 C 
ATOM     22  C   UNL     1       5.127   5.575  17.664  0.00  0.00    +0.000 C 
ATOM     23  C   UNL     1       4.801   6.720  16.750  0.00  0.00    +0.000 C 
ENDBRANCH  13  21
ENDBRANCH   1  13
TORSDOF 4
ENDMDL
MODEL 6
REMARK VINA RESULT:      -7.8      3.621      7.554
REMARK  Name = 
REMARK  7 active torsions:
REMARK  status: ('A' for Active; 'I' for Inactive)
REMARK    1  A    between atoms: C_1  and  C_2
REMARK    2  A    between atoms: C_6  and  C_7
REMARK    3  A    between atoms: C_7  and  N_8
REMARK    4  A    between atoms: C_7  and  C_19
REMARK    5  A    between atoms: C_9  and  C_11
REMARK    6  A    between atoms: C_13  and  C_14
REMARK    7  A    between atoms: C_16  and  C_17
REMARK                            x       y       z     vdW  Elec       q    Type
REMARK                         _______ _______ _______ _____ _____    ______ ____
ROOT
ATOM      1  N   UNL     1       2.832   5.867  19.013  0.00  0.00    +0.000 N 
ATOM      2  C   UNL     1       2.193   6.143  20.197  0.00  0.00    +0.000 C 
ATOM      3  O   UNL     1       2.050   5.319  21.095  0.00  0.00    +0.000 OA
ATOM      4  H   UNL     1       3.018   6.641  18.384  0.00  0.00    +0.000 HD
ENDROOT
BRANCH   2   5
ATOM      5  C   UNL     1       1.636   7.528  20.327  0.00  0.00    +0.000 A 
ATOM      6  C   UNL     1       0.946   7.849  21.480  0.00  0.00    +0.000 A 
ATOM      7  C   UNL     1       0.391   9.105  21.519  0.00  0.00    +0.000 A 
ATOM      8  C   UNL     1      -0.422   9.551  22.694  0.00  0.00    +0.000 C 
ATOM      9  N   UNL     1       0.506   9.969  20.490  0.00  0.00    +0.000 NA
ATOM     10  C   UNL     1       1.196   9.567  19.404  0.00  0.00    +0.000 A 
ATOM     11  C   UNL     1       1.263  10.520  18.250  0.00  0.00    +0.000 C 
ATOM     12  N   UNL     1       1.785   8.365  19.270  0.00  0.00    +0.000 NA
ENDBRANCH   2   5
BRANCH   1  13
ATOM     13  C   UNL     1       3.364   4.553  18.704  0.00  0.00    +0.000 C 
BRANCH  13  19
ATOM     14  C   UNL     1       8.128   5.723  19.165  0.00  0.00    +0.000 C 
ATOM     15  C   UNL     1       7.023   5.194  18.301  0.00  0.00    +0.000 A 
ATOM     16  C   UNL     1       7.293   4.740  17.014  0.00  0.00    +0.000 A 
ATOM     17  C   UNL     1       6.258   4.188  16.270  0.00  0.00    +0.000 A 
ATOM     18  C   UNL     1       4.986   4.119  16.827  0.00  0.00    +0.000 A 
ATOM     19  C   UNL     1       4.770   4.629  18.110  0.00  0.00    +0.000 A 
ATOM     20  N   UNL     1       5.784   5.145  18.856  0.00  0.00    +0.000 NA
ENDBRANCH  13  19
BRANCH  13  21
ATOM     21  C   UNL     1       2.376   3.857  17.794  0.00  0.00    +0.000 C 
ATOM     22  C   UNL     1       2.296   2.355  17.648  0.00  0.00    +0.000 C 
ATOM     23  C   UNL     1       1.236   3.083  18.422  0.00  0.00    +0.000 C 
ENDBRANCH  13  21
ENDBRANCH   1  13
TORSDOF 4
ENDMDL
MODEL 7
REMARK VINA RESULT:      -7.8      4.183      8.070
REMARK  Name = 
REMARK  7 active torsions:
REMARK  status: ('A' for Active; 'I' for Inactive)
REMARK    1  A    between atoms: C_1  and  C_2
REMARK    2  A    between atoms: C_6  and  C_7
REMARK    3  A    between atoms: C_7  and  N_8
REMARK    4  A    between atoms: C_7  and  C_19
REMARK    5  A    between atoms: C_9  and  C_11
REMARK    6  A    between atoms: C_13  and  C_14
REMARK    7  A    between atoms: C_16  and  C_17
REMARK                            x       y       z     vdW  Elec       q    Type
REMARK                         _______ _______ _______ _____ _____    ______ ____
ROOT
ATOM      1  N   UNL     1       2.578   6.826  19.171  0.00  0.00    +0.000 N 
ATOM      2  C   UNL     1       1.853   6.961  20.330  0.00  0.00    +0.000 C 
ATOM      3  O   UNL     1       1.676   6.046  21.126  0.00  0.00    +0.000 OA
ATOM      4  H   UNL     1       2.781   7.665  18.639  0.00  0.00    +0.000 HD
ENDROOT
BRANCH   2   5
ATOM      5  C   UNL     1       1.244   8.312  20.559  0.00  0.00    +0.000 A 
ATOM      6  C   UNL     1       0.607   8.543  21.763  0.00  0.00    +0.000 A 
ATOM      7  C   UNL     1       0.001   9.769  21.896  0.00  0.00    +0.000 A 
ATOM      8  C   UNL     1      -0.762  10.120  23.135  0.00  0.00    +0.000 C 
ATOM      9  N   UNL     1       0.019  10.686  20.908  0.00  0.00    +0.000 NA
ATOM     10  C   UNL     1       0.662  10.369  19.766  0.00  0.00    +0.000 A 
ATOM     11  C   UNL     1       0.621  11.379  18.661  0.00  0.00    +0.000 C 
ATOM     12  N   UNL     1       1.296   9.204  19.539  0.00  0.00    +0.000 NA
ENDBRANCH   2   5
BRANCH   1  13
ATOM     13  C   UNL     1       3.172   5.564  18.769  0.00  0.00    +0.000 C 
BRANCH  13  19
ATOM     14  C   UNL     1       8.077   5.641  19.228  0.00  0.00    +0.000 C 
ATOM     15  C   UNL     1       6.877   5.815  18.348  0.00  0.00    +0.000 A 
ATOM     16  C   UNL     1       7.032   6.091  16.993  0.00  0.00    +0.000 A 
ATOM     17  C   UNL     1       5.899   6.172  16.194  0.00  0.00    +0.000 A 
ATOM     18  C   UNL     1       4.648   5.990  16.772  0.00  0.00    +0.000 A 
ATOM     19  C   UNL     1       4.555   5.754  18.147  0.00  0.00    +0.000 A 
ATOM     20  N   UNL     1       5.662   5.645  18.931  0.00  0.00    +0.000 NA
ENDBRANCH  13  19
BRANCH  13  21
ATOM     21  C   UNL     1       2.199   4.871  17.841  0.00  0.00    +0.000 C 
ATOM     22  C   UNL     1       2.375   3.447  17.366  0.00  0.00    +0.000 C 
ATOM     23  C   UNL     1       1.334   3.761  18.401  0.00  0.00    +0.000 C 
ENDBRANCH  13  21
ENDBRANCH   1  13
TORSDOF 4
ENDMDL
MODEL 8
REMARK VINA RESULT:      -7.7      3.544      7.733
REMARK  Name = 
REMARK  7 active torsions:
REMARK  status: ('A' for Active; 'I' for Inactive)
REMARK    1  A    between atoms: C_1  and  C_2
REMARK    2  A    between atoms: C_6  and  C_7
REMARK    3  A    between atoms: C_7  and  N_8
REMARK    4  A    between atoms: C_7  and  C_19
REMARK    5  A    between atoms: C_9  and  C_11
REMARK    6  A    between atoms: C_13  and  C_14
REMARK    7  A    between atoms: C_16  and  C_17
REMARK                            x       y       z     vdW  Elec       q    Type
REMARK                         _______ _______ _______ _____ _____    ______ ____
ROOT
ATOM      1  N   UNL     1       2.780   6.080  18.748  0.00  0.00    +0.000 N 
ATOM      2  C   UNL     1       2.285   6.300  20.010  0.00  0.00    +0.000 C 
ATOM      3  O   UNL     1       2.336   5.467  20.909  0.00  0.00    +0.000 OA
ATOM      4  H   UNL     1       2.813   6.866  18.108  0.00  0.00    +0.000 HD
ENDROOT
BRANCH   2   5
ATOM      5  C   UNL     1       1.634   7.632  20.228  0.00  0.00    +0.000 A 
ATOM      6  C   UNL     1       1.693   8.561  19.208  0.00  0.00    +0.000 A 
ATOM      7  C   UNL     1       1.147   9.792  19.484  0.00  0.00    +0.000 A 
ATOM      8  C   UNL     1       1.193  10.898  18.477  0.00  0.00    +0.000 C 
ATOM      9  N   UNL     1       0.597  10.077  20.681  0.00  0.00    +0.000 NA
ATOM     10  C   UNL     1       0.588   9.107  21.618  0.00  0.00    +0.000 A 
ATOM     11  C   UNL     1       0.024   9.463  22.959  0.00  0.00    +0.000 C 
ATOM     12  N   UNL     1       1.085   7.869  21.446  0.00  0.00    +0.000 NA
ENDBRANCH   2   5
BRANCH   1  13
ATOM     13  C   UNL     1       3.376   4.816  18.356  0.00  0.00    +0.000 C 
BRANCH  13  19
ATOM     14  C   UNL     1       7.575   7.255  17.520  0.00  0.00    +0.000 C 
ATOM     15  C   UNL     1       6.630   6.168  17.109  0.00  0.00    +0.000 A 
ATOM     16  C   UNL     1       6.938   5.335  16.038  0.00  0.00    +0.000 A 
ATOM     17  C   UNL     1       6.075   4.292  15.732  0.00  0.00    +0.000 A 
ATOM     18  C   UNL     1       4.924   4.120  16.494  0.00  0.00    +0.000 A 
ATOM     19  C   UNL     1       4.649   5.014  17.533  0.00  0.00    +0.000 A 
ATOM     20  N   UNL     1       5.505   6.021  17.857  0.00  0.00    +0.000 NA
ENDBRANCH  13  19
BRANCH  13  21
ATOM     21  C   UNL     1       2.322   4.014  17.626  0.00  0.00    +0.000 C 
ATOM     22  C   UNL     1       2.299   2.503  17.596  0.00  0.00    +0.000 C 
ATOM     23  C   UNL     1       1.306   3.244  18.443  0.00  0.00    +0.000 C 
ENDBRANCH  13  21
ENDBRANCH   1  13
TORSDOF 4
ENDMDL
MODEL 9
REMARK VINA RESULT:      -7.5      0.977      1.438
REMARK  Name = 
REMARK  7 active torsions:
REMARK  status: ('A' for Active; 'I' for Inactive)
REMARK    1  A    between atoms: C_1  and  C_2
REMARK    2  A    between atoms: C_6  and  C_7
REMARK    3  A    between atoms: C_7  and  N_8
REMARK    4  A    between atoms: C_7  and  C_19
REMARK    5  A    between atoms: C_9  and  C_11
REMARK    6  A    between atoms: C_13  and  C_14
REMARK    7  A    between atoms: C_16  and  C_17
REMARK                            x       y       z     vdW  Elec       q    Type
REMARK                         _______ _______ _______ _____ _____    ______ ____
ROOT
ATOM      1  N   UNL     1       4.648   5.285  16.495  0.00  0.00    +0.000 N 
ATOM      2  C   UNL     1       5.965   4.955  16.286  0.00  0.00    +0.000 C 
ATOM      3  O   UNL     1       6.783   4.835  17.191  0.00  0.00    +0.000 OA
ATOM      4  H   UNL     1       4.016   5.235  15.704  0.00  0.00    +0.000 HD
ENDROOT
BRANCH   2   5
ATOM      5  C   UNL     1       6.369   4.776  14.853  0.00  0.00    +0.000 A 
ATOM      6  C   UNL     1       5.692   3.838  14.097  0.00  0.00    +0.000 A 
ATOM      7  C   UNL     1       6.148   3.659  12.813  0.00  0.00    +0.000 A 
ATOM      8  C   UNL     1       5.529   2.637  11.912  0.00  0.00    +0.000 C 
ATOM      9  N   UNL     1       7.198   4.350  12.325  0.00  0.00    +0.000 NA
ATOM     10  C   UNL     1       7.798   5.242  13.139  0.00  0.00    +0.000 A 
ATOM     11  C   UNL     1       8.998   5.957  12.596  0.00  0.00    +0.000 C 
ATOM     12  N   UNL     1       7.424   5.500  14.405  0.00  0.00    +0.000 NA
ENDBRANCH   2   5
BRANCH   1  13
ATOM     13  C   UNL     1       4.117   5.560  17.817  0.00  0.00    +0.000 C 
BRANCH  13  19
ATOM     14  C   UNL     1       0.671   2.187  18.831  0.00  0.00    +0.000 C 
ATOM     15  C   UNL     1       2.067   2.689  19.048  0.00  0.00    +0.000 A 
ATOM     16  C   UNL     1       2.954   1.975  19.847  0.00  0.00    +0.000 A 
ATOM     17  C   UNL     1       4.261   2.430  19.966  0.00  0.00    +0.000 A 
ATOM     18  C   UNL     1       4.637   3.589  19.296  0.00  0.00    +0.000 A 
ATOM     19  C   UNL     1       3.689   4.283  18.540  0.00  0.00    +0.000 A 
ATOM     20  N   UNL     1       2.415   3.829  18.396  0.00  0.00    +0.000 NA
ENDBRANCH  13  19
BRANCH  13  21
ATOM     21  C   UNL     1       2.989   6.557  17.664  0.00  0.00    +0.000 C 
ATOM     22  C   UNL     1       2.438   7.372  18.811  0.00  0.00    +0.000 C 
ATOM     23  C   UNL     1       3.308   8.032  17.781  0.00  0.00    +0.000 C 
ENDBRANCH  13  21
ENDBRANCH   1  13
TORSDOF 4
ENDMDL
