MODEL 1
REMARK VINA RESULT:      -7.4      0.000      0.000
REMARK  Name = 
REMARK  14 active torsions:
REMARK  status: ('A' for Active; 'I' for Inactive)
REMARK    1  A    between atoms: C_1  and  O_2
REMARK    2  A    between atoms: O_2  and  C_3
REMARK    3  A    between atoms: C_6  and  C_7
REMARK    4  A    between atoms: C_7  and  C_8
REMARK    5  A    between atoms: C_8  and  N_9
REMARK    6  A    between atoms: N_9  and  C_10
REMARK    7  A    between atoms: N_9  and  C_11
REMARK    8  A    between atoms: C_11  and  C_12
REMARK    9  A    between atoms: C_12  and  C_13
REMARK   10  A    between atoms: C_13  and  N_14
REMARK   11  A    between atoms: C_19  and  O_20
REMARK   12  A    between atoms: O_20  and  C_21
REMARK   13  A    between atoms: C_22  and  O_23
REMARK   14  A    between atoms: O_23  and  C_24
REMARK                            x       y       z     vdW  Elec       q    Type
REMARK                         _______ _______ _______ _____ _____    ______ ____
ROOT
ATOM      1  N   UNL     1       1.989   7.937  19.811  0.00  0.00    +0.000 N 
ATOM      2  C   UNL     1       1.388   8.300  21.075  0.00  0.00    +0.000 C 
ATOM      3  C   UNL     1      -0.086   8.614  20.873  0.00  0.00    +0.000 C 
ATOM      4  C   UNL     1      -0.141  10.109  20.841  0.00  0.00    +0.000 A 
ATOM      5  C   UNL     1      -0.716  10.735  21.950  0.00  0.00    +0.000 A 
ATOM      6  C   UNL     1      -0.547  12.092  22.165  0.00  0.00    +0.000 A 
ATOM      7  C   UNL     1       0.054  12.886  21.180  0.00  0.00    +0.000 A 
ATOM      8  C   UNL     1       0.600  12.267  20.035  0.00  0.00    +0.000 A 
ATOM      9  C   UNL     1       0.569  10.844  19.881  0.00  0.00    +0.000 A 
ATOM     10  C   UNL     1       1.276  10.172  18.698  0.00  0.00    +0.000 C 
ATOM     11  C   UNL     1       1.739   8.679  18.658  0.00  0.00    +0.000 C 
ATOM     12  O   UNL     1       1.948   8.172  17.548  0.00  0.00    +0.000 OA
ENDROOT
BRANCH   6  13
ATOM     13  O   UNL     1      -0.951  12.699  23.333  0.00  0.00    +0.000 OA
ATOM     14  C   UNL     1      -2.365  12.718  23.525  0.00  0.00    +0.000 C 
ENDBRANCH   6  13
BRANCH   7  15
ATOM     15  O   UNL     1       0.125  14.216  21.505  0.00  0.00    +0.000 OA
ATOM     16  C   UNL     1       1.372  14.857  21.677  0.00  0.00    +0.000 C 
ENDBRANCH   7  15
BRANCH   1  17
ATOM     17  C   UNL     1       2.615   6.594  19.778  0.00  0.00    +0.000 C 
BRANCH  17  18
ATOM     18  C   UNL     1       1.668   5.513  20.340  0.00  0.00    +0.000 C 
BRANCH  18  19
ATOM     19  C   UNL     1       1.614   4.219  19.490  0.00  0.00    +0.000 C 
BRANCH  19  20
ATOM     20  N   UNL     1       2.202   3.014  20.147  0.00  0.00    +0.000 NA
ATOM     21  C   UNL     1       2.226   3.165  21.605  0.00  0.00    +0.000 C 
BRANCH  20  22
ATOM     22  C   UNL     1       3.578   2.761  19.621  0.00  0.00    +0.000 C 
BRANCH  22  23
ATOM     23  C   UNL     1       3.738   2.900  18.085  0.00  0.00    +0.000 C 
BRANCH  23  27
ATOM     24  C   UNL     1       6.685   5.856  16.880  0.00  0.00    +0.000 A 
ATOM     25  C   UNL     1       6.438   5.600  18.230  0.00  0.00    +0.000 A 
ATOM     26  C   UNL     1       5.477   4.660  18.616  0.00  0.00    +0.000 A 
ATOM     27  C   UNL     1       4.737   3.961  17.658  0.00  0.00    +0.000 A 
ATOM     28  C   UNL     1       4.969   4.237  16.303  0.00  0.00    +0.000 A 
ATOM     29  C   UNL     1       5.936   5.178  15.918  0.00  0.00    +0.000 A 
BRANCH  24  31
ATOM     30  C   UNL     1       7.703   7.890  17.529  0.00  0.00    +0.000 C 
ATOM     31  O   UNL     1       7.651   6.787  16.632  0.00  0.00    +0.000 OA
ENDBRANCH  24  31
ENDBRANCH  23  27
ENDBRANCH  22  23
ENDBRANCH  20  22
ENDBRANCH  19  20
ENDBRANCH  18  19
ENDBRANCH  17  18
ENDBRANCH   1  17
TORSDOF 10
ENDMDL
MODEL 2
REMARK VINA RESULT:      -7.3      0.655      1.203
REMARK  Name = 
REMARK  14 active torsions:
REMARK  status: ('A' for Active; 'I' for Inactive)
REMARK    1  A    between atoms: C_1  and  O_2
REMARK    2  A    between atoms: O_2  and  C_3
REMARK    3  A    between atoms: C_6  and  C_7
REMARK    4  A    between atoms: C_7  and  C_8
REMARK    5  A    between atoms: C_8  and  N_9
REMARK    6  A    between atoms: N_9  and  C_10
REMARK    7  A    between atoms: N_9  and  C_11
REMARK    8  A    between atoms: C_11  and  C_12
REMARK    9  A    between atoms: C_12  and  C_13
REMARK   10  A    between atoms: C_13  and  N_14
REMARK   11  A    between atoms: C_19  and  O_20
REMARK   12  A    between atoms: O_20  and  C_21
REMARK   13  A    between atoms: C_22  and  O_23
REMARK   14  A    between atoms: O_23  and  C_24
REMARK                            x       y       z     vdW  Elec       q    Type
REMARK                         _______ _______ _______ _____ _____    ______ ____
ROOT
ATOM      1  N   UNL     1       1.999   7.945  19.724  0.00  0.00    +0.000 N 
ATOM      2  C   UNL     1       1.363   8.264  20.982  0.00  0.00    +0.000 C 
ATOM      3  C   UNL     1      -0.097   8.617  20.745  0.00  0.00    +0.000 C 
ATOM      4  C   UNL     1      -0.124  10.112  20.779  0.00  0.00    +0.000 A 
ATOM      5  C   UNL     1      -0.724  10.699  21.895  0.00  0.00    +0.000 A 
ATOM      6  C   UNL     1      -0.537  12.042  22.178  0.00  0.00    +0.000 A 
ATOM      7  C   UNL     1       0.112  12.867  21.249  0.00  0.00    +0.000 A 
ATOM      8  C   UNL     1       0.685  12.289  20.096  0.00  0.00    +0.000 A 
ATOM      9  C   UNL     1       0.633  10.875  19.877  0.00  0.00    +0.000 A 
ATOM     10  C   UNL     1       1.366  10.242  18.689  0.00  0.00    +0.000 C 
ATOM     11  C   UNL     1       1.803   8.743  18.597  0.00  0.00    +0.000 C 
ATOM     12  O   UNL     1       2.039   8.281  17.473  0.00  0.00    +0.000 OA
ENDROOT
BRANCH   6  13
ATOM     13  O   UNL     1      -0.969  12.605  23.358  0.00  0.00    +0.000 OA
ATOM     14  C   UNL     1      -2.388  12.696  23.479  0.00  0.00    +0.000 C 
ENDBRANCH   6  13
BRANCH   7  15
ATOM     15  O   UNL     1       0.197  14.179  21.636  0.00  0.00    +0.000 OA
ATOM     16  C   UNL     1       1.438  14.852  21.658  0.00  0.00    +0.000 C 
ENDBRANCH   7  15
BRANCH   1  17
ATOM     17  C   UNL     1       2.601   6.593  19.650  0.00  0.00    +0.000 C 
BRANCH  17  18
ATOM     18  C   UNL     1       1.861   5.594  20.564  0.00  0.00    +0.000 C 
BRANCH  18  19
ATOM     19  C   UNL     1       1.994   4.115  20.120  0.00  0.00    +0.000 C 
BRANCH  19  20
ATOM     20  N   UNL     1       1.275   3.774  18.857  0.00  0.00    +0.000 NA
ATOM     21  C   UNL     1       0.722   2.417  18.913  0.00  0.00    +0.000 C 
BRANCH  20  22
ATOM     22  C   UNL     1       2.191   3.922  17.686  0.00  0.00    +0.000 C 
BRANCH  22  23
ATOM     23  C   UNL     1       3.595   3.285  17.857  0.00  0.00    +0.000 C 
BRANCH  23  27
ATOM     24  C   UNL     1       6.809   6.123  17.153  0.00  0.00    +0.000 A 
ATOM     25  C   UNL     1       5.975   5.713  16.111  0.00  0.00    +0.000 A 
ATOM     26  C   UNL     1       4.951   4.787  16.336  0.00  0.00    +0.000 A 
ATOM     27  C   UNL     1       4.746   4.245  17.609  0.00  0.00    +0.000 A 
ATOM     28  C   UNL     1       5.601   4.639  18.648  0.00  0.00    +0.000 A 
ATOM     29  C   UNL     1       6.625   5.571  18.421  0.00  0.00    +0.000 A 
BRANCH  24  31
ATOM     30  C   UNL     1       7.831   8.205  17.615  0.00  0.00    +0.000 C 
ATOM     31  O   UNL     1       7.764   7.036  16.809  0.00  0.00    +0.000 OA
ENDBRANCH  24  31
ENDBRANCH  23  27
ENDBRANCH  22  23
ENDBRANCH  20  22
ENDBRANCH  19  20
ENDBRANCH  18  19
ENDBRANCH  17  18
ENDBRANCH   1  17
TORSDOF 10
ENDMDL
MODEL 3
REMARK VINA RESULT:      -7.2      0.813      1.226
REMARK  Name = 
REMARK  14 active torsions:
REMARK  status: ('A' for Active; 'I' for Inactive)
REMARK    1  A    between atoms: C_1  and  O_2
REMARK    2  A    between atoms: O_2  and  C_3
REMARK    3  A    between atoms: C_6  and  C_7
REMARK    4  A    between atoms: C_7  and  C_8
REMARK    5  A    between atoms: C_8  and  N_9
REMARK    6  A    between atoms: N_9  and  C_10
REMARK    7  A    between atoms: N_9  and  C_11
REMARK    8  A    between atoms: C_11  and  C_12
REMARK    9  A    between atoms: C_12  and  C_13
REMARK   10  A    between atoms: C_13  and  N_14
REMARK   11  A    between atoms: C_19  and  O_20
REMARK   12  A    between atoms: O_20  and  C_21
REMARK   13  A    between atoms: C_22  and  O_23
REMARK   14  A    between atoms: O_23  and  C_24
REMARK                            x       y       z     vdW  Elec       q    Type
REMARK                         _______ _______ _______ _____ _____    ______ ____
ROOT
ATOM      1  N   UNL     1       2.112   7.663  19.908  0.00  0.00    +0.000 N 
ATOM      2  C   UNL     1       1.544   8.374  21.031  0.00  0.00    +0.000 C 
ATOM      3  C   UNL     1       0.119   8.796  20.705  0.00  0.00    +0.000 C 
ATOM      4  C   UNL     1       0.241  10.239  20.330  0.00  0.00    +0.000 A 
ATOM      5  C   UNL     1      -0.269  11.164  21.244  0.00  0.00    +0.000 A 
ATOM      6  C   UNL     1       0.056  12.507  21.150  0.00  0.00    +0.000 A 
ATOM      7  C   UNL     1       0.758  12.979  20.033  0.00  0.00    +0.000 A 
ATOM      8  C   UNL     1       1.241  12.055  19.082  0.00  0.00    +0.000 A 
ATOM      9  C   UNL     1       1.044  10.648  19.256  0.00  0.00    +0.000 A 
ATOM     10  C   UNL     1       1.681   9.645  18.287  0.00  0.00    +0.000 C 
ATOM     11  C   UNL     1       1.965   8.141  18.607  0.00  0.00    +0.000 C 
ATOM     12  O   UNL     1       2.126   7.370  17.651  0.00  0.00    +0.000 OA
ENDROOT
BRANCH   6  13
ATOM     13  O   UNL     1      -0.288  13.410  22.131  0.00  0.00    +0.000 OA
ATOM     14  C   UNL     1      -1.316  12.956  23.011  0.00  0.00    +0.000 C 
ENDBRANCH   6  13
BRANCH   7  15
ATOM     15  O   UNL     1       0.981  14.331  20.048  0.00  0.00    +0.000 OA
ATOM     16  C   UNL     1       2.268  14.853  20.304  0.00  0.00    +0.000 C 
ENDBRANCH   7  15
BRANCH   1  17
ATOM     17  C   UNL     1       2.577   6.287  20.207  0.00  0.00    +0.000 C 
BRANCH  17  18
ATOM     18  C   UNL     1       1.392   5.334  20.467  0.00  0.00    +0.000 C 
BRANCH  18  19
ATOM     19  C   UNL     1       1.332   4.125  19.500  0.00  0.00    +0.000 C 
BRANCH  19  20
ATOM     20  N   UNL     1       1.795   2.832  20.085  0.00  0.00    +0.000 NA
ATOM     21  C   UNL     1       1.544   2.785  21.529  0.00  0.00    +0.000 C 
BRANCH  20  22
ATOM     22  C   UNL     1       3.247   2.626  19.796  0.00  0.00    +0.000 C 
BRANCH  22  23
ATOM     23  C   UNL     1       3.645   2.716  18.300  0.00  0.00    +0.000 C 
BRANCH  23  27
ATOM     24  C   UNL     1       5.940   6.275  17.327  0.00  0.00    +0.000 A 
ATOM     25  C   UNL     1       5.084   5.696  16.387  0.00  0.00    +0.000 A 
ATOM     26  C   UNL     1       4.359   4.540  16.697  0.00  0.00    +0.000 A 
ATOM     27  C   UNL     1       4.481   3.936  17.952  0.00  0.00    +0.000 A 
ATOM     28  C   UNL     1       5.359   4.505  18.885  0.00  0.00    +0.000 A 
ATOM     29  C   UNL     1       6.083   5.666  18.574  0.00  0.00    +0.000 A 
BRANCH  24  31
ATOM     30  C   UNL     1       7.782   7.734  17.600  0.00  0.00    +0.000 C 
ATOM     31  O   UNL     1       6.583   7.403  16.909  0.00  0.00    +0.000 OA
ENDBRANCH  24  31
ENDBRANCH  23  27
ENDBRANCH  22  23
ENDBRANCH  20  22
ENDBRANCH  19  20
ENDBRANCH  18  19
ENDBRANCH  17  18
ENDBRANCH   1  17
TORSDOF 10
ENDMDL
MODEL 4
REMARK VINA RESULT:      -6.9      0.851      1.016
REMARK  Name = 
REMARK  14 active torsions:
REMARK  status: ('A' for Active; 'I' for Inactive)
REMARK    1  A    between atoms: C_1  and  O_2
REMARK    2  A    between atoms: O_2  and  C_3
REMARK    3  A    between atoms: C_6  and  C_7
REMARK    4  A    between atoms: C_7  and  C_8
REMARK    5  A    between atoms: C_8  and  N_9
REMARK    6  A    between atoms: N_9  and  C_10
REMARK    7  A    between atoms: N_9  and  C_11
REMARK    8  A    between atoms: C_11  and  C_12
REMARK    9  A    between atoms: C_12  and  C_13
REMARK   10  A    between atoms: C_13  and  N_14
REMARK   11  A    between atoms: C_19  and  O_20
REMARK   12  A    between atoms: O_20  and  C_21
REMARK   13  A    between atoms: C_22  and  O_23
REMARK   14  A    between atoms: O_23  and  C_24
REMARK                            x       y       z     vdW  Elec       q    Type
REMARK                         _______ _______ _______ _____ _____    ______ ____
ROOT
ATOM      1  N   UNL     1       1.903   8.295  19.441  0.00  0.00    +0.000 N 
ATOM      2  C   UNL     1       1.238   8.633  20.679  0.00  0.00    +0.000 C 
ATOM      3  C   UNL     1      -0.130   9.229  20.383  0.00  0.00    +0.000 C 
ATOM      4  C   UNL     1       0.075  10.704  20.524  0.00  0.00    +0.000 A 
ATOM      5  C   UNL     1      -0.503  11.309  21.643  0.00  0.00    +0.000 A 
ATOM      6  C   UNL     1      -0.129  12.584  22.033  0.00  0.00    +0.000 A 
ATOM      7  C   UNL     1       0.703  13.351  21.207  0.00  0.00    +0.000 A 
ATOM      8  C   UNL     1       1.259  12.761  20.051  0.00  0.00    +0.000 A 
ATOM      9  C   UNL     1       1.002  11.391  19.727  0.00  0.00    +0.000 A 
ATOM     10  C   UNL     1       1.709  10.724  18.541  0.00  0.00    +0.000 C 
ATOM     11  C   UNL     1       1.912   9.183  18.366  0.00  0.00    +0.000 C 
ATOM     12  O   UNL     1       2.152   8.761  17.227  0.00  0.00    +0.000 OA
ENDROOT
BRANCH   6  13
ATOM     13  O   UNL     1      -0.550  13.134  23.223  0.00  0.00    +0.000 OA
ATOM     14  C   UNL     1      -1.966  13.264  23.341  0.00  0.00    +0.000 C 
ENDBRANCH   6  13
BRANCH   7  15
ATOM     15  O   UNL     1       0.965  14.605  21.693  0.00  0.00    +0.000 OA
ATOM     16  C   UNL     1       2.287  15.092  21.777  0.00  0.00    +0.000 C 
ENDBRANCH   7  15
BRANCH   1  17
ATOM     17  C   UNL     1       2.291   6.871  19.305  0.00  0.00    +0.000 C 
BRANCH  17  18
ATOM     18  C   UNL     1       2.056   6.093  20.617  0.00  0.00    +0.000 C 
BRANCH  18  19
ATOM     19  C   UNL     1       1.316   4.745  20.426  0.00  0.00    +0.000 C 
BRANCH  19  20
ATOM     20  N   UNL     1       1.929   3.833  19.416  0.00  0.00    +0.000 NA
ATOM     21  C   UNL     1       0.900   3.146  18.629  0.00  0.00    +0.000 C 
BRANCH  20  22
ATOM     22  C   UNL     1       2.822   2.842  20.091  0.00  0.00    +0.000 C 
BRANCH  22  23
ATOM     23  C   UNL     1       4.176   2.578  19.382  0.00  0.00    +0.000 C 
BRANCH  23  27
ATOM     24  C   UNL     1       5.843   5.940  17.193  0.00  0.00    +0.000 A 
ATOM     25  C   UNL     1       6.105   5.772  18.555  0.00  0.00    +0.000 A 
ATOM     26  C   UNL     1       5.553   4.698  19.261  0.00  0.00    +0.000 A 
ATOM     27  C   UNL     1       4.722   3.774  18.621  0.00  0.00    +0.000 A 
ATOM     28  C   UNL     1       4.441   3.959  17.260  0.00  0.00    +0.000 A 
ATOM     29  C   UNL     1       4.998   5.035  16.552  0.00  0.00    +0.000 A 
BRANCH  24  31
ATOM     30  C   UNL     1       7.421   7.690  17.405  0.00  0.00    +0.000 C 
ATOM     31  O   UNL     1       6.446   7.020  16.615  0.00  0.00    +0.000 OA
ENDBRANCH  24  31
ENDBRANCH  23  27
ENDBRANCH  22  23
ENDBRANCH  20  22
ENDBRANCH  19  20
ENDBRANCH  18  19
ENDBRANCH  17  18
ENDBRANCH   1  17
TORSDOF 10
ENDMDL
MODEL 5
REMARK VINA RESULT:      -6.8      1.173      1.540
REMARK  Name = 
REMARK  14 active torsions:
REMARK  status: ('A' for Active; 'I' for Inactive)
REMARK    1  A    between atoms: C_1  and  O_2
REMARK    2  A    between atoms: O_2  and  C_3
REMARK    3  A    between atoms: C_6  and  C_7
REMARK    4  A    between atoms: C_7  and  C_8
REMARK    5  A    between atoms: C_8  and  N_9
REMARK    6  A    between atoms: N_9  and  C_10
REMARK    7  A    between atoms: N_9  and  C_11
REMARK    8  A    between atoms: C_11  and  C_12
REMARK    9  A    between atoms: C_12  and  C_13
REMARK   10  A    between atoms: C_13  and  N_14
REMARK   11  A    between atoms: C_19  and  O_20
REMARK   12  A    between atoms: O_20  and  C_21
REMARK   13  A    between atoms: C_22  and  O_23
REMARK   14  A    between atoms: O_23  and  C_24
REMARK                            x       y       z     vdW  Elec       q    Type
REMARK                         _______ _______ _______ _____ _____    ______ ____
ROOT
ATOM      1  N   UNL     1       1.657   8.602  19.350  0.00  0.00    +0.000 N 
ATOM      2  C   UNL     1       0.877   8.804  20.550  0.00  0.00    +0.000 C 
ATOM      3  C   UNL     1      -0.446   9.468  20.198  0.00  0.00    +0.000 C 
ATOM      4  C   UNL     1      -0.235  10.909  20.538  0.00  0.00    +0.000 A 
ATOM      5  C   UNL     1      -0.912  11.389  21.662  0.00  0.00    +0.000 A 
ATOM      6  C   UNL     1      -0.561  12.598  22.239  0.00  0.00    +0.000 A 
ATOM      7  C   UNL     1       0.361  13.436  21.599  0.00  0.00    +0.000 A 
ATOM      8  C   UNL     1       1.020  12.977  20.438  0.00  0.00    +0.000 A 
ATOM      9  C   UNL     1       0.777  11.662  19.925  0.00  0.00    +0.000 A 
ATOM     10  C   UNL     1       1.589  11.125  18.741  0.00  0.00    +0.000 C 
ATOM     11  C   UNL     1       1.786   9.613  18.398  0.00  0.00    +0.000 C 
ATOM     12  O   UNL     1       2.132   9.324  17.244  0.00  0.00    +0.000 OA
ENDROOT
BRANCH   6  13
ATOM     13  O   UNL     1      -1.090  13.011  23.442  0.00  0.00    +0.000 OA
ATOM     14  C   UNL     1      -2.516  13.048  23.473  0.00  0.00    +0.000 C 
ENDBRANCH   6  13
BRANCH   7  15
ATOM     15  O   UNL     1       0.590  14.616  22.258  0.00  0.00    +0.000 OA
ATOM     16  C   UNL     1       0.057  15.833  21.780  0.00  0.00    +0.000 C 
ENDBRANCH   7  15
BRANCH   1  17
ATOM     17  C   UNL     1       2.036   7.194  19.078  0.00  0.00    +0.000 C 
BRANCH  17  18
ATOM     18  C   UNL     1       2.071   6.358  20.374  0.00  0.00    +0.000 C 
BRANCH  18  19
ATOM     19  C   UNL     1       2.495   4.883  20.161  0.00  0.00    +0.000 C 
BRANCH  19  20
ATOM     20  N   UNL     1       2.102   4.303  18.842  0.00  0.00    +0.000 NA
ATOM     21  C   UNL     1       1.092   3.253  19.005  0.00  0.00    +0.000 C 
BRANCH  20  22
ATOM     22  C   UNL     1       3.306   3.770  18.135  0.00  0.00    +0.000 C 
BRANCH  22  23
ATOM     23  C   UNL     1       4.640   3.881  18.917  0.00  0.00    +0.000 C 
BRANCH  23  27
ATOM     24  C   UNL     1       7.192   7.136  17.589  0.00  0.00    +0.000 A 
ATOM     25  C   UNL     1       5.958   6.901  16.980  0.00  0.00    +0.000 A 
ATOM     26  C   UNL     1       5.145   5.842  17.399  0.00  0.00    +0.000 A 
ATOM     27  C   UNL     1       5.555   4.992  18.431  0.00  0.00    +0.000 A 
ATOM     28  C   UNL     1       6.805   5.215  19.023  0.00  0.00    +0.000 A 
ATOM     29  C   UNL     1       7.618   6.280  18.605  0.00  0.00    +0.000 A 
BRANCH  24  31
ATOM     30  C   UNL     1       8.295   9.177  18.052  0.00  0.00    +0.000 C 
ATOM     31  O   UNL     1       7.888   8.204  17.099  0.00  0.00    +0.000 OA
ENDBRANCH  24  31
ENDBRANCH  23  27
ENDBRANCH  22  23
ENDBRANCH  20  22
ENDBRANCH  19  20
ENDBRANCH  18  19
ENDBRANCH  17  18
ENDBRANCH   1  17
TORSDOF 10
ENDMDL
MODEL 6
REMARK VINA RESULT:      -6.8      2.981      3.903
REMARK  Name = 
REMARK  14 active torsions:
REMARK  status: ('A' for Active; 'I' for Inactive)
REMARK    1  A    between atoms: C_1  and  O_2
REMARK    2  A    between atoms: O_2  and  C_3
REMARK    3  A    between atoms: C_6  and  C_7
REMARK    4  A    between atoms: C_7  and  C_8
REMARK    5  A    between atoms: C_8  and  N_9
REMARK    6  A    between atoms: N_9  and  C_10
REMARK    7  A    between atoms: N_9  and  C_11
REMARK    8  A    between atoms: C_11  and  C_12
REMARK    9  A    between atoms: C_12  and  C_13
REMARK   10  A    between atoms: C_13  and  N_14
REMARK   11  A    between atoms: C_19  and  O_20
REMARK   12  A    between atoms: O_20  and  C_21
REMARK   13  A    between atoms: C_22  and  O_23
REMARK   14  A    between atoms: O_23  and  C_24
REMARK                            x       y       z     vdW  Elec       q    Type
REMARK                         _______ _______ _______ _____ _____    ______ ____
ROOT
ATOM      1  N   UNL     1       0.667   9.171  20.453  0.00  0.00    +0.000 N 
ATOM      2  C   UNL     1       0.078   8.784  19.191  0.00  0.00    +0.000 C 
ATOM      3  C   UNL     1       0.324   9.870  18.154  0.00  0.00    +0.000 C 
ATOM      4  C   UNL     1      -0.966  10.625  18.100  0.00  0.00    +0.000 A 
ATOM      5  C   UNL     1      -1.739  10.456  16.949  0.00  0.00    +0.000 A 
ATOM      6  C   UNL     1      -3.066  10.852  16.921  0.00  0.00    +0.000 A 
ATOM      7  C   UNL     1      -3.597  11.589  17.987  0.00  0.00    +0.000 A 
ATOM      8  C   UNL     1      -2.809  11.802  19.138  0.00  0.00    +0.000 A 
ATOM      9  C   UNL     1      -1.489  11.257  19.238  0.00  0.00    +0.000 A 
ATOM     10  C   UNL     1      -0.688  11.384  20.539  0.00  0.00    +0.000 C 
ATOM     11  C   UNL     1       0.501  10.460  20.958  0.00  0.00    +0.000 C 
ATOM     12  O   UNL     1       1.283  10.884  21.820  0.00  0.00    +0.000 OA
ENDROOT
BRANCH   6  13
ATOM     13  O   UNL     1      -3.896  10.541  15.867  0.00  0.00    +0.000 OA
ATOM     14  C   UNL     1      -3.212  10.162  14.673  0.00  0.00    +0.000 C 
ENDBRANCH   6  13
BRANCH   7  15
ATOM     15  O   UNL     1      -4.909  11.949  17.815  0.00  0.00    +0.000 OA
ATOM     16  C   UNL     1      -5.658  12.501  18.877  0.00  0.00    +0.000 C 
ENDBRANCH   7  15
BRANCH   1  17
ATOM     17  C   UNL     1       1.673   8.224  20.992  0.00  0.00    +0.000 C 
BRANCH  17  18
ATOM     18  C   UNL     1       1.933   7.059  20.015  0.00  0.00    +0.000 C 
BRANCH  18  19
ATOM     19  C   UNL     1       1.862   5.658  20.673  0.00  0.00    +0.000 C 
BRANCH  19  20
ATOM     20  N   UNL     1       1.742   4.521  19.713  0.00  0.00    +0.000 NA
ATOM     21  C   UNL     1       0.747   3.545  20.170  0.00  0.00    +0.000 C 
BRANCH  20  22
ATOM     22  C   UNL     1       3.072   3.866  19.521  0.00  0.00    +0.000 C 
BRANCH  22  23
ATOM     23  C   UNL     1       3.598   3.849  18.063  0.00  0.00    +0.000 C 
BRANCH  23  27
ATOM     24  C   UNL     1       6.779   6.673  17.175  0.00  0.00    +0.000 A 
ATOM     25  C   UNL     1       7.070   5.390  17.646  0.00  0.00    +0.000 A 
ATOM     26  C   UNL     1       6.044   4.489  17.947  0.00  0.00    +0.000 A 
ATOM     27  C   UNL     1       4.704   4.854  17.790  0.00  0.00    +0.000 A 
ATOM     28  C   UNL     1       4.414   6.149  17.340  0.00  0.00    +0.000 A 
ATOM     29  C   UNL     1       5.444   7.052  17.035  0.00  0.00    +0.000 A 
BRANCH  24  31
ATOM     30  C   UNL     1       8.036   8.594  17.743  0.00  0.00    +0.000 C 
ATOM     31  O   UNL     1       7.865   7.455  16.909  0.00  0.00    +0.000 OA
ENDBRANCH  24  31
ENDBRANCH  23  27
ENDBRANCH  22  23
ENDBRANCH  20  22
ENDBRANCH  19  20
ENDBRANCH  18  19
ENDBRANCH  17  18
ENDBRANCH   1  17
TORSDOF 10
ENDMDL
MODEL 7
REMARK VINA RESULT:      -6.8      1.172      1.634
REMARK  Name = 
REMARK  14 active torsions:
REMARK  status: ('A' for Active; 'I' for Inactive)
REMARK    1  A    between atoms: C_1  and  O_2
REMARK    2  A    between atoms: O_2  and  C_3
REMARK    3  A    between atoms: C_6  and  C_7
REMARK    4  A    between atoms: C_7  and  C_8
REMARK    5  A    between atoms: C_8  and  N_9
REMARK    6  A    between atoms: N_9  and  C_10
REMARK    7  A    between atoms: N_9  and  C_11
REMARK    8  A    between atoms: C_11  and  C_12
REMARK    9  A    between atoms: C_12  and  C_13
REMARK   10  A    between atoms: C_13  and  N_14
REMARK   11  A    between atoms: C_19  and  O_20
REMARK   12  A    between atoms: O_20  and  C_21
REMARK   13  A    between atoms: C_22  and  O_23
REMARK   14  A    between atoms: O_23  and  C_24
REMARK                            x       y       z     vdW  Elec       q    Type
REMARK                         _______ _______ _______ _____ _____    ______ ____
ROOT
ATOM      1  N   UNL     1       2.126   7.737  19.906  0.00  0.00    +0.000 N 
ATOM      2  C   UNL     1       1.315   8.456  20.863  0.00  0.00    +0.000 C 
ATOM      3  C   UNL     1      -0.069   8.703  20.282  0.00  0.00    +0.000 C 
ATOM      4  C   UNL     1      -0.022  10.123  19.816  0.00  0.00    +0.000 A 
ATOM      5  C   UNL     1      -0.761  11.047  20.558  0.00  0.00    +0.000 A 
ATOM      6  C   UNL     1      -0.552  12.408  20.408  0.00  0.00    +0.000 A 
ATOM      7  C   UNL     1       0.279  12.877  19.382  0.00  0.00    +0.000 A 
ATOM      8  C   UNL     1       0.997  11.949  18.598  0.00  0.00    +0.000 A 
ATOM      9  C   UNL     1       0.907  10.544  18.853  0.00  0.00    +0.000 A 
ATOM     10  C   UNL     1       1.786   9.553  18.081  0.00  0.00    +0.000 C 
ATOM     11  C   UNL     1       2.153   8.112  18.563  0.00  0.00    +0.000 C 
ATOM     12  O   UNL     1       2.541   7.301  17.711  0.00  0.00    +0.000 OA
ENDROOT
BRANCH   6  13
ATOM     13  O   UNL     1      -1.136  13.331  21.246  0.00  0.00    +0.000 OA
ATOM     14  C   UNL     1      -0.517  13.435  22.527  0.00  0.00    +0.000 C 
ENDBRANCH   6  13
BRANCH   7  15
ATOM     15  O   UNL     1       0.369  14.244  19.323  0.00  0.00    +0.000 OA
ATOM     16  C   UNL     1       1.623  14.886  19.226  0.00  0.00    +0.000 C 
ENDBRANCH   7  15
BRANCH   1  17
ATOM     17  C   UNL     1       2.660   6.440  20.386  0.00  0.00    +0.000 C 
BRANCH  17  18
ATOM     18  C   UNL     1       1.538   5.396  20.563  0.00  0.00    +0.000 C 
BRANCH  18  19
ATOM     19  C   UNL     1       1.908   3.981  20.053  0.00  0.00    +0.000 C 
BRANCH  19  20
ATOM     20  N   UNL     1       1.226   3.573  18.789  0.00  0.00    +0.000 NA
ATOM     21  C   UNL     1       0.965   2.130  18.771  0.00  0.00    +0.000 C 
BRANCH  20  22
ATOM     22  C   UNL     1       2.049   3.974  17.607  0.00  0.00    +0.000 C 
BRANCH  22  23
ATOM     23  C   UNL     1       3.405   3.236  17.461  0.00  0.00    +0.000 C 
BRANCH  23  27
ATOM     24  C   UNL     1       6.761   5.972  17.108  0.00  0.00    +0.000 A 
ATOM     25  C   UNL     1       5.870   5.790  16.047  0.00  0.00    +0.000 A 
ATOM     26  C   UNL     1       4.800   4.896  16.157  0.00  0.00    +0.000 A 
ATOM     27  C   UNL     1       4.603   4.159  17.329  0.00  0.00    +0.000 A 
ATOM     28  C   UNL     1       5.513   4.325  18.383  0.00  0.00    +0.000 A 
ATOM     29  C   UNL     1       6.584   5.225  18.272  0.00  0.00    +0.000 A 
BRANCH  24  31
ATOM     30  C   UNL     1       7.608   8.143  17.512  0.00  0.00    +0.000 C 
ATOM     31  O   UNL     1       7.757   6.877  16.881  0.00  0.00    +0.000 OA
ENDBRANCH  24  31
ENDBRANCH  23  27
ENDBRANCH  22  23
ENDBRANCH  20  22
ENDBRANCH  19  20
ENDBRANCH  18  19
ENDBRANCH  17  18
ENDBRANCH   1  17
TORSDOF 10
ENDMDL
MODEL 8
REMARK VINA RESULT:      -6.7      1.917      8.458
REMARK  Name = 
REMARK  14 active torsions:
REMARK  status: ('A' for Active; 'I' for Inactive)
REMARK    1  A    between atoms: C_1  and  O_2
REMARK    2  A    between atoms: O_2  and  C_3
REMARK    3  A    between atoms: C_6  and  C_7
REMARK    4  A    between atoms: C_7  and  C_8
REMARK    5  A    between atoms: C_8  and  N_9
REMARK    6  A    between atoms: N_9  and  C_10
REMARK    7  A    between atoms: N_9  and  C_11
REMARK    8  A    between atoms: C_11  and  C_12
REMARK    9  A    between atoms: C_12  and  C_13
REMARK   10  A    between atoms: C_13  and  N_14
REMARK   11  A    between atoms: C_19  and  O_20
REMARK   12  A    between atoms: O_20  and  C_21
REMARK   13  A    between atoms: C_22  and  O_23
REMARK   14  A    between atoms: O_23  and  C_24
REMARK                            x       y       z     vdW  Elec       q    Type
REMARK                         _______ _______ _______ _____ _____    ______ ____
ROOT
ATOM      1  N   UNL     1       4.063   2.708  19.427  0.00  0.00    +0.000 N 
ATOM      2  C   UNL     1       4.934   3.844  19.625  0.00  0.00    +0.000 C 
ATOM      3  C   UNL     1       4.337   5.072  18.954  0.00  0.00    +0.000 C 
ATOM      4  C   UNL     1       5.092   5.190  17.668  0.00  0.00    +0.000 A 
ATOM      5  C   UNL     1       6.001   6.247  17.574  0.00  0.00    +0.000 A 
ATOM      6  C   UNL     1       6.958   6.273  16.573  0.00  0.00    +0.000 A 
ATOM      7  C   UNL     1       6.912   5.329  15.538  0.00  0.00    +0.000 A 
ATOM      8  C   UNL     1       5.969   4.281  15.603  0.00  0.00    +0.000 A 
ATOM      9  C   UNL     1       5.080   4.158  16.718  0.00  0.00    +0.000 A 
ATOM     10  C   UNL     1       4.147   2.947  16.843  0.00  0.00    +0.000 C 
ATOM     11  C   UNL     1       3.511   2.436  18.176  0.00  0.00    +0.000 C 
ATOM     12  O   UNL     1       2.512   1.708  18.094  0.00  0.00    +0.000 OA
ENDROOT
BRANCH   6  13
ATOM     13  O   UNL     1       7.971   7.206  16.559  0.00  0.00    +0.000 OA
ATOM     14  C   UNL     1       7.895   8.170  17.608  0.00  0.00    +0.000 C 
ENDBRANCH   6  13
BRANCH   7  15
ATOM     15  O   UNL     1       7.893   5.491  14.595  0.00  0.00    +0.000 OA
ATOM     16  C   UNL     1       7.689   5.092  13.256  0.00  0.00    +0.000 C 
ENDBRANCH   7  15
BRANCH   1  17
ATOM     17  C   UNL     1       3.580   2.063  20.671  0.00  0.00    +0.000 C 
BRANCH  17  18
ATOM     18  C   UNL     1       2.697   3.020  21.498  0.00  0.00    +0.000 C 
BRANCH  18  19
ATOM     19  C   UNL     1       1.222   3.083  21.026  0.00  0.00    +0.000 C 
BRANCH  19  20
ATOM     20  N   UNL     1       0.818   4.381  20.411  0.00  0.00    +0.000 NA
ATOM     21  C   UNL     1       0.954   4.341  18.952  0.00  0.00    +0.000 C 
BRANCH  20  22
ATOM     22  C   UNL     1       1.628   5.499  20.985  0.00  0.00    +0.000 C 
BRANCH  22  23
ATOM     23  C   UNL     1       1.931   6.667  20.011  0.00  0.00    +0.000 C 
BRANCH  23  27
ATOM     24  C   UNL     1       0.250  10.483  21.232  0.00  0.00    +0.000 A 
ATOM     25  C   UNL     1       0.855  10.334  19.982  0.00  0.00    +0.000 A 
ATOM     26  C   UNL     1       1.410   9.109  19.597  0.00  0.00    +0.000 A 
ATOM     27  C   UNL     1       1.379   8.009  20.460  0.00  0.00    +0.000 A 
ATOM     28  C   UNL     1       0.794   8.168  21.724  0.00  0.00    +0.000 A 
ATOM     29  C   UNL     1       0.234   9.396  22.107  0.00  0.00    +0.000 A 
BRANCH  24  31
ATOM     30  C   UNL     1      -1.527  12.009  20.903  0.00  0.00    +0.000 C 
ATOM     31  O   UNL     1      -0.262  11.722  21.486  0.00  0.00    +0.000 OA
ENDBRANCH  24  31
ENDBRANCH  23  27
ENDBRANCH  22  23
ENDBRANCH  20  22
ENDBRANCH  19  20
ENDBRANCH  18  19
ENDBRANCH  17  18
ENDBRANCH   1  17
TORSDOF 10
ENDMDL
MODEL 9
REMARK VINA RESULT:      -6.7      1.387      1.960
REMARK  Name = 
REMARK  14 active torsions:
REMARK  status: ('A' for Active; 'I' for Inactive)
REMARK    1  A    between atoms: C_1  and  O_2
REMARK    2  A    between atoms: O_2  and  C_3
REMARK    3  A    between atoms: C_6  and  C_7
REMARK    4  A    between atoms: C_7  and  C_8
REMARK    5  A    between atoms: C_8  and  N_9
REMARK    6  A    between atoms: N_9  and  C_10
REMARK    7  A    between atoms: N_9  and  C_11
REMARK    8  A    between atoms: C_11  and  C_12
REMARK    9  A    between atoms: C_12  and  C_13
REMARK   10  A    between atoms: C_13  and  N_14
REMARK   11  A    between atoms: C_19  and  O_20
REMARK   12  A    between atoms: O_20  and  C_21
REMARK   13  A    between atoms: C_22  and  O_23
REMARK   14  A    between atoms: O_23  and  C_24
REMARK                            x       y       z     vdW  Elec       q    Type
REMARK                         _______ _______ _______ _____ _____    ______ ____
ROOT
ATOM      1  N   UNL     1       2.290   7.337  19.851  0.00  0.00    +0.000 N 
ATOM      2  C   UNL     1       1.547   8.267  20.671  0.00  0.00    +0.000 C 
ATOM      3  C   UNL     1       0.262   8.665  19.961  0.00  0.00    +0.000 C 
ATOM      4  C   UNL     1       0.568  10.005  19.372  0.00  0.00    +0.000 A 
ATOM      5  C   UNL     1      -0.057  11.104  19.966  0.00  0.00    +0.000 A 
ATOM      6  C   UNL     1       0.379  12.393  19.709  0.00  0.00    +0.000 A 
ATOM      7  C   UNL     1       1.339  12.620  18.714  0.00  0.00    +0.000 A 
ATOM      8  C   UNL     1       1.946  11.516  18.078  0.00  0.00    +0.000 A 
ATOM      9  C   UNL     1       1.613  10.175  18.452  0.00  0.00    +0.000 A 
ATOM     10  C   UNL     1       2.368   8.986  17.847  0.00  0.00    +0.000 C 
ATOM     11  C   UNL     1       2.464   7.563  18.486  0.00  0.00    +0.000 C 
ATOM     12  O   UNL     1       2.770   6.619  17.745  0.00  0.00    +0.000 OA
ENDROOT
BRANCH   6  13
ATOM     13  O   UNL     1      -0.101  13.477  20.410  0.00  0.00    +0.000 OA
ATOM     14  C   UNL     1       0.203  13.455  21.804  0.00  0.00    +0.000 C 
ENDBRANCH   6  13
BRANCH   7  15
ATOM     15  O   UNL     1       1.653  13.943  18.538  0.00  0.00    +0.000 OA
ATOM     16  C   UNL     1       2.958  14.420  18.791  0.00  0.00    +0.000 C 
ENDBRANCH   7  15
BRANCH   1  17
ATOM     17  C   UNL     1       2.576   6.029  20.488  0.00  0.00    +0.000 C 
BRANCH  17  18
ATOM     18  C   UNL     1       1.303   5.164  20.598  0.00  0.00    +0.000 C 
BRANCH  18  19
ATOM     19  C   UNL     1       1.220   4.029  19.547  0.00  0.00    +0.000 C 
BRANCH  19  20
ATOM     20  N   UNL     1       1.802   2.726  19.986  0.00  0.00    +0.000 NA
ATOM     21  C   UNL     1       2.030   2.709  21.434  0.00  0.00    +0.000 C 
BRANCH  20  22
ATOM     22  C   UNL     1       3.074   2.456  19.250  0.00  0.00    +0.000 C 
BRANCH  22  23
ATOM     23  C   UNL     1       4.273   3.357  19.644  0.00  0.00    +0.000 C 
BRANCH  23  27
ATOM     24  C   UNL     1       6.441   5.028  16.270  0.00  0.00    +0.000 A 
ATOM     25  C   UNL     1       6.858   5.272  17.580  0.00  0.00    +0.000 A 
ATOM     26  C   UNL     1       6.149   4.747  18.666  0.00  0.00    +0.000 A 
ATOM     27  C   UNL     1       5.002   3.972  18.462  0.00  0.00    +0.000 A 
ATOM     28  C   UNL     1       4.572   3.750  17.147  0.00  0.00    +0.000 A 
ATOM     29  C   UNL     1       5.286   4.275  16.059  0.00  0.00    +0.000 A 
BRANCH  24  31
ATOM     30  C   UNL     1       7.244   4.911  14.048  0.00  0.00    +0.000 C 
ATOM     31  O   UNL     1       7.220   5.587  15.299  0.00  0.00    +0.000 OA
ENDBRANCH  24  31
ENDBRANCH  23  27
ENDBRANCH  22  23
ENDBRANCH  20  22
ENDBRANCH  19  20
ENDBRANCH  18  19
ENDBRANCH  17  18
ENDBRANCH   1  17
TORSDOF 10
ENDMDL
