MODEL 1
REMARK VINA RESULT:      -6.3      0.000      0.000
REMARK  Name = 
REMARK  6 active torsions:
REMARK  status: ('A' for Active; 'I' for Inactive)
REMARK    1  A    between atoms: C_1  and  C_2
REMARK    2  A    between atoms: C_2  and  C_3
REMARK    3  A    between atoms: C_3  and  C_4
REMARK    4  A    between atoms: C_3  and  N_5
REMARK    5  A    between atoms: N_10  and  C_11
REMARK    6  A    between atoms: N_10  and  C_12
REMARK                            x       y       z     vdW  Elec       q    Type
REMARK                         _______ _______ _______ _____ _____    ______ ____
ROOT
ATOM      1  N   UNL     1       3.066   3.936  19.970  0.00  0.00    +0.000 N 
ATOM      2  C   UNL     1       4.149   3.102  20.037  0.00  0.00    +0.000 A 
ATOM      3  N   UNL     1       5.173   3.577  19.368  0.00  0.00    +0.000 NA
ATOM      4  C   UNL     1       4.746   4.781  18.829  0.00  0.00    +0.000 A 
ATOM      5  C   UNL     1       5.380   5.761  18.013  0.00  0.00    +0.000 A 
ATOM      6  N   UNL     1       6.674   5.702  17.517  0.00  0.00    +0.000 N 
ATOM      7  C   UNL     1       7.584   4.601  17.778  0.00  0.00    +0.000 C 
ATOM      8  C   UNL     1       7.223   6.830  16.782  0.00  0.00    +0.000 C 
ATOM      9  N   UNL     1       4.611   6.850  17.690  0.00  0.00    +0.000 NA
ATOM     10  C   UNL     1       3.339   6.939  18.124  0.00  0.00    +0.000 A 
ATOM     11  N   UNL     1       2.657   6.066  18.879  0.00  0.00    +0.000 NA
ATOM     12  C   UNL     1       3.424   5.013  19.199  0.00  0.00    +0.000 A 
ENDROOT
BRANCH   1  13
ATOM     13  C   UNL     1       1.783   3.688  20.619  0.00  0.00    +0.000 C 
ATOM     14  C   UNL     1       1.907   2.631  21.719  0.00  0.00    +0.000 C 
BRANCH  13  16
ATOM     15  C   UNL     1       1.017   2.224  18.665  0.00  0.00    +0.000 C 
ATOM     16  C   UNL     1       0.677   3.382  19.593  0.00  0.00    +0.000 C 
ENDBRANCH  13  16
ENDBRANCH   1  13
TORSDOF 2
ENDMDL
MODEL 2
REMARK VINA RESULT:      -6.1      1.459      5.247
REMARK  Name = 
REMARK  6 active torsions:
REMARK  status: ('A' for Active; 'I' for Inactive)
REMARK    1  A    between atoms: C_1  and  C_2
REMARK    2  A    between atoms: C_2  and  C_3
REMARK    3  A    between atoms: C_3  and  C_4
REMARK    4  A    between atoms: C_3  and  N_5
REMARK    5  A    between atoms: N_10  and  C_11
REMARK    6  A    between atoms: N_10  and  C_12
REMARK                            x       y       z     vdW  Elec       q    Type
REMARK                         _______ _______ _______ _____ _____    ______ ____
ROOT
ATOM      1  N   UNL     1       5.334   5.742  17.953  0.00  0.00    +0.000 N 
ATOM      2  C   UNL     1       5.995   4.579  18.244  0.00  0.00    +0.000 A 
ATOM      3  N   UNL     1       5.313   3.823  19.071  0.00  0.00    +0.000 NA
ATOM      4  C   UNL     1       4.146   4.520  19.344  0.00  0.00    +0.000 A 
ATOM      5  C   UNL     1       3.013   4.239  20.160  0.00  0.00    +0.000 A 
ATOM      6  N   UNL     1       2.830   3.113  20.948  0.00  0.00    +0.000 N 
ATOM      7  C   UNL     1       3.798   2.034  21.043  0.00  0.00    +0.000 C 
ATOM      8  C   UNL     1       1.571   2.911  21.648  0.00  0.00    +0.000 C 
ATOM      9  N   UNL     1       2.030   5.195  20.158  0.00  0.00    +0.000 NA
ATOM     10  C   UNL     1       2.175   6.320  19.431  0.00  0.00    +0.000 A 
ATOM     11  N   UNL     1       3.204   6.676  18.649  0.00  0.00    +0.000 NA
ATOM     12  C   UNL     1       4.152   5.726  18.649  0.00  0.00    +0.000 A 
ENDROOT
BRANCH   1  13
ATOM     13  C   UNL     1       5.830   6.780  17.056  0.00  0.00    +0.000 C 
ATOM     14  C   UNL     1       5.273   6.610  15.640  0.00  0.00    +0.000 C 
BRANCH  13  16
ATOM     15  C   UNL     1       7.864   8.170  17.752  0.00  0.00    +0.000 C 
ATOM     16  C   UNL     1       7.366   6.885  17.104  0.00  0.00    +0.000 C 
ENDBRANCH  13  16
ENDBRANCH   1  13
TORSDOF 2
ENDMDL
MODEL 3
REMARK VINA RESULT:      -6.1      0.710      1.451
REMARK  Name = 
REMARK  6 active torsions:
REMARK  status: ('A' for Active; 'I' for Inactive)
REMARK    1  A    between atoms: C_1  and  C_2
REMARK    2  A    between atoms: C_2  and  C_3
REMARK    3  A    between atoms: C_3  and  C_4
REMARK    4  A    between atoms: C_3  and  N_5
REMARK    5  A    between atoms: N_10  and  C_11
REMARK    6  A    between atoms: N_10  and  C_12
REMARK                            x       y       z     vdW  Elec       q    Type
REMARK                         _______ _______ _______ _____ _____    ______ ____
ROOT
ATOM      1  N   UNL     1       3.178   3.303  19.322  0.00  0.00    +0.000 N 
ATOM      2  C   UNL     1       4.390   2.743  19.623  0.00  0.00    +0.000 A 
ATOM      3  N   UNL     1       5.388   3.516  19.265  0.00  0.00    +0.000 NA
ATOM      4  C   UNL     1       4.809   4.640  18.696  0.00  0.00    +0.000 A 
ATOM      5  C   UNL     1       5.348   5.827  18.121  0.00  0.00    +0.000 A 
ATOM      6  N   UNL     1       6.693   6.127  17.972  0.00  0.00    +0.000 N 
ATOM      7  C   UNL     1       7.764   5.246  18.403  0.00  0.00    +0.000 C 
ATOM      8  C   UNL     1       7.096   7.428  17.462  0.00  0.00    +0.000 C 
ATOM      9  N   UNL     1       4.427   6.735  17.667  0.00  0.00    +0.000 NA
ATOM     10  C   UNL     1       3.108   6.476  17.763  0.00  0.00    +0.000 A 
ATOM     11  N   UNL     1       2.512   5.388  18.272  0.00  0.00    +0.000 NA
ATOM     12  C   UNL     1       3.423   4.514  18.725  0.00  0.00    +0.000 A 
ENDROOT
BRANCH   1  13
ATOM     13  C   UNL     1       1.884   2.692  19.606  0.00  0.00    +0.000 C 
ATOM     14  C   UNL     1       1.001   2.643  18.356  0.00  0.00    +0.000 C 
BRANCH  13  16
ATOM     15  C   UNL     1       1.557   2.698  22.145  0.00  0.00    +0.000 C 
ATOM     16  C   UNL     1       1.199   3.351  20.818  0.00  0.00    +0.000 C 
ENDBRANCH  13  16
ENDBRANCH   1  13
TORSDOF 2
ENDMDL
MODEL 4
REMARK VINA RESULT:      -5.9      2.185      3.040
REMARK  Name = 
REMARK  6 active torsions:
REMARK  status: ('A' for Active; 'I' for Inactive)
REMARK    1  A    between atoms: C_1  and  C_2
REMARK    2  A    between atoms: C_2  and  C_3
REMARK    3  A    between atoms: C_3  and  C_4
REMARK    4  A    between atoms: C_3  and  N_5
REMARK    5  A    between atoms: N_10  and  C_11
REMARK    6  A    between atoms: N_10  and  C_12
REMARK                            x       y       z     vdW  Elec       q    Type
REMARK                         _______ _______ _______ _____ _____    ______ ____
ROOT
ATOM      1  N   UNL     1       4.092   3.971  18.686  0.00  0.00    +0.000 N 
ATOM      2  C   UNL     1       3.300   3.645  17.619  0.00  0.00    +0.000 A 
ATOM      3  N   UNL     1       3.932   3.792  16.478  0.00  0.00    +0.000 NA
ATOM      4  C   UNL     1       5.202   4.241  16.806  0.00  0.00    +0.000 A 
ATOM      5  C   UNL     1       6.343   4.584  16.026  0.00  0.00    +0.000 A 
ATOM      6  N   UNL     1       6.427   4.562  14.643  0.00  0.00    +0.000 N 
ATOM      7  C   UNL     1       5.329   4.169  13.778  0.00  0.00    +0.000 C 
ATOM      8  C   UNL     1       7.695   4.837  13.986  0.00  0.00    +0.000 C 
ATOM      9  N   UNL     1       7.447   4.982  16.736  0.00  0.00    +0.000 NA
ATOM     10  C   UNL     1       7.406   5.047  18.082  0.00  0.00    +0.000 A 
ATOM     11  N   UNL     1       6.379   4.760  18.895  0.00  0.00    +0.000 NA
ATOM     12  C   UNL     1       5.311   4.359  18.189  0.00  0.00    +0.000 A 
ENDROOT
BRANCH   1  13
ATOM     13  C   UNL     1       3.679   3.899  20.084  0.00  0.00    +0.000 C 
ATOM     14  C   UNL     1       3.386   2.457  20.508  0.00  0.00    +0.000 C 
BRANCH  13  16
ATOM     15  C   UNL     1       1.185   4.185  20.582  0.00  0.00    +0.000 C 
ATOM     16  C   UNL     1       2.527   4.875  20.385  0.00  0.00    +0.000 C 
ENDBRANCH  13  16
ENDBRANCH   1  13
TORSDOF 2
ENDMDL
MODEL 5
REMARK VINA RESULT:      -5.9      2.538      5.533
REMARK  Name = 
REMARK  6 active torsions:
REMARK  status: ('A' for Active; 'I' for Inactive)
REMARK    1  A    between atoms: C_1  and  C_2
REMARK    2  A    between atoms: C_2  and  C_3
REMARK    3  A    between atoms: C_3  and  C_4
REMARK    4  A    between atoms: C_3  and  N_5
REMARK    5  A    between atoms: N_10  and  C_11
REMARK    6  A    between atoms: N_10  and  C_12
REMARK                            x       y       z     vdW  Elec       q    Type
REMARK                         _______ _______ _______ _____ _____    ______ ____
ROOT
ATOM      1  N   UNL     1       5.225   4.841  15.993  0.00  0.00    +0.000 N 
ATOM      2  C   UNL     1       5.080   6.196  16.124  0.00  0.00    +0.000 A 
ATOM      3  N   UNL     1       4.288   6.508  17.123  0.00  0.00    +0.000 NA
ATOM      4  C   UNL     1       3.886   5.302  17.676  0.00  0.00    +0.000 A 
ATOM      5  C   UNL     1       3.035   4.969  18.769  0.00  0.00    +0.000 A 
ATOM      6  N   UNL     1       2.344   5.864  19.572  0.00  0.00    +0.000 N 
ATOM      7  C   UNL     1       2.404   7.305  19.402  0.00  0.00    +0.000 C 
ATOM      8  C   UNL     1       1.595   5.382  20.721  0.00  0.00    +0.000 C 
ATOM      9  N   UNL     1       2.893   3.629  19.022  0.00  0.00    +0.000 NA
ATOM     10  C   UNL     1       3.522   2.719  18.252  0.00  0.00    +0.000 A 
ATOM     11  N   UNL     1       4.325   2.936  17.200  0.00  0.00    +0.000 NA
ATOM     12  C   UNL     1       4.467   4.251  16.972  0.00  0.00    +0.000 A 
ENDROOT
BRANCH   1  13
ATOM     13  C   UNL     1       6.050   4.185  14.984  0.00  0.00    +0.000 C 
ATOM     14  C   UNL     1       7.378   4.920  14.783  0.00  0.00    +0.000 C 
BRANCH  13  16
ATOM     15  C   UNL     1       6.144   3.463  12.531  0.00  0.00    +0.000 C 
ATOM     16  C   UNL     1       5.271   3.953  13.677  0.00  0.00    +0.000 C 
ENDBRANCH  13  16
ENDBRANCH   1  13
TORSDOF 2
ENDMDL
MODEL 6
REMARK VINA RESULT:      -5.9      2.107      5.513
REMARK  Name = 
REMARK  6 active torsions:
REMARK  status: ('A' for Active; 'I' for Inactive)
REMARK    1  A    between atoms: C_1  and  C_2
REMARK    2  A    between atoms: C_2  and  C_3
REMARK    3  A    between atoms: C_3  and  C_4
REMARK    4  A    between atoms: C_3  and  N_5
REMARK    5  A    between atoms: N_10  and  C_11
REMARK    6  A    between atoms: N_10  and  C_12
REMARK                            x       y       z     vdW  Elec       q    Type
REMARK                         _______ _______ _______ _____ _____    ______ ____
ROOT
ATOM      1  N   UNL     1       5.115   4.674  17.187  0.00  0.00    +0.000 N 
ATOM      2  C   UNL     1       4.805   5.836  17.840  0.00  0.00    +0.000 A 
ATOM      3  N   UNL     1       3.915   5.644  18.784  0.00  0.00    +0.000 NA
ATOM      4  C   UNL     1       3.618   4.290  18.752  0.00  0.00    +0.000 A 
ATOM      5  C   UNL     1       2.738   3.470  19.515  0.00  0.00    +0.000 A 
ATOM      6  N   UNL     1       1.894   3.894  20.529  0.00  0.00    +0.000 N 
ATOM      7  C   UNL     1       1.798   5.275  20.967  0.00  0.00    +0.000 C 
ATOM      8  C   UNL     1       1.128   2.922  21.293  0.00  0.00    +0.000 C 
ATOM      9  N   UNL     1       2.735   2.139  19.184  0.00  0.00    +0.000 NA
ATOM     10  C   UNL     1       3.517   1.682  18.185  0.00  0.00    +0.000 A 
ATOM     11  N   UNL     1       4.360   2.377  17.409  0.00  0.00    +0.000 NA
ATOM     12  C   UNL     1       4.364   3.674  17.752  0.00  0.00    +0.000 A 
ENDROOT
BRANCH   1  13
ATOM     13  C   UNL     1       6.078   4.562  16.097  0.00  0.00    +0.000 C 
ATOM     14  C   UNL     1       7.227   5.561  16.260  0.00  0.00    +0.000 C 
BRANCH  13  16
ATOM     15  C   UNL     1       6.120   3.853  13.638  0.00  0.00    +0.000 C 
ATOM     16  C   UNL     1       5.390   4.634  14.722  0.00  0.00    +0.000 C 
ENDBRANCH  13  16
ENDBRANCH   1  13
TORSDOF 2
ENDMDL
MODEL 7
REMARK VINA RESULT:      -5.7      1.541      5.349
REMARK  Name = 
REMARK  6 active torsions:
REMARK  status: ('A' for Active; 'I' for Inactive)
REMARK    1  A    between atoms: C_1  and  C_2
REMARK    2  A    between atoms: C_2  and  C_3
REMARK    3  A    between atoms: C_3  and  C_4
REMARK    4  A    between atoms: C_3  and  N_5
REMARK    5  A    between atoms: N_10  and  C_11
REMARK    6  A    between atoms: N_10  and  C_12
REMARK                            x       y       z     vdW  Elec       q    Type
REMARK                         _______ _______ _______ _____ _____    ______ ____
ROOT
ATOM      1  N   UNL     1       5.185   4.954  16.754  0.00  0.00    +0.000 N 
ATOM      2  C   UNL     1       5.092   3.592  16.660  0.00  0.00    +0.000 A 
ATOM      3  N   UNL     1       4.127   3.115  17.411  0.00  0.00    +0.000 NA
ATOM      4  C   UNL     1       3.557   4.214  18.035  0.00  0.00    +0.000 A 
ATOM      5  C   UNL     1       2.484   4.359  18.960  0.00  0.00    +0.000 A 
ATOM      6  N   UNL     1       1.725   3.332  19.502  0.00  0.00    +0.000 N 
ATOM      7  C   UNL     1       1.928   1.930  19.184  0.00  0.00    +0.000 C 
ATOM      8  C   UNL     1       0.589   3.640  20.356  0.00  0.00    +0.000 C 
ATOM      9  N   UNL     1       2.203   5.645  19.344  0.00  0.00    +0.000 NA
ATOM     10  C   UNL     1       2.930   6.674  18.866  0.00  0.00    +0.000 A 
ATOM     11  N   UNL     1       3.961   6.633  18.009  0.00  0.00    +0.000 NA
ATOM     12  C   UNL     1       4.216   5.372  17.631  0.00  0.00    +0.000 A 
ENDROOT
BRANCH   1  13
ATOM     13  C   UNL     1       6.151   5.775  16.032  0.00  0.00    +0.000 C 
ATOM     14  C   UNL     1       6.521   5.149  14.684  0.00  0.00    +0.000 C 
BRANCH  13  16
ATOM     15  C   UNL     1       7.381   7.561  17.391  0.00  0.00    +0.000 C 
ATOM     16  C   UNL     1       7.371   6.118  16.906  0.00  0.00    +0.000 C 
ENDBRANCH  13  16
ENDBRANCH   1  13
TORSDOF 2
ENDMDL
MODEL 8
REMARK VINA RESULT:      -5.7      1.959      5.251
REMARK  Name = 
REMARK  6 active torsions:
REMARK  status: ('A' for Active; 'I' for Inactive)
REMARK    1  A    between atoms: C_1  and  C_2
REMARK    2  A    between atoms: C_2  and  C_3
REMARK    3  A    between atoms: C_3  and  C_4
REMARK    4  A    between atoms: C_3  and  N_5
REMARK    5  A    between atoms: N_10  and  C_11
REMARK    6  A    between atoms: N_10  and  C_12
REMARK                            x       y       z     vdW  Elec       q    Type
REMARK                         _______ _______ _______ _____ _____    ______ ____
ROOT
ATOM      1  N   UNL     1       5.430   5.374  16.942  0.00  0.00    +0.000 N 
ATOM      2  C   UNL     1       5.107   6.607  16.445  0.00  0.00    +0.000 A 
ATOM      3  N   UNL     1       4.180   7.197  17.162  0.00  0.00    +0.000 NA
ATOM      4  C   UNL     1       3.871   6.309  18.181  0.00  0.00    +0.000 A 
ATOM      5  C   UNL     1       2.955   6.359  19.271  0.00  0.00    +0.000 A 
ATOM      6  N   UNL     1       2.077   7.394  19.556  0.00  0.00    +0.000 N 
ATOM      7  C   UNL     1       1.978   8.604  18.760  0.00  0.00    +0.000 C 
ATOM      8  C   UNL     1       1.273   7.353  20.767  0.00  0.00    +0.000 C 
ATOM      9  N   UNL     1       2.951   5.262  20.092  0.00  0.00    +0.000 NA
ATOM     10  C   UNL     1       3.765   4.218  19.840  0.00  0.00    +0.000 A 
ATOM     11  N   UNL     1       4.645   4.076  18.838  0.00  0.00    +0.000 NA
ATOM     12  C   UNL     1       4.648   5.161  18.050  0.00  0.00    +0.000 A 
ENDROOT
BRANCH   1  13
ATOM     13  C   UNL     1       6.432   4.481  16.371  0.00  0.00    +0.000 C 
ATOM     14  C   UNL     1       7.696   4.434  17.234  0.00  0.00    +0.000 C 
BRANCH  13  16
ATOM     15  C   UNL     1       5.964   3.904  13.922  0.00  0.00    +0.000 C 
ATOM     16  C   UNL     1       6.709   4.810  14.893  0.00  0.00    +0.000 C 
ENDBRANCH  13  16
ENDBRANCH   1  13
TORSDOF 2
ENDMDL
MODEL 9
REMARK VINA RESULT:      -5.7      1.952      2.604
REMARK  Name = 
REMARK  6 active torsions:
REMARK  status: ('A' for Active; 'I' for Inactive)
REMARK    1  A    between atoms: C_1  and  C_2
REMARK    2  A    between atoms: C_2  and  C_3
REMARK    3  A    between atoms: C_3  and  C_4
REMARK    4  A    between atoms: C_3  and  N_5
REMARK    5  A    between atoms: N_10  and  C_11
REMARK    6  A    between atoms: N_10  and  C_12
REMARK                            x       y       z     vdW  Elec       q    Type
REMARK                         _______ _______ _______ _____ _____    ______ ____
ROOT
ATOM      1  N   UNL     1       3.316   4.108  19.183  0.00  0.00    +0.000 N 
ATOM      2  C   UNL     1       2.721   3.613  18.054  0.00  0.00    +0.000 A 
ATOM      3  N   UNL     1       3.491   3.740  17.000  0.00  0.00    +0.000 NA
ATOM      4  C   UNL     1       4.650   4.353  17.451  0.00  0.00    +0.000 A 
ATOM      5  C   UNL     1       5.851   4.759  16.802  0.00  0.00    +0.000 A 
ATOM      6  N   UNL     1       6.133   4.639  15.450  0.00  0.00    +0.000 N 
ATOM      7  C   UNL     1       5.215   4.058  14.487  0.00  0.00    +0.000 C 
ATOM      8  C   UNL     1       7.448   5.002  14.947  0.00  0.00    +0.000 C 
ATOM      9  N   UNL     1       6.796   5.333  17.613  0.00  0.00    +0.000 NA
ATOM     10  C   UNL     1       6.557   5.499  18.929  0.00  0.00    +0.000 A 
ATOM     11  N   UNL     1       5.458   5.163  19.621  0.00  0.00    +0.000 NA
ATOM     12  C   UNL     1       4.547   4.590  18.819  0.00  0.00    +0.000 A 
ENDROOT
BRANCH   1  13
ATOM     13  C   UNL     1       2.716   4.100  20.513  0.00  0.00    +0.000 C 
ATOM     14  C   UNL     1       2.474   2.672  21.010  0.00  0.00    +0.000 C 
BRANCH  13  16
ATOM     15  C   UNL     1       1.779   6.482  20.508  0.00  0.00    +0.000 C 
ATOM     16  C   UNL     1       1.464   4.994  20.576  0.00  0.00    +0.000 C 
ENDBRANCH  13  16
ENDBRANCH   1  13
TORSDOF 2
ENDMDL
