MODEL 1
REMARK VINA RESULT:      -5.9      0.000      0.000
REMARK  Name = 
REMARK  11 active torsions:
REMARK  status: ('A' for Active; 'I' for Inactive)
REMARK    1  A    between atoms: C_1  and  C_2
REMARK    2  A    between atoms: C_2  and  C_3
REMARK    3  A    between atoms: C_3  and  C_4
REMARK    4  A    between atoms: C_4  and  O_5
REMARK    5  A    between atoms: O_5  and  C_6
REMARK    6  A    between atoms: C_6  and  C_7
REMARK    7  A    between atoms: C_7  and  C_8
REMARK    8  A    between atoms: C_8  and  N_9
REMARK    9  A    between atoms: C_10  and  C_12
REMARK   10  A    between atoms: C_15  and  O_16
REMARK   11  A    between atoms: O_16  and  C_17
REMARK                            x       y       z     vdW  Elec       q    Type
REMARK                         _______ _______ _______ _____ _____    ______ ____
ROOT
ATOM      1  N   UNL     1       2.971   5.238  17.673  0.00  0.00    +0.000 N 
ATOM      2  C   UNL     1       3.472   6.512  17.860  0.00  0.00    +0.000 C 
ATOM      3  O   UNL     1       4.602   6.851  17.527  0.00  0.00    +0.000 OA
ATOM      4  H   UNL     1       2.078   4.980  18.067  0.00  0.00    +0.000 HD
ENDROOT
BRANCH   2   5
ATOM      5  C   UNL     1       2.579   7.488  18.542  0.00  0.00    +0.000 A 
ATOM      6  C   UNL     1       2.118   8.583  17.804  0.00  0.00    +0.000 A 
ATOM      7  C   UNL     1       1.318   9.552  18.412  0.00  0.00    +0.000 A 
ATOM      8  C   UNL     1       0.943   9.424  19.748  0.00  0.00    +0.000 A 
ATOM      9  C   UNL     1       1.380   8.317  20.484  0.00  0.00    +0.000 A 
ATOM     10  C   UNL     1       2.191   7.349  19.881  0.00  0.00    +0.000 A 
BRANCH   8  11
ATOM     11  O   UNL     1       0.195  10.453  20.245  0.00  0.00    +0.000 OA
ATOM     12  C   UNL     1      -0.812  10.965  19.379  0.00  0.00    +0.000 C 
ENDBRANCH   8  11
ENDBRANCH   2   5
BRANCH   1  13
ATOM     13  C   UNL     1       3.781   4.192  17.079  0.00  0.00    +0.000 C 
BRANCH  13  14
ATOM     14  C   UNL     1       4.149   3.104  18.085  0.00  0.00    +0.000 C 
BRANCH  14  15
ATOM     15  C   UNL     1       3.141   1.959  18.046  0.00  0.00    +0.000 C 
BRANCH  15  16
ATOM     16  O   UNL     1       1.850   2.475  17.730  0.00  0.00    +0.000 OA
BRANCH  16  17
ATOM     17  C   UNL     1       0.895   2.166  18.742  0.00  0.00    +0.000 C 
BRANCH  17  18
ATOM     18  C   UNL     1       0.754   3.362  19.676  0.00  0.00    +0.000 C 
BRANCH  18  20
ATOM     19  C   UNL     1       2.396   3.998  21.488  0.00  0.00    +0.000 C 
ATOM     20  C   UNL     1       1.302   3.033  21.063  0.00  0.00    +0.000 C 
ENDBRANCH  18  20
ENDBRANCH  17  18
ENDBRANCH  16  17
ENDBRANCH  15  16
ENDBRANCH  14  15
ENDBRANCH  13  14
ENDBRANCH   1  13
TORSDOF 9
ENDMDL
MODEL 2
REMARK VINA RESULT:      -5.8      0.594      1.255
REMARK  Name = 
REMARK  11 active torsions:
REMARK  status: ('A' for Active; 'I' for Inactive)
REMARK    1  A    between atoms: C_1  and  C_2
REMARK    2  A    between atoms: C_2  and  C_3
REMARK    3  A    between atoms: C_3  and  C_4
REMARK    4  A    between atoms: C_4  and  O_5
REMARK    5  A    between atoms: O_5  and  C_6
REMARK    6  A    between atoms: C_6  and  C_7
REMARK    7  A    between atoms: C_7  and  C_8
REMARK    8  A    between atoms: C_8  and  N_9
REMARK    9  A    between atoms: C_10  and  C_12
REMARK   10  A    between atoms: C_15  and  O_16
REMARK   11  A    between atoms: O_16  and  C_17
REMARK                            x       y       z     vdW  Elec       q    Type
REMARK                         _______ _______ _______ _____ _____    ______ ____
ROOT
ATOM      1  N   UNL     1       3.303   5.301  18.049  0.00  0.00    +0.000 N 
ATOM      2  C   UNL     1       3.472   6.633  17.722  0.00  0.00    +0.000 C 
ATOM      3  O   UNL     1       4.313   7.033  16.926  0.00  0.00    +0.000 OA
ATOM      4  H   UNL     1       2.675   5.036  18.793  0.00  0.00    +0.000 HD
ENDROOT
BRANCH   2   5
ATOM      5  C   UNL     1       2.595   7.610  18.424  0.00  0.00    +0.000 A 
ATOM      6  C   UNL     1       2.269   7.355  19.761  0.00  0.00    +0.000 A 
ATOM      7  C   UNL     1       1.412   8.216  20.449  0.00  0.00    +0.000 A 
ATOM      8  C   UNL     1       0.898   9.351  19.825  0.00  0.00    +0.000 A 
ATOM      9  C   UNL     1       1.242   9.624  18.497  0.00  0.00    +0.000 A 
ATOM     10  C   UNL     1       2.093   8.758  17.800  0.00  0.00    +0.000 A 
BRANCH   8  11
ATOM     11  O   UNL     1       0.038  10.094  20.583  0.00  0.00    +0.000 OA
ATOM     12  C   UNL     1      -0.291  11.380  20.070  0.00  0.00    +0.000 C 
ENDBRANCH   8  11
ENDBRANCH   2   5
BRANCH   1  13
ATOM     13  C   UNL     1       4.150   4.274  17.474  0.00  0.00    +0.000 C 
BRANCH  13  14
ATOM     14  C   UNL     1       3.845   2.888  18.040  0.00  0.00    +0.000 C 
BRANCH  14  15
ATOM     15  C   UNL     1       2.567   2.318  17.434  0.00  0.00    +0.000 C 
BRANCH  15  16
ATOM     16  O   UNL     1       1.453   3.105  17.849  0.00  0.00    +0.000 OA
BRANCH  16  17
ATOM     17  C   UNL     1       0.835   2.572  19.017  0.00  0.00    +0.000 C 
BRANCH  17  18
ATOM     18  C   UNL     1       0.888   3.613  20.129  0.00  0.00    +0.000 C 
BRANCH  18  20
ATOM     19  C   UNL     1       2.755   2.598  21.495  0.00  0.00    +0.000 C 
ATOM     20  C   UNL     1       1.282   2.968  21.456  0.00  0.00    +0.000 C 
ENDBRANCH  18  20
ENDBRANCH  17  18
ENDBRANCH  16  17
ENDBRANCH  15  16
ENDBRANCH  14  15
ENDBRANCH  13  14
ENDBRANCH   1  13
TORSDOF 9
ENDMDL
MODEL 3
REMARK VINA RESULT:      -5.8      2.926      6.335
REMARK  Name = 
REMARK  11 active torsions:
REMARK  status: ('A' for Active; 'I' for Inactive)
REMARK    1  A    between atoms: C_1  and  C_2
REMARK    2  A    between atoms: C_2  and  C_3
REMARK    3  A    between atoms: C_3  and  C_4
REMARK    4  A    between atoms: C_4  and  O_5
REMARK    5  A    between atoms: O_5  and  C_6
REMARK    6  A    between atoms: C_6  and  C_7
REMARK    7  A    between atoms: C_7  and  C_8
REMARK    8  A    between atoms: C_8  and  N_9
REMARK    9  A    between atoms: C_10  and  C_12
REMARK   10  A    between atoms: C_15  and  O_16
REMARK   11  A    between atoms: O_16  and  C_17
REMARK                            x       y       z     vdW  Elec       q    Type
REMARK                         _______ _______ _______ _____ _____    ______ ____
ROOT
ATOM      1  N   UNL     1       4.481   2.950  18.825  0.00  0.00    +0.000 N 
ATOM      2  C   UNL     1       5.380   3.983  18.637  0.00  0.00    +0.000 C 
ATOM      3  O   UNL     1       5.799   4.690  19.545  0.00  0.00    +0.000 OA
ATOM      4  H   UNL     1       4.081   2.473  18.031  0.00  0.00    +0.000 HD
ENDROOT
BRANCH   2   5
ATOM      5  C   UNL     1       5.810   4.247  17.236  0.00  0.00    +0.000 A 
ATOM      6  C   UNL     1       7.132   4.652  17.021  0.00  0.00    +0.000 A 
ATOM      7  C   UNL     1       7.571   4.958  15.732  0.00  0.00    +0.000 A 
ATOM      8  C   UNL     1       6.710   4.835  14.643  0.00  0.00    +0.000 A 
ATOM      9  C   UNL     1       5.394   4.406  14.849  0.00  0.00    +0.000 A 
ATOM     10  C   UNL     1       4.948   4.107  16.142  0.00  0.00    +0.000 A 
BRANCH   8  11
ATOM     11  O   UNL     1       7.237   5.202  13.438  0.00  0.00    +0.000 OA
ATOM     12  C   UNL     1       7.047   4.281  12.369  0.00  0.00    +0.000 C 
ENDBRANCH   8  11
ENDBRANCH   2   5
BRANCH   1  13
ATOM     13  C   UNL     1       3.946   2.652  20.138  0.00  0.00    +0.000 C 
BRANCH  13  14
ATOM     14  C   UNL     1       2.440   2.895  20.220  0.00  0.00    +0.000 C 
BRANCH  14  15
ATOM     15  C   UNL     1       2.126   4.084  21.123  0.00  0.00    +0.000 C 
BRANCH  15  16
ATOM     16  O   UNL     1       1.501   5.110  20.355  0.00  0.00    +0.000 OA
BRANCH  16  17
ATOM     17  C   UNL     1       2.440   6.089  19.919  0.00  0.00    +0.000 C 
BRANCH  17  18
ATOM     18  C   UNL     1       2.447   6.130  18.395  0.00  0.00    +0.000 C 
BRANCH  18  20
ATOM     19  C   UNL     1       2.287   8.561  17.725  0.00  0.00    +0.000 C 
ATOM     20  C   UNL     1       3.201   7.358  17.890  0.00  0.00    +0.000 C 
ENDBRANCH  18  20
ENDBRANCH  17  18
ENDBRANCH  16  17
ENDBRANCH  15  16
ENDBRANCH  14  15
ENDBRANCH  13  14
ENDBRANCH   1  13
TORSDOF 9
ENDMDL
MODEL 4
REMARK VINA RESULT:      -5.7      2.449      5.531
REMARK  Name = 
REMARK  11 active torsions:
REMARK  status: ('A' for Active; 'I' for Inactive)
REMARK    1  A    between atoms: C_1  and  C_2
REMARK    2  A    between atoms: C_2  and  C_3
REMARK    3  A    between atoms: C_3  and  C_4
REMARK    4  A    between atoms: C_4  and  O_5
REMARK    5  A    between atoms: O_5  and  C_6
REMARK    6  A    between atoms: C_6  and  C_7
REMARK    7  A    between atoms: C_7  and  C_8
REMARK    8  A    between atoms: C_8  and  N_9
REMARK    9  A    between atoms: C_10  and  C_12
REMARK   10  A    between atoms: C_15  and  O_16
REMARK   11  A    between atoms: O_16  and  C_17
REMARK                            x       y       z     vdW  Elec       q    Type
REMARK                         _______ _______ _______ _____ _____    ______ ____
ROOT
ATOM      1  N   UNL     1       3.726   3.285  19.706  0.00  0.00    +0.000 N 
ATOM      2  C   UNL     1       4.111   3.133  18.387  0.00  0.00    +0.000 C 
ATOM      3  O   UNL     1       3.747   2.203  17.678  0.00  0.00    +0.000 OA
ATOM      4  H   UNL     1       4.144   4.003  20.278  0.00  0.00    +0.000 HD
ENDROOT
BRANCH   2   5
ATOM      5  C   UNL     1       5.053   4.151  17.845  0.00  0.00    +0.000 A 
ATOM      6  C   UNL     1       5.900   4.806  18.745  0.00  0.00    +0.000 A 
ATOM      7  C   UNL     1       6.767   5.803  18.293  0.00  0.00    +0.000 A 
ATOM      8  C   UNL     1       6.821   6.134  16.940  0.00  0.00    +0.000 A 
ATOM      9  C   UNL     1       5.995   5.463  16.032  0.00  0.00    +0.000 A 
ATOM     10  C   UNL     1       5.117   4.471  16.483  0.00  0.00    +0.000 A 
BRANCH   8  11
ATOM     11  O   UNL     1       7.675   7.151  16.623  0.00  0.00    +0.000 OA
ATOM     12  C   UNL     1       7.862   8.143  17.627  0.00  0.00    +0.000 C 
ENDBRANCH   8  11
ENDBRANCH   2   5
BRANCH   1  13
ATOM     13  C   UNL     1       2.866   2.314  20.353  0.00  0.00    +0.000 C 
BRANCH  13  14
ATOM     14  C   UNL     1       1.389   2.687  20.248  0.00  0.00    +0.000 C 
BRANCH  14  15
ATOM     15  C   UNL     1       1.221   4.153  19.862  0.00  0.00    +0.000 C 
BRANCH  15  16
ATOM     16  O   UNL     1       1.547   4.977  20.979  0.00  0.00    +0.000 OA
BRANCH  16  17
ATOM     17  C   UNL     1       1.902   6.297  20.577  0.00  0.00    +0.000 C 
BRANCH  17  18
ATOM     18  C   UNL     1       2.274   6.284  19.099  0.00  0.00    +0.000 C 
BRANCH  18  20
ATOM     19  C   UNL     1       3.448   7.779  17.435  0.00  0.00    +0.000 C 
ATOM     20  C   UNL     1       2.443   7.707  18.571  0.00  0.00    +0.000 C 
ENDBRANCH  18  20
ENDBRANCH  17  18
ENDBRANCH  16  17
ENDBRANCH  15  16
ENDBRANCH  14  15
ENDBRANCH  13  14
ENDBRANCH   1  13
TORSDOF 9
ENDMDL
MODEL 5
REMARK VINA RESULT:      -5.7      2.804      5.375
REMARK  Name = 
REMARK  11 active torsions:
REMARK  status: ('A' for Active; 'I' for Inactive)
REMARK    1  A    between atoms: C_1  and  C_2
REMARK    2  A    between atoms: C_2  and  C_3
REMARK    3  A    between atoms: C_3  and  C_4
REMARK    4  A    between atoms: C_4  and  O_5
REMARK    5  A    between atoms: O_5  and  C_6
REMARK    6  A    between atoms: C_6  and  C_7
REMARK    7  A    between atoms: C_7  and  C_8
REMARK    8  A    between atoms: C_8  and  N_9
REMARK    9  A    between atoms: C_10  and  C_12
REMARK   10  A    between atoms: C_15  and  O_16
REMARK   11  A    between atoms: O_16  and  C_17
REMARK                            x       y       z     vdW  Elec       q    Type
REMARK                         _______ _______ _______ _____ _____    ______ ____
ROOT
ATOM      1  N   UNL     1       3.367   5.367  20.040  0.00  0.00    +0.000 N 
ATOM      2  C   UNL     1       3.320   6.193  18.933  0.00  0.00    +0.000 C 
ATOM      3  O   UNL     1       2.439   7.023  18.745  0.00  0.00    +0.000 OA
ATOM      4  H   UNL     1       4.048   4.624  20.091  0.00  0.00    +0.000 HD
ENDROOT
BRANCH   2   5
ATOM      5  C   UNL     1       4.390   6.007  17.915  0.00  0.00    +0.000 A 
ATOM      6  C   UNL     1       5.362   5.031  18.156  0.00  0.00    +0.000 A 
ATOM      7  C   UNL     1       6.414   4.851  17.256  0.00  0.00    +0.000 A 
ATOM      8  C   UNL     1       6.490   5.617  16.094  0.00  0.00    +0.000 A 
ATOM      9  C   UNL     1       5.506   6.577  15.836  0.00  0.00    +0.000 A 
ATOM     10  C   UNL     1       4.456   6.768  16.741  0.00  0.00    +0.000 A 
BRANCH   8  11
ATOM     11  O   UNL     1       7.584   5.382  15.311  0.00  0.00    +0.000 OA
ATOM     12  C   UNL     1       7.317   4.915  13.993  0.00  0.00    +0.000 C 
ENDBRANCH   8  11
ENDBRANCH   2   5
BRANCH   1  13
ATOM     13  C   UNL     1       2.336   5.418  21.058  0.00  0.00    +0.000 C 
BRANCH  13  14
ATOM     14  C   UNL     1       1.343   4.264  20.936  0.00  0.00    +0.000 C 
BRANCH  14  15
ATOM     15  C   UNL     1       1.910   2.987  21.547  0.00  0.00    +0.000 C 
BRANCH  15  16
ATOM     16  O   UNL     1       2.770   2.351  20.602  0.00  0.00    +0.000 OA
BRANCH  16  17
ATOM     17  C   UNL     1       2.088   2.046  19.389  0.00  0.00    +0.000 C 
BRANCH  17  18
ATOM     18  C   UNL     1       3.072   2.142  18.228  0.00  0.00    +0.000 C 
BRANCH  18  20
ATOM     19  C   UNL     1       1.341   3.857  17.562  0.00  0.00    +0.000 C 
ATOM     20  C   UNL     1       2.489   2.980  17.092  0.00  0.00    +0.000 C 
ENDBRANCH  18  20
ENDBRANCH  17  18
ENDBRANCH  16  17
ENDBRANCH  15  16
ENDBRANCH  14  15
ENDBRANCH  13  14
ENDBRANCH   1  13
TORSDOF 9
ENDMDL
MODEL 6
REMARK VINA RESULT:      -5.6      2.863      6.057
REMARK  Name = 
REMARK  11 active torsions:
REMARK  status: ('A' for Active; 'I' for Inactive)
REMARK    1  A    between atoms: C_1  and  C_2
REMARK    2  A    between atoms: C_2  and  C_3
REMARK    3  A    between atoms: C_3  and  C_4
REMARK    4  A    between atoms: C_4  and  O_5
REMARK    5  A    between atoms: O_5  and  C_6
REMARK    6  A    between atoms: C_6  and  C_7
REMARK    7  A    between atoms: C_7  and  C_8
REMARK    8  A    between atoms: C_8  and  N_9
REMARK    9  A    between atoms: C_10  and  C_12
REMARK   10  A    between atoms: C_15  and  O_16
REMARK   11  A    between atoms: O_16  and  C_17
REMARK                            x       y       z     vdW  Elec       q    Type
REMARK                         _______ _______ _______ _____ _____    ______ ____
ROOT
ATOM      1  N   UNL     1       4.830   3.016  19.261  0.00  0.00    +0.000 N 
ATOM      2  C   UNL     1       5.363   4.261  18.984  0.00  0.00    +0.000 C 
ATOM      3  O   UNL     1       5.440   5.163  19.809  0.00  0.00    +0.000 OA
ATOM      4  H   UNL     1       4.685   2.349  18.519  0.00  0.00    +0.000 HD
ENDROOT
BRANCH   2   5
ATOM      5  C   UNL     1       5.821   4.495  17.587  0.00  0.00    +0.000 A 
ATOM      6  C   UNL     1       5.251   3.721  16.572  0.00  0.00    +0.000 A 
ATOM      7  C   UNL     1       5.681   3.869  15.252  0.00  0.00    +0.000 A 
ATOM      8  C   UNL     1       6.658   4.809  14.927  0.00  0.00    +0.000 A 
ATOM      9  C   UNL     1       7.212   5.604  15.935  0.00  0.00    +0.000 A 
ATOM     10  C   UNL     1       6.791   5.452  17.261  0.00  0.00    +0.000 A 
BRANCH   8  11
ATOM     11  O   UNL     1       7.028   4.835  13.612  0.00  0.00    +0.000 OA
ATOM     12  C   UNL     1       6.491   3.800  12.795  0.00  0.00    +0.000 C 
ENDBRANCH   8  11
ENDBRANCH   2   5
BRANCH   1  13
ATOM     13  C   UNL     1       4.292   2.705  20.571  0.00  0.00    +0.000 C 
BRANCH  13  14
ATOM     14  C   UNL     1       2.767   2.768  20.602  0.00  0.00    +0.000 C 
BRANCH  14  15
ATOM     15  C   UNL     1       2.284   4.065  21.244  0.00  0.00    +0.000 C 
BRANCH  15  16
ATOM     16  O   UNL     1       1.592   4.846  20.273  0.00  0.00    +0.000 OA
BRANCH  16  17
ATOM     17  C   UNL     1       1.580   4.214  18.996  0.00  0.00    +0.000 C 
BRANCH  17  18
ATOM     18  C   UNL     1       2.045   5.212  17.941  0.00  0.00    +0.000 C 
BRANCH  18  20
ATOM     19  C   UNL     1       3.351   7.360  17.694  0.00  0.00    +0.000 C 
ATOM     20  C   UNL     1       2.438   6.538  18.587  0.00  0.00    +0.000 C 
ENDBRANCH  18  20
ENDBRANCH  17  18
ENDBRANCH  16  17
ENDBRANCH  15  16
ENDBRANCH  14  15
ENDBRANCH  13  14
ENDBRANCH   1  13
TORSDOF 9
ENDMDL
MODEL 7
REMARK VINA RESULT:      -5.6      3.201      4.778
REMARK  Name = 
REMARK  11 active torsions:
REMARK  status: ('A' for Active; 'I' for Inactive)
REMARK    1  A    between atoms: C_1  and  C_2
REMARK    2  A    between atoms: C_2  and  C_3
REMARK    3  A    between atoms: C_3  and  C_4
REMARK    4  A    between atoms: C_4  and  O_5
REMARK    5  A    between atoms: O_5  and  C_6
REMARK    6  A    between atoms: C_6  and  C_7
REMARK    7  A    between atoms: C_7  and  C_8
REMARK    8  A    between atoms: C_8  and  N_9
REMARK    9  A    between atoms: C_10  and  C_12
REMARK   10  A    between atoms: C_15  and  O_16
REMARK   11  A    between atoms: O_16  and  C_17
REMARK                            x       y       z     vdW  Elec       q    Type
REMARK                         _______ _______ _______ _____ _____    ______ ____
ROOT
ATOM      1  N   UNL     1       3.967   4.052  17.788  0.00  0.00    +0.000 N 
ATOM      2  C   UNL     1       4.993   4.421  16.940  0.00  0.00    +0.000 C 
ATOM      3  O   UNL     1       5.132   3.971  15.809  0.00  0.00    +0.000 OA
ATOM      4  H   UNL     1       3.963   4.364  18.747  0.00  0.00    +0.000 HD
ENDROOT
BRANCH   2   5
ATOM      5  C   UNL     1       5.989   5.389  17.477  0.00  0.00    +0.000 A 
ATOM      6  C   UNL     1       6.065   6.651  16.879  0.00  0.00    +0.000 A 
ATOM      7  C   UNL     1       7.015   7.577  17.315  0.00  0.00    +0.000 A 
ATOM      8  C   UNL     1       7.874   7.267  18.368  0.00  0.00    +0.000 A 
ATOM      9  C   UNL     1       7.785   6.016  18.986  0.00  0.00    +0.000 A 
ATOM     10  C   UNL     1       6.841   5.081  18.545  0.00  0.00    +0.000 A 
BRANCH   8  11
ATOM     11  O   UNL     1       8.788   8.234  18.678  0.00  0.00    +0.000 OA
ATOM     12  C   UNL     1       8.497   9.542  18.198  0.00  0.00    +0.000 C 
ENDBRANCH   8  11
ENDBRANCH   2   5
BRANCH   1  13
ATOM     13  C   UNL     1       2.982   3.065  17.390  0.00  0.00    +0.000 C 
BRANCH  13  14
ATOM     14  C   UNL     1       3.002   1.831  18.289  0.00  0.00    +0.000 C 
BRANCH  14  15
ATOM     15  C   UNL     1       3.983   2.010  19.443  0.00  0.00    +0.000 C 
BRANCH  15  16
ATOM     16  O   UNL     1       3.340   2.706  20.509  0.00  0.00    +0.000 OA
BRANCH  16  17
ATOM     17  C   UNL     1       1.938   2.455  20.534  0.00  0.00    +0.000 C 
BRANCH  17  18
ATOM     18  C   UNL     1       1.198   3.778  20.692  0.00  0.00    +0.000 C 
BRANCH  18  20
ATOM     19  C   UNL     1       1.990   6.087  20.040  0.00  0.00    +0.000 C 
ATOM     20  C   UNL     1       2.176   4.914  20.987  0.00  0.00    +0.000 C 
ENDBRANCH  18  20
ENDBRANCH  17  18
ENDBRANCH  16  17
ENDBRANCH  15  16
ENDBRANCH  14  15
ENDBRANCH  13  14
ENDBRANCH   1  13
TORSDOF 9
ENDMDL
MODEL 8
REMARK VINA RESULT:      -5.5      1.150      1.922
REMARK  Name = 
REMARK  11 active torsions:
REMARK  status: ('A' for Active; 'I' for Inactive)
REMARK    1  A    between atoms: C_1  and  C_2
REMARK    2  A    between atoms: C_2  and  C_3
REMARK    3  A    between atoms: C_3  and  C_4
REMARK    4  A    between atoms: C_4  and  O_5
REMARK    5  A    between atoms: O_5  and  C_6
REMARK    6  A    between atoms: C_6  and  C_7
REMARK    7  A    between atoms: C_7  and  C_8
REMARK    8  A    between atoms: C_8  and  N_9
REMARK    9  A    between atoms: C_10  and  C_12
REMARK   10  A    between atoms: C_15  and  O_16
REMARK   11  A    between atoms: O_16  and  C_17
REMARK                            x       y       z     vdW  Elec       q    Type
REMARK                         _______ _______ _______ _____ _____    ______ ____
ROOT
ATOM      1  N   UNL     1       3.014   5.201  17.668  0.00  0.00    +0.000 N 
ATOM      2  C   UNL     1       3.493   6.494  17.749  0.00  0.00    +0.000 C 
ATOM      3  O   UNL     1       4.590   6.837  17.324  0.00  0.00    +0.000 OA
ATOM      4  H   UNL     1       2.155   4.947  18.134  0.00  0.00    +0.000 HD
ENDROOT
BRANCH   2   5
ATOM      5  C   UNL     1       2.621   7.489  18.431  0.00  0.00    +0.000 A 
ATOM      6  C   UNL     1       2.318   7.280  19.781  0.00  0.00    +0.000 A 
ATOM      7  C   UNL     1       1.466   8.158  20.452  0.00  0.00    +0.000 A 
ATOM      8  C   UNL     1       0.933   9.267  19.798  0.00  0.00    +0.000 A 
ATOM      9  C   UNL     1       1.253   9.495  18.456  0.00  0.00    +0.000 A 
ATOM     10  C   UNL     1       2.100   8.612  17.776  0.00  0.00    +0.000 A 
BRANCH   8  11
ATOM     11  O   UNL     1       0.080  10.030  20.544  0.00  0.00    +0.000 OA
ATOM     12  C   UNL     1       0.601  11.269  21.012  0.00  0.00    +0.000 C 
ENDBRANCH   8  11
ENDBRANCH   2   5
BRANCH   1  13
ATOM     13  C   UNL     1       3.811   4.140  17.085  0.00  0.00    +0.000 C 
BRANCH  13  14
ATOM     14  C   UNL     1       4.051   2.991  18.061  0.00  0.00    +0.000 C 
BRANCH  14  15
ATOM     15  C   UNL     1       4.596   3.506  19.390  0.00  0.00    +0.000 C 
BRANCH  15  16
ATOM     16  O   UNL     1       4.288   2.573  20.423  0.00  0.00    +0.000 OA
BRANCH  16  17
ATOM     17  C   UNL     1       2.882   2.416  20.591  0.00  0.00    +0.000 C 
BRANCH  17  18
ATOM     18  C   UNL     1       2.292   3.726  21.103  0.00  0.00    +0.000 C 
BRANCH  18  20
ATOM     19  C   UNL     1       0.614   2.986  19.365  0.00  0.00    +0.000 C 
ATOM     20  C   UNL     1       0.951   4.013  20.432  0.00  0.00    +0.000 C 
ENDBRANCH  18  20
ENDBRANCH  17  18
ENDBRANCH  16  17
ENDBRANCH  15  16
ENDBRANCH  14  15
ENDBRANCH  13  14
ENDBRANCH   1  13
TORSDOF 9
ENDMDL
MODEL 9
REMARK VINA RESULT:      -5.5      2.858      4.888
REMARK  Name = 
REMARK  11 active torsions:
REMARK  status: ('A' for Active; 'I' for Inactive)
REMARK    1  A    between atoms: C_1  and  C_2
REMARK    2  A    between atoms: C_2  and  C_3
REMARK    3  A    between atoms: C_3  and  C_4
REMARK    4  A    between atoms: C_4  and  O_5
REMARK    5  A    between atoms: O_5  and  C_6
REMARK    6  A    between atoms: C_6  and  C_7
REMARK    7  A    between atoms: C_7  and  C_8
REMARK    8  A    between atoms: C_8  and  N_9
REMARK    9  A    between atoms: C_10  and  C_12
REMARK   10  A    between atoms: C_15  and  O_16
REMARK   11  A    between atoms: O_16  and  C_17
REMARK                            x       y       z     vdW  Elec       q    Type
REMARK                         _______ _______ _______ _____ _____    ______ ____
ROOT
ATOM      1  N   UNL     1       3.848   3.919  17.607  0.00  0.00    +0.000 N 
ATOM      2  C   UNL     1       4.928   4.249  16.811  0.00  0.00    +0.000 C 
ATOM      3  O   UNL     1       5.126   3.765  15.702  0.00  0.00    +0.000 OA
ATOM      4  H   UNL     1       3.793   4.259  18.555  0.00  0.00    +0.000 HD
ENDROOT
BRANCH   2   5
ATOM      5  C   UNL     1       5.906   5.218  17.379  0.00  0.00    +0.000 A 
ATOM      6  C   UNL     1       6.001   6.480  16.783  0.00  0.00    +0.000 A 
ATOM      7  C   UNL     1       6.936   7.406  17.248  0.00  0.00    +0.000 A 
ATOM      8  C   UNL     1       7.760   7.098  18.329  0.00  0.00    +0.000 A 
ATOM      9  C   UNL     1       7.651   5.847  18.945  0.00  0.00    +0.000 A 
ATOM     10  C   UNL     1       6.722   4.912  18.475  0.00  0.00    +0.000 A 
BRANCH   8  11
ATOM     11  O   UNL     1       8.663   8.065  18.668  0.00  0.00    +0.000 OA
ATOM     12  C   UNL     1       8.401   9.368  18.157  0.00  0.00    +0.000 C 
ENDBRANCH   8  11
ENDBRANCH   2   5
BRANCH   1  13
ATOM     13  C   UNL     1       2.873   2.935  17.178  0.00  0.00    +0.000 C 
BRANCH  13  14
ATOM     14  C   UNL     1       2.408   2.042  18.325  0.00  0.00    +0.000 C 
BRANCH  14  15
ATOM     15  C   UNL     1       1.032   2.468  18.828  0.00  0.00    +0.000 C 
BRANCH  15  16
ATOM     16  O   UNL     1       1.051   3.860  19.137  0.00  0.00    +0.000 OA
BRANCH  16  17
ATOM     17  C   UNL     1       1.102   4.090  20.542  0.00  0.00    +0.000 C 
BRANCH  17  18
ATOM     18  C   UNL     1       2.281   5.004  20.855  0.00  0.00    +0.000 C 
BRANCH  18  20
ATOM     19  C   UNL     1       1.654   7.435  20.570  0.00  0.00    +0.000 C 
ATOM     20  C   UNL     1       2.289   6.215  19.925  0.00  0.00    +0.000 C 
ENDBRANCH  18  20
ENDBRANCH  17  18
ENDBRANCH  16  17
ENDBRANCH  15  16
ENDBRANCH  14  15
ENDBRANCH  13  14
ENDBRANCH   1  13
TORSDOF 9
ENDMDL
