MODEL 1
REMARK VINA RESULT:      -7.0      0.000      0.000
REMARK  Name = 
REMARK  6 active torsions:
REMARK  status: ('A' for Active; 'I' for Inactive)
REMARK    1  A    between atoms: C_1  and  O_2
REMARK    2  A    between atoms: O_2  and  C_3
REMARK    3  A    between atoms: C_3  and  C_4
REMARK    4  A    between atoms: C_4  and  N_5
REMARK    5  A    between atoms: N_19  and  C_20
REMARK    6  A    between atoms: C_21  and  C_22
REMARK                            x       y       z     vdW  Elec       q    Type
REMARK                         _______ _______ _______ _____ _____    ______ ____
ROOT
ATOM      1  N   UNL     1       1.088   9.963  18.732  0.00  0.00    +0.000 N 
ATOM      2  C   UNL     1       1.781   9.376  17.716  0.00  0.00    +0.000 A 
ATOM      3  C   UNL     1       2.407   8.298  18.280  0.00  0.00    +0.000 A 
ATOM      4  C   UNL     1       2.002   8.273  19.640  0.00  0.00    +0.000 A 
ATOM      5  N   UNL     1       2.295   7.313  20.544  0.00  0.00    +0.000 N 
ATOM      6  C   UNL     1       2.619   5.985  20.257  0.00  0.00    +0.000 A 
ATOM      7  N   UNL     1       2.406   5.045  21.194  0.00  0.00    +0.000 NA
ATOM      8  C   UNL     1       2.552   3.748  20.816  0.00  0.00    +0.000 A 
ATOM      9  C   UNL     1       2.919   3.362  19.548  0.00  0.00    +0.000 A 
ATOM     10  C   UNL     1       3.284   4.418  18.744  0.00  0.00    +0.000 A 
ATOM     11  N   UNL     1       3.094   5.695  19.047  0.00  0.00    +0.000 NA
ATOM     12  C   UNL     1       3.959   4.116  17.502  0.00  0.00    +0.000 A 
ATOM     13  C   UNL     1       3.754   2.879  16.875  0.00  0.00    +0.000 A 
ATOM     14  N   UNL     1       4.580   2.683  15.857  0.00  0.00    +0.000 NA
ATOM     15  N   UNL     1       5.391   3.777  15.899  0.00  0.00    +0.000 N 
ATOM     16  C   UNL     1       6.500   3.795  14.976  0.00  0.00    +0.000 C 
ATOM     17  C   UNL     1       5.141   4.627  16.972  0.00  0.00    +0.000 A 
ATOM     18  C   UNL     1       2.845   1.868  17.490  0.00  0.00    +0.000 C 
ATOM     19  C   UNL     1       3.028   1.943  19.042  0.00  0.00    +0.000 C 
ATOM     20  N   UNL     1       1.222   9.327  19.920  0.00  0.00    +0.000 NA
ATOM     21  H   UNL     1       1.901   7.386  21.464  0.00  0.00    +0.000 HD
ENDROOT
BRANCH  17  22
ATOM     22  C   UNL     1       6.026   5.720  17.472  0.00  0.00    +0.000 A 
ATOM     23  C   UNL     1       7.062   5.523  18.394  0.00  0.00    +0.000 A 
ATOM     24  C   UNL     1       7.866   6.580  18.829  0.00  0.00    +0.000 A 
ATOM     25  C   UNL     1       7.702   7.863  18.306  0.00  0.00    +0.000 A 
ATOM     26  C   UNL     1       6.695   8.087  17.386  0.00  0.00    +0.000 A 
ATOM     27  C   UNL     1       5.848   7.043  17.019  0.00  0.00    +0.000 A 
ENDBRANCH  17  22
BRANCH   1  28
ATOM     28  C   UNL     1       0.286  11.160  18.621  0.00  0.00    +0.000 C 
BRANCH  28  29
ATOM     29  C   UNL     1      -1.207  10.864  18.656  0.00  0.00    +0.000 C 
BRANCH  29  31
ATOM     30  C   UNL     1      -2.372  10.700  16.613  0.00  0.00    +0.000 C 
ATOM     31  O   UNL     1      -1.539  10.024  17.548  0.00  0.00    +0.000 OA
ENDBRANCH  29  31
ENDBRANCH  28  29
ENDBRANCH   1  28
TORSDOF 4
ENDMDL
MODEL 2
REMARK VINA RESULT:      -6.9      1.132      1.414
REMARK  Name = 
REMARK  6 active torsions:
REMARK  status: ('A' for Active; 'I' for Inactive)
REMARK    1  A    between atoms: C_1  and  O_2
REMARK    2  A    between atoms: O_2  and  C_3
REMARK    3  A    between atoms: C_3  and  C_4
REMARK    4  A    between atoms: C_4  and  N_5
REMARK    5  A    between atoms: N_19  and  C_20
REMARK    6  A    between atoms: C_21  and  C_22
REMARK                            x       y       z     vdW  Elec       q    Type
REMARK                         _______ _______ _______ _____ _____    ______ ____
ROOT
ATOM      1  N   UNL     1       1.135  10.005  18.756  0.00  0.00    +0.000 N 
ATOM      2  C   UNL     1       1.815   9.402  17.741  0.00  0.00    +0.000 A 
ATOM      3  C   UNL     1       2.418   8.310  18.306  0.00  0.00    +0.000 A 
ATOM      4  C   UNL     1       2.012   8.297  19.667  0.00  0.00    +0.000 A 
ATOM      5  N   UNL     1       2.285   7.332  20.571  0.00  0.00    +0.000 N 
ATOM      6  C   UNL     1       2.580   5.997  20.287  0.00  0.00    +0.000 A 
ATOM      7  N   UNL     1       2.347   5.063  21.225  0.00  0.00    +0.000 NA
ATOM      8  C   UNL     1       2.464   3.763  20.849  0.00  0.00    +0.000 A 
ATOM      9  C   UNL     1       2.822   3.367  19.583  0.00  0.00    +0.000 A 
ATOM     10  C   UNL     1       3.210   4.413  18.776  0.00  0.00    +0.000 A 
ATOM     11  N   UNL     1       3.047   5.695  19.077  0.00  0.00    +0.000 NA
ATOM     12  C   UNL     1       3.877   4.094  17.534  0.00  0.00    +0.000 A 
ATOM     13  C   UNL     1       3.644   2.862  16.910  0.00  0.00    +0.000 A 
ATOM     14  N   UNL     1       4.466   2.645  15.892  0.00  0.00    +0.000 NA
ATOM     15  N   UNL     1       5.300   3.722  15.932  0.00  0.00    +0.000 N 
ATOM     16  C   UNL     1       6.409   3.714  15.008  0.00  0.00    +0.000 C 
ATOM     17  C   UNL     1       5.070   4.579  17.002  0.00  0.00    +0.000 A 
ATOM     18  C   UNL     1       2.714   1.871  17.527  0.00  0.00    +0.000 C 
ATOM     19  C   UNL     1       2.900   1.945  19.079  0.00  0.00    +0.000 C 
ATOM     20  N   UNL     1       1.256   9.369  19.945  0.00  0.00    +0.000 NA
ATOM     21  H   UNL     1       1.894   7.416  21.492  0.00  0.00    +0.000 HD
ENDROOT
BRANCH  17  22
ATOM     22  C   UNL     1       5.978   5.653  17.500  0.00  0.00    +0.000 A 
ATOM     23  C   UNL     1       7.001   5.438  18.433  0.00  0.00    +0.000 A 
ATOM     24  C   UNL     1       7.829   6.477  18.866  0.00  0.00    +0.000 A 
ATOM     25  C   UNL     1       7.703   7.759  18.330  0.00  0.00    +0.000 A 
ATOM     26  C   UNL     1       6.710   8.001  17.398  0.00  0.00    +0.000 A 
ATOM     27  C   UNL     1       5.839   6.975  17.033  0.00  0.00    +0.000 A 
ENDBRANCH  17  22
BRANCH   1  28
ATOM     28  C   UNL     1       0.360  11.219  18.643  0.00  0.00    +0.000 C 
BRANCH  28  29
ATOM     29  C   UNL     1       0.684  12.218  19.746  0.00  0.00    +0.000 C 
BRANCH  29  31
ATOM     30  C   UNL     1       2.124  13.278  18.209  0.00  0.00    +0.000 C 
ATOM     31  O   UNL     1       1.994  12.745  19.522  0.00  0.00    +0.000 OA
ENDBRANCH  29  31
ENDBRANCH  28  29
ENDBRANCH   1  28
TORSDOF 4
ENDMDL
MODEL 3
REMARK VINA RESULT:      -6.7      4.475     10.839
REMARK  Name = 
REMARK  6 active torsions:
REMARK  status: ('A' for Active; 'I' for Inactive)
REMARK    1  A    between atoms: C_1  and  O_2
REMARK    2  A    between atoms: O_2  and  C_3
REMARK    3  A    between atoms: C_3  and  C_4
REMARK    4  A    between atoms: C_4  and  N_5
REMARK    5  A    between atoms: N_19  and  C_20
REMARK    6  A    between atoms: C_21  and  C_22
REMARK                            x       y       z     vdW  Elec       q    Type
REMARK                         _______ _______ _______ _____ _____    ______ ____
ROOT
ATOM      1  N   UNL     1       0.882   9.220  19.332  0.00  0.00    +0.000 N 
ATOM      2  C   UNL     1       0.134   9.645  20.389  0.00  0.00    +0.000 A 
ATOM      3  C   UNL     1      -0.805  10.486  19.854  0.00  0.00    +0.000 A 
ATOM      4  C   UNL     1      -0.586  10.480  18.451  0.00  0.00    +0.000 A 
ATOM      5  N   UNL     1      -1.354  11.087  17.521  0.00  0.00    +0.000 N 
ATOM      6  C   UNL     1      -2.704  11.420  17.657  0.00  0.00    +0.000 A 
ATOM      7  N   UNL     1      -3.458  11.550  16.553  0.00  0.00    +0.000 NA
ATOM      8  C   UNL     1      -4.798  11.685  16.729  0.00  0.00    +0.000 A 
ATOM      9  C   UNL     1      -5.404  11.712  17.963  0.00  0.00    +0.000 A 
ATOM     10  C   UNL     1      -4.507  11.755  19.007  0.00  0.00    +0.000 A 
ATOM     11  N   UNL     1      -3.201  11.558  18.885  0.00  0.00    +0.000 NA
ATOM     12  C   UNL     1      -5.018  12.077  20.320  0.00  0.00    +0.000 A 
ATOM     13  C   UNL     1      -6.355  11.801  20.640  0.00  0.00    +0.000 A 
ATOM     14  N   UNL     1      -6.716  12.322  21.804  0.00  0.00    +0.000 NA
ATOM     15  N   UNL     1      -5.613  13.025  22.185  0.00  0.00    +0.000 N 
ATOM     16  C   UNL     1      -5.740  13.827  23.378  0.00  0.00    +0.000 C 
ATOM     17  C   UNL     1      -4.585  13.020  21.249  0.00  0.00    +0.000 A 
ATOM     18  C   UNL     1      -7.257  11.181  19.625  0.00  0.00    +0.000 C 
ATOM     19  C   UNL     1      -6.890  11.784  18.229  0.00  0.00    +0.000 C 
ATOM     20  N   UNL     1       0.482   9.730  18.143  0.00  0.00    +0.000 NA
ATOM     21  H   UNL     1      -1.121  10.962  16.552  0.00  0.00    +0.000 HD
ENDROOT
BRANCH  17  22
ATOM     22  C   UNL     1      -3.397  13.922  21.220  0.00  0.00    +0.000 A 
ATOM     23  C   UNL     1      -2.106  13.523  21.592  0.00  0.00    +0.000 A 
ATOM     24  C   UNL     1      -1.023  14.404  21.544  0.00  0.00    +0.000 A 
ATOM     25  C   UNL     1      -1.182  15.703  21.059  0.00  0.00    +0.000 A 
ATOM     26  C   UNL     1      -2.442  16.124  20.673  0.00  0.00    +0.000 A 
ATOM     27  C   UNL     1      -3.529  15.261  20.800  0.00  0.00    +0.000 A 
ENDBRANCH  17  22
BRANCH   1  28
ATOM     28  C   UNL     1       2.017   8.330  19.409  0.00  0.00    +0.000 C 
BRANCH  28  29
ATOM     29  C   UNL     1       2.450   7.822  18.041  0.00  0.00    +0.000 C 
BRANCH  29  31
ATOM     30  C   UNL     1       2.675   5.845  19.306  0.00  0.00    +0.000 C 
ATOM     31  O   UNL     1       2.366   6.394  18.030  0.00  0.00    +0.000 OA
ENDBRANCH  29  31
ENDBRANCH  28  29
ENDBRANCH   1  28
TORSDOF 4
ENDMDL
MODEL 4
REMARK VINA RESULT:      -6.7      0.594      1.241
REMARK  Name = 
REMARK  6 active torsions:
REMARK  status: ('A' for Active; 'I' for Inactive)
REMARK    1  A    between atoms: C_1  and  O_2
REMARK    2  A    between atoms: O_2  and  C_3
REMARK    3  A    between atoms: C_3  and  C_4
REMARK    4  A    between atoms: C_4  and  N_5
REMARK    5  A    between atoms: N_19  and  C_20
REMARK    6  A    between atoms: C_21  and  C_22
REMARK                            x       y       z     vdW  Elec       q    Type
REMARK                         _______ _______ _______ _____ _____    ______ ____
ROOT
ATOM      1  N   UNL     1       1.073   9.986  18.729  0.00  0.00    +0.000 N 
ATOM      2  C   UNL     1       1.752   9.400  17.703  0.00  0.00    +0.000 A 
ATOM      3  C   UNL     1       2.388   8.322  18.256  0.00  0.00    +0.000 A 
ATOM      4  C   UNL     1       2.003   8.296  19.622  0.00  0.00    +0.000 A 
ATOM      5  N   UNL     1       2.310   7.335  20.520  0.00  0.00    +0.000 N 
ATOM      6  C   UNL     1       2.632   6.008  20.228  0.00  0.00    +0.000 A 
ATOM      7  N   UNL     1       2.434   5.067  21.167  0.00  0.00    +0.000 NA
ATOM      8  C   UNL     1       2.576   3.771  20.785  0.00  0.00    +0.000 A 
ATOM      9  C   UNL     1       2.925   3.386  19.513  0.00  0.00    +0.000 A 
ATOM     10  C   UNL     1       3.277   4.443  18.704  0.00  0.00    +0.000 A 
ATOM     11  N   UNL     1       3.089   5.720  19.011  0.00  0.00    +0.000 NA
ATOM     12  C   UNL     1       3.934   4.143  17.452  0.00  0.00    +0.000 A 
ATOM     13  C   UNL     1       3.721   2.907  16.827  0.00  0.00    +0.000 A 
ATOM     14  N   UNL     1       4.533   2.712  15.797  0.00  0.00    +0.000 NA
ATOM     15  N   UNL     1       5.342   3.808  15.828  0.00  0.00    +0.000 N 
ATOM     16  C   UNL     1       6.438   3.828  14.889  0.00  0.00    +0.000 C 
ATOM     17  C   UNL     1       5.108   4.656  16.905  0.00  0.00    +0.000 A 
ATOM     18  C   UNL     1       2.822   1.893  17.454  0.00  0.00    +0.000 C 
ATOM     19  C   UNL     1       3.029   1.967  19.004  0.00  0.00    +0.000 C 
ATOM     20  N   UNL     1       1.226   9.349  19.914  0.00  0.00    +0.000 NA
ATOM     21  H   UNL     1       1.930   7.407  21.447  0.00  0.00    +0.000 HD
ENDROOT
BRANCH  17  22
ATOM     22  C   UNL     1       5.998   5.750  17.393  0.00  0.00    +0.000 A 
ATOM     23  C   UNL     1       5.848   7.096  17.033  0.00  0.00    +0.000 A 
ATOM     24  C   UNL     1       6.706   8.085  17.520  0.00  0.00    +0.000 A 
ATOM     25  C   UNL     1       7.708   7.770  18.439  0.00  0.00    +0.000 A 
ATOM     26  C   UNL     1       7.874   6.452  18.823  0.00  0.00    +0.000 A 
ATOM     27  C   UNL     1       7.063   5.462  18.269  0.00  0.00    +0.000 A 
ENDBRANCH  17  22
BRANCH   1  28
ATOM     28  C   UNL     1       0.269  11.181  18.631  0.00  0.00    +0.000 C 
BRANCH  28  29
ATOM     29  C   UNL     1      -1.200  10.873  18.375  0.00  0.00    +0.000 C 
BRANCH  29  31
ATOM     30  C   UNL     1      -1.267  12.100  20.387  0.00  0.00    +0.000 C 
ATOM     31  O   UNL     1      -2.001  11.681  19.242  0.00  0.00    +0.000 OA
ENDBRANCH  29  31
ENDBRANCH  28  29
ENDBRANCH   1  28
TORSDOF 4
ENDMDL
MODEL 5
REMARK VINA RESULT:      -6.5      4.528     10.923
REMARK  Name = 
REMARK  6 active torsions:
REMARK  status: ('A' for Active; 'I' for Inactive)
REMARK    1  A    between atoms: C_1  and  O_2
REMARK    2  A    between atoms: O_2  and  C_3
REMARK    3  A    between atoms: C_3  and  C_4
REMARK    4  A    between atoms: C_4  and  N_5
REMARK    5  A    between atoms: N_19  and  C_20
REMARK    6  A    between atoms: C_21  and  C_22
REMARK                            x       y       z     vdW  Elec       q    Type
REMARK                         _______ _______ _______ _____ _____    ______ ____
ROOT
ATOM      1  N   UNL     1       0.874   9.306  19.208  0.00  0.00    +0.000 N 
ATOM      2  C   UNL     1       0.172   9.739  20.293  0.00  0.00    +0.000 A 
ATOM      3  C   UNL     1      -0.792  10.572  19.793  0.00  0.00    +0.000 A 
ATOM      4  C   UNL     1      -0.636  10.554  18.382  0.00  0.00    +0.000 A 
ATOM      5  N   UNL     1      -1.445  11.152  17.481  0.00  0.00    +0.000 N 
ATOM      6  C   UNL     1      -2.788  11.483  17.674  0.00  0.00    +0.000 A 
ATOM      7  N   UNL     1      -3.591  11.601  16.602  0.00  0.00    +0.000 NA
ATOM      8  C   UNL     1      -4.922  11.734  16.837  0.00  0.00    +0.000 A 
ATOM      9  C   UNL     1      -5.473  11.771  18.096  0.00  0.00    +0.000 A 
ATOM     10  C   UNL     1      -4.532  11.825  19.099  0.00  0.00    +0.000 A 
ATOM     11  N   UNL     1      -3.232  11.630  18.921  0.00  0.00    +0.000 NA
ATOM     12  C   UNL     1      -4.985  12.157  20.430  0.00  0.00    +0.000 A 
ATOM     13  C   UNL     1      -6.305  11.881  20.811  0.00  0.00    +0.000 A 
ATOM     14  N   UNL     1      -6.617  12.412  21.985  0.00  0.00    +0.000 NA
ATOM     15  N   UNL     1      -5.500  13.121  22.312  0.00  0.00    +0.000 N 
ATOM     16  C   UNL     1      -5.576  13.933  23.502  0.00  0.00    +0.000 C 
ATOM     17  C   UNL     1      -4.514  13.110  21.331  0.00  0.00    +0.000 A 
ATOM     18  C   UNL     1      -7.250  11.250  19.842  0.00  0.00    +0.000 C 
ATOM     19  C   UNL     1      -6.946  11.842  18.426  0.00  0.00    +0.000 C 
ATOM     20  N   UNL     1       0.420   9.804  18.033  0.00  0.00    +0.000 NA
ATOM     21  H   UNL     1      -1.254  11.019  16.504  0.00  0.00    +0.000 HD
ENDROOT
BRANCH  17  22
ATOM     22  C   UNL     1      -3.331  14.014  21.242  0.00  0.00    +0.000 A 
ATOM     23  C   UNL     1      -3.380  15.314  20.721  0.00  0.00    +0.000 A 
ATOM     24  C   UNL     1      -2.243  16.124  20.663  0.00  0.00    +0.000 A 
ATOM     25  C   UNL     1      -1.027  15.684  21.184  0.00  0.00    +0.000 A 
ATOM     26  C   UNL     1      -0.948  14.409  21.715  0.00  0.00    +0.000 A 
ATOM     27  C   UNL     1      -2.069  13.581  21.696  0.00  0.00    +0.000 A 
ENDBRANCH  17  22
BRANCH   1  28
ATOM     28  C   UNL     1       2.013   8.419  19.243  0.00  0.00    +0.000 C 
BRANCH  28  29
ATOM     29  C   UNL     1       1.814   7.257  20.207  0.00  0.00    +0.000 C 
BRANCH  29  31
ATOM     30  C   UNL     1       2.357   4.970  20.383  0.00  0.00    +0.000 C 
ATOM     31  O   UNL     1       2.011   6.030  19.500  0.00  0.00    +0.000 OA
ENDBRANCH  29  31
ENDBRANCH  28  29
ENDBRANCH   1  28
TORSDOF 4
ENDMDL
MODEL 6
REMARK VINA RESULT:      -6.4      8.544     11.907
REMARK  Name = 
REMARK  6 active torsions:
REMARK  status: ('A' for Active; 'I' for Inactive)
REMARK    1  A    between atoms: C_1  and  O_2
REMARK    2  A    between atoms: O_2  and  C_3
REMARK    3  A    between atoms: C_3  and  C_4
REMARK    4  A    between atoms: C_4  and  N_5
REMARK    5  A    between atoms: N_19  and  C_20
REMARK    6  A    between atoms: C_21  and  C_22
REMARK                            x       y       z     vdW  Elec       q    Type
REMARK                         _______ _______ _______ _____ _____    ______ ____
ROOT
ATOM      1  N   UNL     1      -3.347  10.534  16.613  0.00  0.00    +0.000 N 
ATOM      2  C   UNL     1      -2.636  10.803  17.744  0.00  0.00    +0.000 A 
ATOM      3  C   UNL     1      -3.362  11.750  18.414  0.00  0.00    +0.000 A 
ATOM      4  C   UNL     1      -4.532  11.970  17.640  0.00  0.00    +0.000 A 
ATOM      5  N   UNL     1      -5.581  12.747  17.982  0.00  0.00    +0.000 N 
ATOM      6  C   UNL     1      -5.958  13.097  19.281  0.00  0.00    +0.000 A 
ATOM      7  N   UNL     1      -7.236  13.433  19.521  0.00  0.00    +0.000 NA
ATOM      8  C   UNL     1      -7.605  13.580  20.821  0.00  0.00    +0.000 A 
ATOM      9  C   UNL     1      -6.742  13.422  21.879  0.00  0.00    +0.000 A 
ATOM     10  C   UNL     1      -5.431  13.262  21.491  0.00  0.00    +0.000 A 
ATOM     11  N   UNL     1      -5.038  13.046  20.243  0.00  0.00    +0.000 NA
ATOM     12  C   UNL     1      -4.410  13.379  22.507  0.00  0.00    +0.000 A 
ATOM     13  C   UNL     1      -4.716  13.097  23.845  0.00  0.00    +0.000 A 
ATOM     14  N   UNL     1      -3.734  13.430  24.671  0.00  0.00    +0.000 NA
ATOM     15  N   UNL     1      -2.824  14.024  23.849  0.00  0.00    +0.000 N 
ATOM     16  C   UNL     1      -1.674  14.620  24.484  0.00  0.00    +0.000 C 
ATOM     17  C   UNL     1      -3.244  14.141  22.529  0.00  0.00    +0.000 A 
ATOM     18  C   UNL     1      -6.098  12.684  24.227  0.00  0.00    +0.000 C 
ATOM     19  C   UNL     1      -7.101  13.498  23.345  0.00  0.00    +0.000 C 
ATOM     20  N   UNL     1      -4.494  11.247  16.511  0.00  0.00    +0.000 NA
ATOM     21  H   UNL     1      -6.375  12.777  17.368  0.00  0.00    +0.000 HD
ENDROOT
BRANCH  17  22
ATOM     22  C   UNL     1      -2.634  14.995  21.468  0.00  0.00    +0.000 A 
ATOM     23  C   UNL     1      -3.113  16.265  21.119  0.00  0.00    +0.000 A 
ATOM     24  C   UNL     1      -2.504  17.029  20.120  0.00  0.00    +0.000 A 
ATOM     25  C   UNL     1      -1.352  16.575  19.479  0.00  0.00    +0.000 A 
ATOM     26  C   UNL     1      -0.847  15.331  19.809  0.00  0.00    +0.000 A 
ATOM     27  C   UNL     1      -1.508  14.543  20.750  0.00  0.00    +0.000 A 
ENDBRANCH  17  22
BRANCH   1  28
ATOM     28  C   UNL     1      -2.959   9.607  15.576  0.00  0.00    +0.000 C 
BRANCH  28  29
ATOM     29  C   UNL     1      -3.142  10.187  14.180  0.00  0.00    +0.000 C 
BRANCH  29  31
ATOM     30  C   UNL     1      -4.377   9.814  12.207  0.00  0.00    +0.000 C 
ATOM     31  O   UNL     1      -4.357   9.679  13.624  0.00  0.00    +0.000 OA
ENDBRANCH  29  31
ENDBRANCH  28  29
ENDBRANCH   1  28
TORSDOF 4
ENDMDL
MODEL 7
REMARK VINA RESULT:      -6.4      4.384     10.677
REMARK  Name = 
REMARK  6 active torsions:
REMARK  status: ('A' for Active; 'I' for Inactive)
REMARK    1  A    between atoms: C_1  and  O_2
REMARK    2  A    between atoms: O_2  and  C_3
REMARK    3  A    between atoms: C_3  and  C_4
REMARK    4  A    between atoms: C_4  and  N_5
REMARK    5  A    between atoms: N_19  and  C_20
REMARK    6  A    between atoms: C_21  and  C_22
REMARK                            x       y       z     vdW  Elec       q    Type
REMARK                         _______ _______ _______ _____ _____    ______ ____
ROOT
ATOM      1  N   UNL     1       1.123   9.085  19.097  0.00  0.00    +0.000 N 
ATOM      2  C   UNL     1       0.687   9.753  20.202  0.00  0.00    +0.000 A 
ATOM      3  C   UNL     1      -0.275  10.614  19.749  0.00  0.00    +0.000 A 
ATOM      4  C   UNL     1      -0.398  10.371  18.356  0.00  0.00    +0.000 A 
ATOM      5  N   UNL     1      -1.309  10.923  17.526  0.00  0.00    +0.000 N 
ATOM      6  C   UNL     1      -2.554  11.438  17.896  0.00  0.00    +0.000 A 
ATOM      7  N   UNL     1      -3.535  11.494  16.979  0.00  0.00    +0.000 NA
ATOM      8  C   UNL     1      -4.778  11.819  17.420  0.00  0.00    +0.000 A 
ATOM      9  C   UNL     1      -5.069  12.105  18.733  0.00  0.00    +0.000 A 
ATOM     10  C   UNL     1      -3.949  12.192  19.530  0.00  0.00    +0.000 A 
ATOM     11  N   UNL     1      -2.732  11.819  19.159  0.00  0.00    +0.000 NA
ATOM     12  C   UNL     1      -4.104  12.768  20.847  0.00  0.00    +0.000 A 
ATOM     13  C   UNL     1      -5.345  12.711  21.495  0.00  0.00    +0.000 A 
ATOM     14  N   UNL     1      -5.373  13.441  22.602  0.00  0.00    +0.000 NA
ATOM     15  N   UNL     1      -4.155  14.051  22.603  0.00  0.00    +0.000 N 
ATOM     16  C   UNL     1      -3.924  15.031  23.636  0.00  0.00    +0.000 C 
ATOM     17  C   UNL     1      -3.383  13.778  21.478  0.00  0.00    +0.000 A 
ATOM     18  C   UNL     1      -6.512  12.063  20.828  0.00  0.00    +0.000 C 
ATOM     19  C   UNL     1      -6.437  12.401  19.302  0.00  0.00    +0.000 C 
ATOM     20  N   UNL     1       0.498   9.457  17.955  0.00  0.00    +0.000 NA
ATOM     21  H   UNL     1      -1.324  10.627  16.567  0.00  0.00    +0.000 HD
ENDROOT
BRANCH  17  22
ATOM     22  C   UNL     1      -2.162  14.511  21.032  0.00  0.00    +0.000 A 
ATOM     23  C   UNL     1      -2.193  15.733  20.349  0.00  0.00    +0.000 A 
ATOM     24  C   UNL     1      -1.020  16.383  19.955  0.00  0.00    +0.000 A 
ATOM     25  C   UNL     1       0.230  15.862  20.289  0.00  0.00    +0.000 A 
ATOM     26  C   UNL     1       0.294  14.662  20.973  0.00  0.00    +0.000 A 
ATOM     27  C   UNL     1      -0.881  13.983  21.291  0.00  0.00    +0.000 A 
ENDBRANCH  17  22
BRANCH   1  28
ATOM     28  C   UNL     1       2.163   8.082  19.076  0.00  0.00    +0.000 C 
BRANCH  28  29
ATOM     29  C   UNL     1       2.902   8.040  17.746  0.00  0.00    +0.000 C 
BRANCH  29  31
ATOM     30  C   UNL     1       2.895   5.729  18.213  0.00  0.00    +0.000 C 
ATOM     31  O   UNL     1       3.632   6.814  17.661  0.00  0.00    +0.000 OA
ENDBRANCH  29  31
ENDBRANCH  28  29
ENDBRANCH   1  28
TORSDOF 4
ENDMDL
MODEL 8
REMARK VINA RESULT:      -6.4      4.394     10.655
REMARK  Name = 
REMARK  6 active torsions:
REMARK  status: ('A' for Active; 'I' for Inactive)
REMARK    1  A    between atoms: C_1  and  O_2
REMARK    2  A    between atoms: O_2  and  C_3
REMARK    3  A    between atoms: C_3  and  C_4
REMARK    4  A    between atoms: C_4  and  N_5
REMARK    5  A    between atoms: N_19  and  C_20
REMARK    6  A    between atoms: C_21  and  C_22
REMARK                            x       y       z     vdW  Elec       q    Type
REMARK                         _______ _______ _______ _____ _____    ______ ____
ROOT
ATOM      1  N   UNL     1       1.159   9.161  18.886  0.00  0.00    +0.000 N 
ATOM      2  C   UNL     1       0.774   9.831  20.008  0.00  0.00    +0.000 A 
ATOM      3  C   UNL     1      -0.220  10.680  19.601  0.00  0.00    +0.000 A 
ATOM      4  C   UNL     1      -0.411  10.428  18.217  0.00  0.00    +0.000 A 
ATOM      5  N   UNL     1      -1.369  10.966  17.432  0.00  0.00    +0.000 N 
ATOM      6  C   UNL     1      -2.598  11.471  17.863  0.00  0.00    +0.000 A 
ATOM      7  N   UNL     1      -3.626  11.512  16.997  0.00  0.00    +0.000 NA
ATOM      8  C   UNL     1      -4.848  11.827  17.500  0.00  0.00    +0.000 A 
ATOM      9  C   UNL     1      -5.074  12.117  18.824  0.00  0.00    +0.000 A 
ATOM     10  C   UNL     1      -3.916  12.219  19.562  0.00  0.00    +0.000 A 
ATOM     11  N   UNL     1      -2.716  11.856  19.132  0.00  0.00    +0.000 NA
ATOM     12  C   UNL     1      -4.009  12.801  20.882  0.00  0.00    +0.000 A 
ATOM     13  C   UNL     1      -5.214  12.735  21.594  0.00  0.00    +0.000 A 
ATOM     14  N   UNL     1      -5.194  13.472  22.697  0.00  0.00    +0.000 NA
ATOM     15  N   UNL     1      -3.983  14.093  22.632  0.00  0.00    +0.000 N 
ATOM     16  C   UNL     1      -3.710  15.082  23.648  0.00  0.00    +0.000 C 
ATOM     17  C   UNL     1      -3.267  13.822  21.471  0.00  0.00    +0.000 A 
ATOM     18  C   UNL     1      -6.408  12.072  20.991  0.00  0.00    +0.000 C 
ATOM     19  C   UNL     1      -6.414  12.402  19.462  0.00  0.00    +0.000 C 
ATOM     20  N   UNL     1       0.472   9.520  17.776  0.00  0.00    +0.000 NA
ATOM     21  H   UNL     1      -1.430  10.664  16.477  0.00  0.00    +0.000 HD
ENDROOT
BRANCH  17  22
ATOM     22  C   UNL     1      -2.078  14.564  20.959  0.00  0.00    +0.000 A 
ATOM     23  C   UNL     1      -0.765  14.084  21.041  0.00  0.00    +0.000 A 
ATOM     24  C   UNL     1       0.316  14.815  20.543  0.00  0.00    +0.000 A 
ATOM     25  C   UNL     1       0.113  16.029  19.885  0.00  0.00    +0.000 A 
ATOM     26  C   UNL     1      -1.173  16.525  19.778  0.00  0.00    +0.000 A 
ATOM     27  C   UNL     1      -2.235  15.825  20.349  0.00  0.00    +0.000 A 
ENDBRANCH  17  22
BRANCH   1  28
ATOM     28  C   UNL     1       2.207   8.169  18.817  0.00  0.00    +0.000 C 
BRANCH  28  29
ATOM     29  C   UNL     1       2.120   7.155  19.950  0.00  0.00    +0.000 C 
BRANCH  29  31
ATOM     30  C   UNL     1       2.593   5.270  18.614  0.00  0.00    +0.000 C 
ATOM     31  O   UNL     1       3.038   6.090  19.689  0.00  0.00    +0.000 OA
ENDBRANCH  29  31
ENDBRANCH  28  29
ENDBRANCH   1  28
TORSDOF 4
ENDMDL
MODEL 9
REMARK VINA RESULT:      -6.3      6.131      9.300
REMARK  Name = 
REMARK  6 active torsions:
REMARK  status: ('A' for Active; 'I' for Inactive)
REMARK    1  A    between atoms: C_1  and  O_2
REMARK    2  A    between atoms: O_2  and  C_3
REMARK    3  A    between atoms: C_3  and  C_4
REMARK    4  A    between atoms: C_4  and  N_5
REMARK    5  A    between atoms: N_19  and  C_20
REMARK    6  A    between atoms: C_21  and  C_22
REMARK                            x       y       z     vdW  Elec       q    Type
REMARK                         _______ _______ _______ _____ _____    ______ ____
ROOT
ATOM      1  N   UNL     1       3.477  15.531  19.016  0.00  0.00    +0.000 N 
ATOM      2  C   UNL     1       2.632  14.815  18.223  0.00  0.00    +0.000 A 
ATOM      3  C   UNL     1       1.845  14.098  19.084  0.00  0.00    +0.000 A 
ATOM      4  C   UNL     1       2.249  14.474  20.392  0.00  0.00    +0.000 A 
ATOM      5  N   UNL     1       1.666  14.092  21.549  0.00  0.00    +0.000 N 
ATOM      6  C   UNL     1       0.342  13.674  21.705  0.00  0.00    +0.000 A 
ATOM      7  N   UNL     1      -0.244  13.798  22.908  0.00  0.00    +0.000 NA
ATOM      8  C   UNL     1      -1.580  13.562  22.974  0.00  0.00    +0.000 A 
ATOM      9  C   UNL     1      -2.342  13.191  21.891  0.00  0.00    +0.000 A 
ATOM     10  C   UNL     1      -1.593  12.922  20.768  0.00  0.00    +0.000 A 
ATOM     11  N   UNL     1      -0.303  13.203  20.639  0.00  0.00    +0.000 NA
ATOM     12  C   UNL     1      -2.247  12.250  19.668  0.00  0.00    +0.000 A 
ATOM     13  C   UNL     1      -3.632  12.374  19.495  0.00  0.00    +0.000 A 
ATOM     14  N   UNL     1      -4.103  11.555  18.564  0.00  0.00    +0.000 NA
ATOM     15  N   UNL     1      -3.007  10.828  18.207  0.00  0.00    +0.000 N 
ATOM     16  C   UNL     1      -3.226   9.742  17.283  0.00  0.00    +0.000 C 
ATOM     17  C   UNL     1      -1.866  11.121  18.947  0.00  0.00    +0.000 A 
ATOM     18  C   UNL     1      -4.438  13.192  20.448  0.00  0.00    +0.000 C 
ATOM     19  C   UNL     1      -3.839  12.985  21.879  0.00  0.00    +0.000 C 
ATOM     20  N   UNL     1       3.283  15.326  20.341  0.00  0.00    +0.000 NA
ATOM     21  H   UNL     1       2.016  14.472  22.410  0.00  0.00    +0.000 HD
ENDROOT
BRANCH  17  22
ATOM     22  C   UNL     1      -0.614  10.312  19.019  0.00  0.00    +0.000 A 
ATOM     23  C   UNL     1       0.255  10.123  17.936  0.00  0.00    +0.000 A 
ATOM     24  C   UNL     1       1.418   9.359  18.055  0.00  0.00    +0.000 A 
ATOM     25  C   UNL     1       1.788   8.808  19.282  0.00  0.00    +0.000 A 
ATOM     26  C   UNL     1       0.956   8.986  20.373  0.00  0.00    +0.000 A 
ATOM     27  C   UNL     1      -0.241   9.683  20.224  0.00  0.00    +0.000 A 
ENDBRANCH  17  22
BRANCH   1  28
ATOM     28  C   UNL     1       4.514  16.422  18.551  0.00  0.00    +0.000 C 
BRANCH  28  29
ATOM     29  C   UNL     1       5.905  15.958  18.961  0.00  0.00    +0.000 C 
BRANCH  29  31
ATOM     30  C   UNL     1       7.723  14.989  17.814  0.00  0.00    +0.000 C 
ATOM     31  O   UNL     1       6.326  14.917  18.076  0.00  0.00    +0.000 OA
ENDBRANCH  29  31
ENDBRANCH  28  29
ENDBRANCH   1  28
TORSDOF 4
ENDMDL
