MODEL 1
REMARK VINA RESULT:      -7.7      0.000      0.000
REMARK  Name = 
REMARK  7 active torsions:
REMARK  status: ('A' for Active; 'I' for Inactive)
REMARK    1  A    between atoms: C_1  and  C_2
REMARK    2  A    between atoms: C_2  and  C_3
REMARK    3  A    between atoms: C_11  and  C_12
REMARK    4  A    between atoms: C_11  and  O_13
REMARK    5  A    between atoms: O_13  and  C_14
REMARK    6  A    between atoms: C_17  and  C_18
REMARK    7  A    between atoms: C_19  and  C_20
REMARK                            x       y       z     vdW  Elec       q    Type
REMARK                         _______ _______ _______ _____ _____    ______ ____
ROOT
ATOM      1  C   UNL     1       6.564   6.487  17.570  0.00  0.00    +0.000 A 
ATOM      2  N   UNL     1       7.708   5.785  17.406  0.00  0.00    +0.000 NA
ATOM      3  C   UNL     1       7.685   4.519  17.830  0.00  0.00    +0.000 A 
ATOM      4  N   UNL     1       6.642   3.894  18.388  0.00  0.00    +0.000 NA
ATOM      5  C   UNL     1       5.503   4.594  18.571  0.00  0.00    +0.000 A 
ATOM      6  N   UNL     1       4.435   3.899  19.100  0.00  0.00    +0.000 N 
ATOM      7  C   UNL     1       4.331   2.455  18.915  0.00  0.00    +0.000 C 
ATOM      8  C   UNL     1       2.915   2.178  18.395  0.00  0.00    +0.000 C 
ATOM      9  C   UNL     1       1.822   2.752  19.329  0.00  0.00    +0.000 C 
ATOM     10  C   UNL     1       0.453   2.704  18.631  0.00  0.00    +0.000 C 
ATOM     11  C   UNL     1       2.125   4.232  19.666  0.00  0.00    +0.000 C 
ATOM     12  C   UNL     1       3.565   4.417  20.147  0.00  0.00    +0.000 C 
ATOM     13  C   UNL     1       5.425   5.938  18.160  0.00  0.00    +0.000 A 
ENDROOT
BRANCH   1  15
ATOM     14  C   UNL     1       7.731   8.703  17.567  0.00  0.00    +0.000 C 
ATOM     15  C   UNL     1       6.583   7.882  16.994  0.00  0.00    +0.000 C 
ENDBRANCH   1  15
BRANCH   9  16
ATOM     16  O   UNL     1       1.777   2.079  20.600  0.00  0.00    +0.000 OA
ATOM     17  C   UNL     1       1.266   2.809  21.703  0.00  0.00    +0.000 C 
ENDBRANCH   9  16
BRANCH  13  18
ATOM     18  C   UNL     1       4.215   6.713  18.257  0.00  0.00    +0.000 C 
ATOM     19  C   UNL     1       3.239   7.399  18.408  0.00  0.00    +0.000 C 
BRANCH  19  20
ATOM     20  C   UNL     1       2.132   8.240  18.737  0.00  0.00    +0.000 A 
ATOM     21  C   UNL     1       1.534   9.040  17.768  0.00  0.00    +0.000 A 
ATOM     22  C   UNL     1       0.492   9.891  18.131  0.00  0.00    +0.000 A 
ATOM     23  C   UNL     1       0.082   9.925  19.458  0.00  0.00    +0.000 A 
ATOM     24  N   UNL     1      -0.975  10.740  19.849  0.00  0.00    +0.000 N 
ATOM     25  N   UNL     1       0.637   9.158  20.410  0.00  0.00    +0.000 NA
ATOM     26  C   UNL     1       1.650   8.334  20.033  0.00  0.00    +0.000 A 
ATOM     27  H   UNL     1      -0.841  11.703  19.564  0.00  0.00    +0.000 HD
ATOM     28  H   UNL     1      -1.064  10.650  20.858  0.00  0.00    +0.000 HD
ENDBRANCH  19  20
ENDBRANCH  13  18
TORSDOF 4
ENDMDL
MODEL 2
REMARK VINA RESULT:      -7.6      2.249      5.072
REMARK  Name = 
REMARK  7 active torsions:
REMARK  status: ('A' for Active; 'I' for Inactive)
REMARK    1  A    between atoms: C_1  and  C_2
REMARK    2  A    between atoms: C_2  and  C_3
REMARK    3  A    between atoms: C_11  and  C_12
REMARK    4  A    between atoms: C_11  and  O_13
REMARK    5  A    between atoms: O_13  and  C_14
REMARK    6  A    between atoms: C_17  and  C_18
REMARK    7  A    between atoms: C_19  and  C_20
REMARK                            x       y       z     vdW  Elec       q    Type
REMARK                         _______ _______ _______ _____ _____    ______ ____
ROOT
ATOM      1  C   UNL     1       2.107   3.103  19.332  0.00  0.00    +0.000 A 
ATOM      2  N   UNL     1       2.316   1.770  19.232  0.00  0.00    +0.000 NA
ATOM      3  C   UNL     1       3.365   1.395  18.496  0.00  0.00    +0.000 A 
ATOM      4  N   UNL     1       4.218   2.211  17.865  0.00  0.00    +0.000 NA
ATOM      5  C   UNL     1       4.005   3.541  17.947  0.00  0.00    +0.000 A 
ATOM      6  N   UNL     1       4.935   4.349  17.327  0.00  0.00    +0.000 N 
ATOM      7  C   UNL     1       6.306   3.884  17.138  0.00  0.00    +0.000 C 
ATOM      8  C   UNL     1       7.225   4.994  17.660  0.00  0.00    +0.000 C 
ATOM      9  C   UNL     1       6.947   6.358  16.983  0.00  0.00    +0.000 C 
ATOM     10  C   UNL     1       7.681   7.481  17.733  0.00  0.00    +0.000 C 
ATOM     11  C   UNL     1       5.433   6.679  17.022  0.00  0.00    +0.000 C 
ATOM     12  C   UNL     1       4.595   5.507  16.511  0.00  0.00    +0.000 C 
ATOM     13  C   UNL     1       2.923   4.039  18.697  0.00  0.00    +0.000 A 
ENDROOT
BRANCH   1  15
ATOM     14  C   UNL     1       1.187   2.966  21.657  0.00  0.00    +0.000 C 
ATOM     15  C   UNL     1       0.977   3.505  20.248  0.00  0.00    +0.000 C 
ENDBRANCH   1  15
BRANCH   9  16
ATOM     16  O   UNL     1       7.294   6.358  15.587  0.00  0.00    +0.000 OA
ATOM     17  C   UNL     1       7.539   5.100  14.979  0.00  0.00    +0.000 C 
ENDBRANCH   9  16
BRANCH  13  18
ATOM     18  C   UNL     1       2.690   5.449  18.885  0.00  0.00    +0.000 C 
ATOM     19  C   UNL     1       2.423   6.616  18.994  0.00  0.00    +0.000 C 
BRANCH  19  20
ATOM     20  C   UNL     1       2.010   7.984  18.997  0.00  0.00    +0.000 A 
ATOM     21  C   UNL     1       2.245   8.801  17.895  0.00  0.00    +0.000 A 
ATOM     22  C   UNL     1       1.881  10.145  17.950  0.00  0.00    +0.000 A 
ATOM     23  C   UNL     1       1.299  10.637  19.111  0.00  0.00    +0.000 A 
ATOM     24  N   UNL     1       0.896  11.966  19.189  0.00  0.00    +0.000 N 
ATOM     25  N   UNL     1       1.055   9.868  20.185  0.00  0.00    +0.000 NA
ATOM     26  C   UNL     1       1.416   8.561  20.109  0.00  0.00    +0.000 A 
ATOM     27  H   UNL     1       1.642  12.607  18.947  0.00  0.00    +0.000 HD
ATOM     28  H   UNL     1       0.553  12.119  20.134  0.00  0.00    +0.000 HD
ENDBRANCH  19  20
ENDBRANCH  13  18
TORSDOF 4
ENDMDL
MODEL 3
REMARK VINA RESULT:      -7.6      2.258      5.079
REMARK  Name = 
REMARK  7 active torsions:
REMARK  status: ('A' for Active; 'I' for Inactive)
REMARK    1  A    between atoms: C_1  and  C_2
REMARK    2  A    between atoms: C_2  and  C_3
REMARK    3  A    between atoms: C_11  and  C_12
REMARK    4  A    between atoms: C_11  and  O_13
REMARK    5  A    between atoms: O_13  and  C_14
REMARK    6  A    between atoms: C_17  and  C_18
REMARK    7  A    between atoms: C_19  and  C_20
REMARK                            x       y       z     vdW  Elec       q    Type
REMARK                         _______ _______ _______ _____ _____    ______ ____
ROOT
ATOM      1  C   UNL     1       2.858   3.562  20.433  0.00  0.00    +0.000 A 
ATOM      2  N   UNL     1       3.322   2.358  20.838  0.00  0.00    +0.000 NA
ATOM      3  C   UNL     1       4.504   1.987  20.340  0.00  0.00    +0.000 A 
ATOM      4  N   UNL     1       5.260   2.696  19.494  0.00  0.00    +0.000 NA
ATOM      5  C   UNL     1       4.795   3.892  19.073  0.00  0.00    +0.000 A 
ATOM      6  N   UNL     1       5.627   4.615  18.244  0.00  0.00    +0.000 N 
ATOM      7  C   UNL     1       7.073   4.423  18.302  0.00  0.00    +0.000 C 
ATOM      8  C   UNL     1       7.699   5.817  18.423  0.00  0.00    +0.000 C 
ATOM      9  C   UNL     1       7.256   6.763  17.281  0.00  0.00    +0.000 C 
ATOM     10  C   UNL     1       7.672   8.209  17.601  0.00  0.00    +0.000 C 
ATOM     11  C   UNL     1       5.716   6.741  17.130  0.00  0.00    +0.000 C 
ATOM     12  C   UNL     1       5.179   5.312  17.046  0.00  0.00    +0.000 C 
ATOM     13  C   UNL     1       3.556   4.372  19.538  0.00  0.00    +0.000 A 
ENDROOT
BRANCH   1  15
ATOM     14  C   UNL     1       0.360   3.603  20.249  0.00  0.00    +0.000 C 
ATOM     15  C   UNL     1       1.570   4.002  21.085  0.00  0.00    +0.000 C 
ENDBRANCH   1  15
BRANCH   9  16
ATOM     16  O   UNL     1       7.765   6.353  15.999  0.00  0.00    +0.000 OA
ATOM     17  C   UNL     1       6.871   5.673  15.134  0.00  0.00    +0.000 C 
ENDBRANCH   9  16
BRANCH  13  18
ATOM     18  C   UNL     1       3.044   5.672  19.186  0.00  0.00    +0.000 C 
ATOM     19  C   UNL     1       2.625   6.779  18.976  0.00  0.00    +0.000 C 
BRANCH  19  20
ATOM     20  C   UNL     1       2.101   8.105  18.884  0.00  0.00    +0.000 A 
ATOM     21  C   UNL     1       1.350   8.648  19.923  0.00  0.00    +0.000 A 
ATOM     22  C   UNL     1       0.806   9.923  19.779  0.00  0.00    +0.000 A 
ATOM     23  C   UNL     1       1.021  10.618  18.596  0.00  0.00    +0.000 A 
ATOM     24  N   UNL     1       0.518  11.904  18.432  0.00  0.00    +0.000 N 
ATOM     25  N   UNL     1       1.748  10.119  17.582  0.00  0.00    +0.000 NA
ATOM     26  C   UNL     1       2.270   8.876  17.744  0.00  0.00    +0.000 A 
ATOM     27  H   UNL     1      -0.477  11.952  18.618  0.00  0.00    +0.000 HD
ATOM     28  H   UNL     1       0.743  12.193  17.484  0.00  0.00    +0.000 HD
ENDBRANCH  19  20
ENDBRANCH  13  18
TORSDOF 4
ENDMDL
MODEL 4
REMARK VINA RESULT:      -6.3      6.614     10.714
REMARK  Name = 
REMARK  7 active torsions:
REMARK  status: ('A' for Active; 'I' for Inactive)
REMARK    1  A    between atoms: C_1  and  C_2
REMARK    2  A    between atoms: C_2  and  C_3
REMARK    3  A    between atoms: C_11  and  C_12
REMARK    4  A    between atoms: C_11  and  O_13
REMARK    5  A    between atoms: O_13  and  C_14
REMARK    6  A    between atoms: C_17  and  C_18
REMARK    7  A    between atoms: C_19  and  C_20
REMARK                            x       y       z     vdW  Elec       q    Type
REMARK                         _______ _______ _______ _____ _____    ______ ____
ROOT
ATOM      1  C   UNL     1      -5.670  12.573  19.442  0.00  0.00    +0.000 A 
ATOM      2  N   UNL     1      -6.241  12.174  18.283  0.00  0.00    +0.000 NA
ATOM      3  C   UNL     1      -5.412  11.675  17.363  0.00  0.00    +0.000 A 
ATOM      4  N   UNL     1      -4.088  11.531  17.490  0.00  0.00    +0.000 NA
ATOM      5  C   UNL     1      -3.510  11.944  18.638  0.00  0.00    +0.000 A 
ATOM      6  N   UNL     1      -2.152  11.730  18.750  0.00  0.00    +0.000 N 
ATOM      7  C   UNL     1      -1.512  10.646  18.011  0.00  0.00    +0.000 C 
ATOM      8  C   UNL     1      -0.668   9.861  19.021  0.00  0.00    +0.000 C 
ATOM      9  C   UNL     1       0.342  10.763  19.773  0.00  0.00    +0.000 C 
ATOM     10  C   UNL     1       0.952   9.998  20.959  0.00  0.00    +0.000 C 
ATOM     11  C   UNL     1      -0.373  12.014  20.339  0.00  0.00    +0.000 C 
ATOM     12  C   UNL     1      -1.213  12.714  19.270  0.00  0.00    +0.000 C 
ATOM     13  C   UNL     1      -4.297  12.487  19.670  0.00  0.00    +0.000 A 
ENDROOT
BRANCH   1  15
ATOM     14  C   UNL     1      -7.341  11.866  21.169  0.00  0.00    +0.000 C 
ATOM     15  C   UNL     1      -6.638  13.041  20.502  0.00  0.00    +0.000 C 
ENDBRANCH   1  15
BRANCH   9  16
ATOM     16  O   UNL     1       1.369  11.276  18.907  0.00  0.00    +0.000 OA
ATOM     17  C   UNL     1       2.085  10.337  18.121  0.00  0.00    +0.000 C 
ENDBRANCH   9  16
BRANCH  13  18
ATOM     18  C   UNL     1      -3.749  12.873  20.946  0.00  0.00    +0.000 C 
ATOM     19  C   UNL     1      -3.314  13.277  21.991  0.00  0.00    +0.000 C 
BRANCH  19  20
ATOM     20  C   UNL     1      -2.797  13.902  23.167  0.00  0.00    +0.000 A 
ATOM     21  C   UNL     1      -3.654  14.409  24.140  0.00  0.00    +0.000 A 
ATOM     22  C   UNL     1      -3.119  15.063  25.248  0.00  0.00    +0.000 A 
ATOM     23  C   UNL     1      -1.741  15.200  25.349  0.00  0.00    +0.000 A 
ATOM     24  N   UNL     1      -1.173  15.821  26.457  0.00  0.00    +0.000 N 
ATOM     25  N   UNL     1      -0.892  14.714  24.428  0.00  0.00    +0.000 NA
ATOM     26  C   UNL     1      -1.435  14.079  23.357  0.00  0.00    +0.000 A 
ATOM     27  H   UNL     1      -1.567  16.739  26.625  0.00  0.00    +0.000 HD
ATOM     28  H   UNL     1      -0.170  15.860  26.296  0.00  0.00    +0.000 HD
ENDBRANCH  19  20
ENDBRANCH  13  18
TORSDOF 4
ENDMDL
MODEL 5
REMARK VINA RESULT:      -6.3      7.141     10.359
REMARK  Name = 
REMARK  7 active torsions:
REMARK  status: ('A' for Active; 'I' for Inactive)
REMARK    1  A    between atoms: C_1  and  C_2
REMARK    2  A    between atoms: C_2  and  C_3
REMARK    3  A    between atoms: C_11  and  C_12
REMARK    4  A    between atoms: C_11  and  O_13
REMARK    5  A    between atoms: O_13  and  C_14
REMARK    6  A    between atoms: C_17  and  C_18
REMARK    7  A    between atoms: C_19  and  C_20
REMARK                            x       y       z     vdW  Elec       q    Type
REMARK                         _______ _______ _______ _____ _____    ______ ____
ROOT
ATOM      1  C   UNL     1      -4.618  11.517  16.985  0.00  0.00    +0.000 A 
ATOM      2  N   UNL     1      -4.200  11.024  15.797  0.00  0.00    +0.000 NA
ATOM      3  C   UNL     1      -2.903  10.715  15.715  0.00  0.00    +0.000 A 
ATOM      4  N   UNL     1      -1.999  10.841  16.693  0.00  0.00    +0.000 NA
ATOM      5  C   UNL     1      -2.408  11.348  17.876  0.00  0.00    +0.000 A 
ATOM      6  N   UNL     1      -1.458  11.412  18.874  0.00  0.00    +0.000 N 
ATOM      7  C   UNL     1      -0.327  10.489  18.877  0.00  0.00    +0.000 C 
ATOM      8  C   UNL     1      -0.258   9.878  20.281  0.00  0.00    +0.000 C 
ATOM      9  C   UNL     1      -0.166  10.956  21.389  0.00  0.00    +0.000 C 
ATOM     10  C   UNL     1      -0.389  10.315  22.769  0.00  0.00    +0.000 C 
ATOM     11  C   UNL     1      -1.263  12.029  21.187  0.00  0.00    +0.000 C 
ATOM     12  C   UNL     1      -1.276  12.559  19.753  0.00  0.00    +0.000 C 
ATOM     13  C   UNL     1      -3.755  11.707  18.064  0.00  0.00    +0.000 A 
ENDROOT
BRANCH   1  15
ATOM     14  C   UNL     1      -6.436  13.235  16.863  0.00  0.00    +0.000 C 
ATOM     15  C   UNL     1      -6.104  11.765  17.084  0.00  0.00    +0.000 C 
ENDBRANCH   1  15
BRANCH   9  16
ATOM     16  O   UNL     1       1.078  11.678  21.350  0.00  0.00    +0.000 OA
ATOM     17  C   UNL     1       1.009  13.093  21.425  0.00  0.00    +0.000 C 
ENDBRANCH   9  16
BRANCH  13  18
ATOM     18  C   UNL     1      -4.266  12.180  19.325  0.00  0.00    +0.000 C 
ATOM     19  C   UNL     1      -4.764  12.525  20.364  0.00  0.00    +0.000 C 
BRANCH  19  20
ATOM     20  C   UNL     1      -5.494  12.883  21.539  0.00  0.00    +0.000 A 
ATOM     21  C   UNL     1      -4.850  13.004  22.767  0.00  0.00    +0.000 A 
ATOM     22  C   UNL     1      -5.598  13.299  23.905  0.00  0.00    +0.000 A 
ATOM     23  C   UNL     1      -6.973  13.457  23.784  0.00  0.00    +0.000 A 
ATOM     24  N   UNL     1      -7.746  13.782  24.894  0.00  0.00    +0.000 N 
ATOM     25  N   UNL     1      -7.617  13.352  22.610  0.00  0.00    +0.000 NA
ATOM     26  C   UNL     1      -6.868  13.066  21.514  0.00  0.00    +0.000 A 
ATOM     27  H   UNL     1      -7.596  13.143  25.665  0.00  0.00    +0.000 HD
ATOM     28  H   UNL     1      -8.716  13.792  24.590  0.00  0.00    +0.000 HD
ENDBRANCH  19  20
ENDBRANCH  13  18
TORSDOF 4
ENDMDL
MODEL 6
REMARK VINA RESULT:      -6.2      7.127     12.509
REMARK  Name = 
REMARK  7 active torsions:
REMARK  status: ('A' for Active; 'I' for Inactive)
REMARK    1  A    between atoms: C_1  and  C_2
REMARK    2  A    between atoms: C_2  and  C_3
REMARK    3  A    between atoms: C_11  and  C_12
REMARK    4  A    between atoms: C_11  and  O_13
REMARK    5  A    between atoms: O_13  and  C_14
REMARK    6  A    between atoms: C_17  and  C_18
REMARK    7  A    between atoms: C_19  and  C_20
REMARK                            x       y       z     vdW  Elec       q    Type
REMARK                         _______ _______ _______ _____ _____    ______ ____
ROOT
ATOM      1  C   UNL     1      -3.263  15.408  24.544  0.00  0.00    +0.000 A 
ATOM      2  N   UNL     1      -3.924  16.446  25.107  0.00  0.00    +0.000 NA
ATOM      3  C   UNL     1      -5.112  16.741  24.574  0.00  0.00    +0.000 A 
ATOM      4  N   UNL     1      -5.698  16.106  23.553  0.00  0.00    +0.000 NA
ATOM      5  C   UNL     1      -5.036  15.081  22.976  0.00  0.00    +0.000 A 
ATOM      6  N   UNL     1      -5.697  14.418  21.963  0.00  0.00    +0.000 N 
ATOM      7  C   UNL     1      -7.156  14.403  21.921  0.00  0.00    +0.000 C 
ATOM      8  C   UNL     1      -7.578  12.940  21.743  0.00  0.00    +0.000 C 
ATOM      9  C   UNL     1      -6.927  12.287  20.499  0.00  0.00    +0.000 C 
ATOM     10  C   UNL     1      -7.146  10.765  20.526  0.00  0.00    +0.000 C 
ATOM     11  C   UNL     1      -5.400  12.540  20.496  0.00  0.00    +0.000 C 
ATOM     12  C   UNL     1      -5.074  14.019  20.709  0.00  0.00    +0.000 C 
ATOM     13  C   UNL     1      -3.774  14.691  23.463  0.00  0.00    +0.000 A 
ENDROOT
BRANCH   1  15
ATOM     14  C   UNL     1      -1.508  16.122  26.182  0.00  0.00    +0.000 C 
ATOM     15  C   UNL     1      -1.969  15.031  25.225  0.00  0.00    +0.000 C 
ENDBRANCH   1  15
BRANCH   9  16
ATOM     16  O   UNL     1      -7.405  12.854  19.267  0.00  0.00    +0.000 OA
ATOM     17  C   UNL     1      -7.112  12.150  18.071  0.00  0.00    +0.000 C 
ENDBRANCH   9  16
BRANCH  13  18
ATOM     18  C   UNL     1      -3.054  13.558  22.940  0.00  0.00    +0.000 C 
ATOM     19  C   UNL     1      -2.395  12.624  22.567  0.00  0.00    +0.000 C 
BRANCH  19  20
ATOM     20  C   UNL     1      -1.492  11.576  22.210  0.00  0.00    +0.000 A 
ATOM     21  C   UNL     1      -1.049  11.435  20.898  0.00  0.00    +0.000 A 
ATOM     22  C   UNL     1      -0.213  10.370  20.570  0.00  0.00    +0.000 A 
ATOM     23  C   UNL     1       0.150   9.468  21.562  0.00  0.00    +0.000 A 
ATOM     24  N   UNL     1       1.007   8.411  21.275  0.00  0.00    +0.000 N 
ATOM     25  N   UNL     1      -0.258   9.586  22.837  0.00  0.00    +0.000 NA
ATOM     26  C   UNL     1      -1.070  10.633  23.135  0.00  0.00    +0.000 A 
ATOM     27  H   UNL     1       0.685   7.860  20.489  0.00  0.00    +0.000 HD
ATOM     28  H   UNL     1       1.090   7.855  22.123  0.00  0.00    +0.000 HD
ENDBRANCH  19  20
ENDBRANCH  13  18
TORSDOF 4
ENDMDL
MODEL 7
REMARK VINA RESULT:      -6.1      5.207      9.209
REMARK  Name = 
REMARK  7 active torsions:
REMARK  status: ('A' for Active; 'I' for Inactive)
REMARK    1  A    between atoms: C_1  and  C_2
REMARK    2  A    between atoms: C_2  and  C_3
REMARK    3  A    between atoms: C_11  and  C_12
REMARK    4  A    between atoms: C_11  and  O_13
REMARK    5  A    between atoms: O_13  and  C_14
REMARK    6  A    between atoms: C_17  and  C_18
REMARK    7  A    between atoms: C_19  and  C_20
REMARK                            x       y       z     vdW  Elec       q    Type
REMARK                         _______ _______ _______ _____ _____    ______ ____
ROOT
ATOM      1  C   UNL     1       1.093   9.162  19.905  0.00  0.00    +0.000 A 
ATOM      2  N   UNL     1       1.827   8.555  18.944  0.00  0.00    +0.000 NA
ATOM      3  C   UNL     1       2.279   9.344  17.967  0.00  0.00    +0.000 A 
ATOM      4  N   UNL     1       2.077  10.662  17.861  0.00  0.00    +0.000 NA
ATOM      5  C   UNL     1       1.332  11.270  18.807  0.00  0.00    +0.000 A 
ATOM      6  N   UNL     1       1.192  12.638  18.692  0.00  0.00    +0.000 N 
ATOM      7  C   UNL     1       2.212  13.428  18.009  0.00  0.00    +0.000 C 
ATOM      8  C   UNL     1       2.571  14.589  18.944  0.00  0.00    +0.000 C 
ATOM      9  C   UNL     1       1.331  15.420  19.354  0.00  0.00    +0.000 C 
ATOM     10  C   UNL     1       1.693  16.378  20.502  0.00  0.00    +0.000 C 
ATOM     11  C   UNL     1       0.202  14.489  19.858  0.00  0.00    +0.000 C 
ATOM     12  C   UNL     1      -0.066  13.347  18.878  0.00  0.00    +0.000 C 
ATOM     13  C   UNL     1       0.807  10.526  19.880  0.00  0.00    +0.000 A 
ENDROOT
BRANCH   1  15
ATOM     14  C   UNL     1       1.391   6.924  20.991  0.00  0.00    +0.000 C 
ATOM     15  C   UNL     1       0.678   8.269  21.050  0.00  0.00    +0.000 C 
ENDBRANCH   1  15
BRANCH   9  16
ATOM     16  O   UNL     1       0.760  16.137  18.245  0.00  0.00    +0.000 OA
ATOM     17  C   UNL     1      -0.275  17.062  18.535  0.00  0.00    +0.000 C 
ENDBRANCH   9  16
BRANCH  13  18
ATOM     18  C   UNL     1       0.070  11.131  20.961  0.00  0.00    +0.000 C 
ATOM     19  C   UNL     1      -0.582  11.689  21.803  0.00  0.00    +0.000 C 
BRANCH  19  20
ATOM     20  C   UNL     1      -1.377  12.469  22.698  0.00  0.00    +0.000 A 
ATOM     21  C   UNL     1      -2.642  12.037  23.087  0.00  0.00    +0.000 A 
ATOM     22  C   UNL     1      -3.416  12.846  23.916  0.00  0.00    +0.000 A 
ATOM     23  C   UNL     1      -2.906  14.071  24.328  0.00  0.00    +0.000 A 
ATOM     24  N   UNL     1      -3.640  14.890  25.180  0.00  0.00    +0.000 N 
ATOM     25  N   UNL     1      -1.686  14.507  23.972  0.00  0.00    +0.000 NA
ATOM     26  C   UNL     1      -0.948  13.701  23.165  0.00  0.00    +0.000 A 
ATOM     27  H   UNL     1      -4.573  15.069  24.828  0.00  0.00    +0.000 HD
ATOM     28  H   UNL     1      -3.107  15.747  25.302  0.00  0.00    +0.000 HD
ENDBRANCH  19  20
ENDBRANCH  13  18
TORSDOF 4
ENDMDL
MODEL 8
REMARK VINA RESULT:      -6.1      8.221     11.467
REMARK  Name = 
REMARK  7 active torsions:
REMARK  status: ('A' for Active; 'I' for Inactive)
REMARK    1  A    between atoms: C_1  and  C_2
REMARK    2  A    between atoms: C_2  and  C_3
REMARK    3  A    between atoms: C_11  and  C_12
REMARK    4  A    between atoms: C_11  and  O_13
REMARK    5  A    between atoms: O_13  and  C_14
REMARK    6  A    between atoms: C_17  and  C_18
REMARK    7  A    between atoms: C_19  and  C_20
REMARK                            x       y       z     vdW  Elec       q    Type
REMARK                         _______ _______ _______ _____ _____    ______ ____
ROOT
ATOM      1  C   UNL     1      10.021  11.512  18.871  0.00  0.00    +0.000 A 
ATOM      2  N   UNL     1      10.717  11.600  17.714  0.00  0.00    +0.000 NA
ATOM      3  C   UNL     1      11.209  12.806  17.417  0.00  0.00    +0.000 A 
ATOM      4  N   UNL     1      11.081  13.914  18.155  0.00  0.00    +0.000 NA
ATOM      5  C   UNL     1      10.373  13.836  19.303  0.00  0.00    +0.000 A 
ATOM      6  N   UNL     1      10.309  14.986  20.061  0.00  0.00    +0.000 N 
ATOM      7  C   UNL     1      11.369  15.986  19.975  0.00  0.00    +0.000 C 
ATOM      8  C   UNL     1      11.795  16.303  21.414  0.00  0.00    +0.000 C 
ATOM      9  C   UNL     1      10.604  16.753  22.295  0.00  0.00    +0.000 C 
ATOM     10  C   UNL     1      11.023  16.779  23.774  0.00  0.00    +0.000 C 
ATOM     11  C   UNL     1       9.427  15.758  22.158  0.00  0.00    +0.000 C 
ATOM     12  C   UNL     1       9.093  15.480  20.692  0.00  0.00    +0.000 C 
ATOM     13  C   UNL     1       9.811  12.610  19.705  0.00  0.00    +0.000 A 
ENDROOT
BRANCH   1  15
ATOM     14  C   UNL     1       8.603   9.564  18.190  0.00  0.00    +0.000 C 
ATOM     15  C   UNL     1       9.561  10.121  19.234  0.00  0.00    +0.000 C 
ENDBRANCH   1  15
BRANCH   9  16
ATOM     16  O   UNL     1      10.071  18.025  21.888  0.00  0.00    +0.000 OA
ATOM     17  C   UNL     1       9.114  18.631  22.742  0.00  0.00    +0.000 C 
ENDBRANCH   9  16
BRANCH  13  18
ATOM     18  C   UNL     1       9.112  12.447  20.955  0.00  0.00    +0.000 C 
ATOM     19  C   UNL     1       8.473  12.372  21.970  0.00  0.00    +0.000 C 
BRANCH  19  20
ATOM     20  C   UNL     1       7.651  12.423  23.137  0.00  0.00    +0.000 A 
ATOM     21  C   UNL     1       7.994  11.710  24.282  0.00  0.00    +0.000 A 
ATOM     22  C   UNL     1       7.143  11.736  25.385  0.00  0.00    +0.000 A 
ATOM     23  C   UNL     1       5.965  12.468  25.309  0.00  0.00    +0.000 A 
ATOM     24  N   UNL     1       5.107  12.540  26.402  0.00  0.00    +0.000 N 
ATOM     25  N   UNL     1       5.614  13.170  24.218  0.00  0.00    +0.000 NA
ATOM     26  C   UNL     1       6.460  13.133  23.156  0.00  0.00    +0.000 A 
ATOM     27  H   UNL     1       4.855  11.623  26.750  0.00  0.00    +0.000 HD
ATOM     28  H   UNL     1       4.293  13.073  26.108  0.00  0.00    +0.000 HD
ENDBRANCH  19  20
ENDBRANCH  13  18
TORSDOF 4
ENDMDL
MODEL 9
REMARK VINA RESULT:      -6.0      8.304     11.453
REMARK  Name = 
REMARK  7 active torsions:
REMARK  status: ('A' for Active; 'I' for Inactive)
REMARK    1  A    between atoms: C_1  and  C_2
REMARK    2  A    between atoms: C_2  and  C_3
REMARK    3  A    between atoms: C_11  and  C_12
REMARK    4  A    between atoms: C_11  and  O_13
REMARK    5  A    between atoms: O_13  and  C_14
REMARK    6  A    between atoms: C_17  and  C_18
REMARK    7  A    between atoms: C_19  and  C_20
REMARK                            x       y       z     vdW  Elec       q    Type
REMARK                         _______ _______ _______ _____ _____    ______ ____
ROOT
ATOM      1  C   UNL     1       9.751  11.490  18.921  0.00  0.00    +0.000 A 
ATOM      2  N   UNL     1      10.435  11.632  17.762  0.00  0.00    +0.000 NA
ATOM      3  C   UNL     1      10.883  12.860  17.492  0.00  0.00    +0.000 A 
ATOM      4  N   UNL     1      10.722  13.944  18.260  0.00  0.00    +0.000 NA
ATOM      5  C   UNL     1      10.026  13.813  19.409  0.00  0.00    +0.000 A 
ATOM      6  N   UNL     1       9.929  14.941  20.198  0.00  0.00    +0.000 N 
ATOM      7  C   UNL     1      10.954  15.978  20.131  0.00  0.00    +0.000 C 
ATOM      8  C   UNL     1      11.379  16.273  21.574  0.00  0.00    +0.000 C 
ATOM      9  C   UNL     1      10.181  16.659  22.474  0.00  0.00    +0.000 C 
ATOM     10  C   UNL     1      10.609  16.662  23.951  0.00  0.00    +0.000 C 
ATOM     11  C   UNL     1       9.037  15.629  22.319  0.00  0.00    +0.000 C 
ATOM     12  C   UNL     1       8.701  15.377  20.849  0.00  0.00    +0.000 C 
ATOM     13  C   UNL     1       9.509  12.559  19.784  0.00  0.00    +0.000 A 
ENDROOT
BRANCH   1  15
ATOM     14  C   UNL     1       8.448   9.489  18.165  0.00  0.00    +0.000 C 
ATOM     15  C   UNL     1       9.341  10.076  19.251  0.00  0.00    +0.000 C 
ENDBRANCH   1  15
BRANCH   9  16
ATOM     16  O   UNL     1       9.601  17.923  22.103  0.00  0.00    +0.000 OA
ATOM     17  C   UNL     1       8.588  18.445  22.948  0.00  0.00    +0.000 C 
ENDBRANCH   9  16
BRANCH  13  18
ATOM     18  C   UNL     1       8.826  12.340  21.033  0.00  0.00    +0.000 C 
ATOM     19  C   UNL     1       8.319  12.205  22.115  0.00  0.00    +0.000 C 
BRANCH  19  20
ATOM     20  C   UNL     1       7.857  12.086  23.462  0.00  0.00    +0.000 A 
ATOM     21  C   UNL     1       6.594  11.571  23.738  0.00  0.00    +0.000 A 
ATOM     22  C   UNL     1       6.150  11.521  25.058  0.00  0.00    +0.000 A 
ATOM     23  C   UNL     1       6.979  11.995  26.066  0.00  0.00    +0.000 A 
ATOM     24  N   UNL     1       6.579  11.931  27.397  0.00  0.00    +0.000 N 
ATOM     25  N   UNL     1       8.205  12.489  25.826  0.00  0.00    +0.000 NA
ATOM     26  C   UNL     1       8.618  12.527  24.533  0.00  0.00    +0.000 A 
ATOM     27  H   UNL     1       5.673  12.358  27.544  0.00  0.00    +0.000 HD
ATOM     28  H   UNL     1       7.307  12.378  27.948  0.00  0.00    +0.000 HD
ENDBRANCH  19  20
ENDBRANCH  13  18
TORSDOF 4
ENDMDL
