MODEL 1
REMARK VINA RESULT:      -8.9      0.000      0.000
REMARK  Name = 
REMARK  3 active torsions:
REMARK  status: ('A' for Active; 'I' for Inactive)
REMARK    1  A    between atoms: C_1  and  N_2
REMARK    2  A    between atoms: C_8  and  C_9
REMARK    3  A    between atoms: C_19  and  C_20
REMARK                            x       y       z     vdW  Elec       q    Type
REMARK                         _______ _______ _______ _____ _____    ______ ____
ROOT
ATOM      1  C   UNL     1       5.278   3.963  19.246  0.00  0.00    +0.000 C 
ATOM      2  N   UNL     1       5.202   4.473  17.888  0.00  0.00    +0.000 NA
ATOM      3  C   UNL     1       5.930   5.724  17.909  0.00  0.00    +0.000 C 
ATOM      4  C   UNL     1       7.290   5.013  17.427  0.00  0.00    +0.000 C 
ATOM      5  C   UNL     1       6.943   3.858  16.472  0.00  0.00    +0.000 C 
ATOM      6  C   UNL     1       5.449   3.986  16.480  0.00  0.00    +0.000 C 
ATOM      7  C   UNL     1       5.200   5.110  15.324  0.00  0.00    +0.000 C 
ATOM      8  C   UNL     1       5.381   5.155  13.984  0.00  0.00    +0.000 C 
ATOM      9  C   UNL     1       4.946   6.511  15.842  0.00  0.00    +0.000 C 
ATOM     10  O   UNL     1       4.875   7.554  15.192  0.00  0.00    +0.000 OA
ATOM     11  C   UNL     1       4.747   6.464  17.275  0.00  0.00    +0.000 C 
ATOM     12  C   UNL     1       3.395   6.419  17.496  0.00  0.00    +0.000 C 
ENDROOT
BRANCH   8  13
ATOM     13  C   UNL     1       5.757   4.200  12.938  0.00  0.00    +0.000 A 
ATOM     14  C   UNL     1       7.085   3.896  12.654  0.00  0.00    +0.000 A 
ATOM     15  C   UNL     1       7.388   2.815  11.821  0.00  0.00    +0.000 A 
ATOM     16  C   UNL     1       6.365   2.042  11.275  0.00  0.00    +0.000 A 
ATOM     17  F   UNL     1       6.671   0.980  10.516  0.00  0.00    +0.000 F 
ATOM     18  C   UNL     1       5.036   2.339  11.528  0.00  0.00    +0.000 A 
ATOM     19  C   UNL     1       4.732   3.415  12.359  0.00  0.00    +0.000 A 
ENDBRANCH   8  13
BRANCH  12  20
ATOM     20  C   UNL     1       2.597   5.562  18.456  0.00  0.00    +0.000 A 
ATOM     21  C   UNL     1       2.567   5.864  19.822  0.00  0.00    +0.000 A 
ATOM     22  C   UNL     1       1.909   5.010  20.732  0.00  0.00    +0.000 A 
ATOM     23  C   UNL     1       1.291   3.841  20.292  0.00  0.00    +0.000 A 
ATOM     24  F   UNL     1       0.724   3.018  21.169  0.00  0.00    +0.000 F 
ATOM     25  C   UNL     1       1.297   3.519  18.944  0.00  0.00    +0.000 A 
ATOM     26  C   UNL     1       1.946   4.392  18.005  0.00  0.00    +0.000 A 
ENDBRANCH  12  20
TORSDOF 2
ENDMDL
MODEL 2
REMARK VINA RESULT:      -8.4      0.422      1.022
REMARK  Name = 
REMARK  3 active torsions:
REMARK  status: ('A' for Active; 'I' for Inactive)
REMARK    1  A    between atoms: C_1  and  N_2
REMARK    2  A    between atoms: C_8  and  C_9
REMARK    3  A    between atoms: C_19  and  C_20
REMARK                            x       y       z     vdW  Elec       q    Type
REMARK                         _______ _______ _______ _____ _____    ______ ____
ROOT
ATOM      1  C   UNL     1       5.348   4.425  19.487  0.00  0.00    +0.000 C 
ATOM      2  N   UNL     1       5.274   4.761  18.077  0.00  0.00    +0.000 NA
ATOM      3  C   UNL     1       5.890   6.066  17.961  0.00  0.00    +0.000 C 
ATOM      4  C   UNL     1       7.321   5.426  17.600  0.00  0.00    +0.000 C 
ATOM      5  C   UNL     1       7.106   4.140  16.785  0.00  0.00    +0.000 C 
ATOM      6  C   UNL     1       5.608   4.134  16.744  0.00  0.00    +0.000 C 
ATOM      7  C   UNL     1       5.301   5.085  15.455  0.00  0.00    +0.000 C 
ATOM      8  C   UNL     1       5.521   4.987  14.124  0.00  0.00    +0.000 C 
ATOM      9  C   UNL     1       4.910   6.510  15.793  0.00  0.00    +0.000 C 
ATOM     10  O   UNL     1       4.772   7.457  15.020  0.00  0.00    +0.000 OA
ATOM     11  C   UNL     1       4.669   6.616  17.217  0.00  0.00    +0.000 C 
ATOM     12  C   UNL     1       3.319   6.477  17.411  0.00  0.00    +0.000 C 
ENDROOT
BRANCH   8  13
ATOM     13  C   UNL     1       6.012   3.952  13.210  0.00  0.00    +0.000 A 
ATOM     14  C   UNL     1       5.169   2.998  12.648  0.00  0.00    +0.000 A 
ATOM     15  C   UNL     1       5.633   2.187  11.608  0.00  0.00    +0.000 A 
ATOM     16  C   UNL     1       6.935   2.331  11.133  0.00  0.00    +0.000 A 
ATOM     17  F   UNL     1       7.351   1.580  10.104  0.00  0.00    +0.000 F 
ATOM     18  C   UNL     1       7.797   3.260  11.690  0.00  0.00    +0.000 A 
ATOM     19  C   UNL     1       7.337   4.071  12.726  0.00  0.00    +0.000 A 
ENDBRANCH   8  13
BRANCH  12  20
ATOM     20  C   UNL     1       2.567   5.673  18.450  0.00  0.00    +0.000 A 
ATOM     21  C   UNL     1       2.511   6.104  19.780  0.00  0.00    +0.000 A 
ATOM     22  C   UNL     1       1.898   5.306  20.769  0.00  0.00    +0.000 A 
ATOM     23  C   UNL     1       1.353   4.065  20.445  0.00  0.00    +0.000 A 
ATOM     24  F   UNL     1       0.829   3.300  21.398  0.00  0.00    +0.000 F 
ATOM     25  C   UNL     1       1.385   3.614  19.135  0.00  0.00    +0.000 A 
ATOM     26  C   UNL     1       1.988   4.428  18.115  0.00  0.00    +0.000 A 
ENDBRANCH  12  20
TORSDOF 2
ENDMDL
MODEL 3
REMARK VINA RESULT:      -7.2      6.888      9.602
REMARK  Name = 
REMARK  3 active torsions:
REMARK  status: ('A' for Active; 'I' for Inactive)
REMARK    1  A    between atoms: C_1  and  N_2
REMARK    2  A    between atoms: C_8  and  C_9
REMARK    3  A    between atoms: C_19  and  C_20
REMARK                            x       y       z     vdW  Elec       q    Type
REMARK                         _______ _______ _______ _____ _____    ______ ____
ROOT
ATOM      1  C   UNL     1      -0.597  12.961  17.826  0.00  0.00    +0.000 C 
ATOM      2  N   UNL     1      -0.022  11.952  18.697  0.00  0.00    +0.000 NA
ATOM      3  C   UNL     1      -0.947  11.832  19.805  0.00  0.00    +0.000 C 
ATOM      4  C   UNL     1      -1.719  10.605  19.109  0.00  0.00    +0.000 C 
ATOM      5  C   UNL     1      -0.710   9.763  18.311  0.00  0.00    +0.000 C 
ATOM      6  C   UNL     1       0.533  10.551  18.595  0.00  0.00    +0.000 C 
ATOM      7  C   UNL     1       1.019   9.914  20.017  0.00  0.00    +0.000 C 
ATOM      8  C   UNL     1       1.474   8.703  20.411  0.00  0.00    +0.000 C 
ATOM      9  C   UNL     1       0.668  10.738  21.239  0.00  0.00    +0.000 C 
ATOM     10  O   UNL     1       0.786  10.421  22.422  0.00  0.00    +0.000 OA
ATOM     11  C   UNL     1       0.185  12.037  20.818  0.00  0.00    +0.000 C 
ATOM     12  C   UNL     1       1.249  12.900  20.864  0.00  0.00    +0.000 C 
ENDROOT
BRANCH   8  13
ATOM     13  C   UNL     1       1.861   7.454  19.749  0.00  0.00    +0.000 A 
ATOM     14  C   UNL     1       2.488   7.437  18.507  0.00  0.00    +0.000 A 
ATOM     15  C   UNL     1       3.048   6.249  18.027  0.00  0.00    +0.000 A 
ATOM     16  C   UNL     1       2.980   5.083  18.787  0.00  0.00    +0.000 A 
ATOM     17  F   UNL     1       3.561   3.963  18.337  0.00  0.00    +0.000 F 
ATOM     18  C   UNL     1       2.343   5.073  20.017  0.00  0.00    +0.000 A 
ATOM     19  C   UNL     1       1.786   6.256  20.499  0.00  0.00    +0.000 A 
ENDBRANCH   8  13
BRANCH  12  20
ATOM     20  C   UNL     1       1.686  13.954  19.868  0.00  0.00    +0.000 A 
ATOM     21  C   UNL     1       2.765  13.718  19.009  0.00  0.00    +0.000 A 
ATOM     22  C   UNL     1       3.237  14.734  18.153  0.00  0.00    +0.000 A 
ATOM     23  C   UNL     1       2.652  15.998  18.157  0.00  0.00    +0.000 A 
ATOM     24  F   UNL     1       3.144  16.962  17.385  0.00  0.00    +0.000 F 
ATOM     25  C   UNL     1       1.576  16.260  18.990  0.00  0.00    +0.000 A 
ATOM     26  C   UNL     1       1.073  15.226  19.853  0.00  0.00    +0.000 A 
ENDBRANCH  12  20
TORSDOF 2
ENDMDL
MODEL 4
REMARK VINA RESULT:      -7.2      6.953      9.678
REMARK  Name = 
REMARK  3 active torsions:
REMARK  status: ('A' for Active; 'I' for Inactive)
REMARK    1  A    between atoms: C_1  and  N_2
REMARK    2  A    between atoms: C_8  and  C_9
REMARK    3  A    between atoms: C_19  and  C_20
REMARK                            x       y       z     vdW  Elec       q    Type
REMARK                         _______ _______ _______ _____ _____    ______ ____
ROOT
ATOM      1  C   UNL     1      -0.428  13.023  17.851  0.00  0.00    +0.000 C 
ATOM      2  N   UNL     1       0.042  12.016  18.785  0.00  0.00    +0.000 NA
ATOM      3  C   UNL     1      -1.030  11.852  19.743  0.00  0.00    +0.000 C 
ATOM      4  C   UNL     1      -1.656  10.616  18.926  0.00  0.00    +0.000 C 
ATOM      5  C   UNL     1      -0.516   9.816  18.274  0.00  0.00    +0.000 C 
ATOM      6  C   UNL     1       0.648  10.633  18.748  0.00  0.00    +0.000 C 
ATOM      7  C   UNL     1       0.940   9.985  20.217  0.00  0.00    +0.000 C 
ATOM      8  C   UNL     1       1.368   8.781  20.659  0.00  0.00    +0.000 C 
ATOM      9  C   UNL     1       0.390  10.779  21.384  0.00  0.00    +0.000 C 
ATOM     10  O   UNL     1       0.343  10.445  22.567  0.00  0.00    +0.000 OA
ATOM     11  C   UNL     1      -0.065  12.071  20.914  0.00  0.00    +0.000 C 
ATOM     12  C   UNL     1       0.955  12.962  21.126  0.00  0.00    +0.000 C 
ENDROOT
BRANCH   8  13
ATOM     13  C   UNL     1       1.885   7.554  20.044  0.00  0.00    +0.000 A 
ATOM     14  C   UNL     1       1.669   6.298  20.603  0.00  0.00    +0.000 A 
ATOM     15  C   UNL     1       1.971   5.149  19.865  0.00  0.00    +0.000 A 
ATOM     16  C   UNL     1       2.488   5.258  18.576  0.00  0.00    +0.000 A 
ATOM     17  F   UNL     1       2.728   4.149  17.863  0.00  0.00    +0.000 F 
ATOM     18  C   UNL     1       2.729   6.498  18.008  0.00  0.00    +0.000 A 
ATOM     19  C   UNL     1       2.426   7.645  18.740  0.00  0.00    +0.000 A 
ENDBRANCH   8  13
BRANCH  12  20
ATOM     20  C   UNL     1       1.501  14.044  20.218  0.00  0.00    +0.000 A 
ATOM     21  C   UNL     1       0.816  15.254  20.060  0.00  0.00    +0.000 A 
ATOM     22  C   UNL     1       1.270  16.221  19.139  0.00  0.00    +0.000 A 
ATOM     23  C   UNL     1       2.397  15.985  18.355  0.00  0.00    +0.000 A 
ATOM     24  F   UNL     1       2.779  16.881  17.451  0.00  0.00    +0.000 F 
ATOM     25  C   UNL     1       3.101  14.799  18.494  0.00  0.00    +0.000 A 
ATOM     26  C   UNL     1       2.661  13.815  19.444  0.00  0.00    +0.000 A 
ENDBRANCH  12  20
TORSDOF 2
ENDMDL
MODEL 5
REMARK VINA RESULT:      -7.0      6.925      9.349
REMARK  Name = 
REMARK  3 active torsions:
REMARK  status: ('A' for Active; 'I' for Inactive)
REMARK    1  A    between atoms: C_1  and  N_2
REMARK    2  A    between atoms: C_8  and  C_9
REMARK    3  A    between atoms: C_19  and  C_20
REMARK                            x       y       z     vdW  Elec       q    Type
REMARK                         _______ _______ _______ _____ _____    ______ ____
ROOT
ATOM      1  C   UNL     1      -0.704  12.999  18.201  0.00  0.00    +0.000 C 
ATOM      2  N   UNL     1      -0.199  11.837  18.909  0.00  0.00    +0.000 NA
ATOM      3  C   UNL     1      -1.349  11.270  19.582  0.00  0.00    +0.000 C 
ATOM      4  C   UNL     1      -1.631  10.248  18.372  0.00  0.00    +0.000 C 
ATOM      5  C   UNL     1      -0.290   9.821  17.751  0.00  0.00    +0.000 C 
ATOM      6  C   UNL     1       0.637  10.612  18.624  0.00  0.00    +0.000 C 
ATOM      7  C   UNL     1       0.831   9.615  19.901  0.00  0.00    +0.000 C 
ATOM      8  C   UNL     1       1.397   8.400  20.084  0.00  0.00    +0.000 C 
ATOM      9  C   UNL     1      -0.005   9.966  21.116  0.00  0.00    +0.000 C 
ATOM     10  O   UNL     1      -0.156   9.305  22.142  0.00  0.00    +0.000 OA
ATOM     11  C   UNL     1      -0.608  11.268  20.923  0.00  0.00    +0.000 C 
ATOM     12  C   UNL     1       0.203  12.185  21.541  0.00  0.00    +0.000 C 
ENDROOT
BRANCH   8  13
ATOM     13  C   UNL     1       2.199   7.477  19.276  0.00  0.00    +0.000 A 
ATOM     14  C   UNL     1       2.866   7.887  18.125  0.00  0.00    +0.000 A 
ATOM     15  C   UNL     1       3.802   7.039  17.526  0.00  0.00    +0.000 A 
ATOM     16  C   UNL     1       4.067   5.786  18.075  0.00  0.00    +0.000 A 
ATOM     17  F   UNL     1       5.000   5.003  17.517  0.00  0.00    +0.000 F 
ATOM     18  C   UNL     1       3.401   5.350  19.208  0.00  0.00    +0.000 A 
ATOM     19  C   UNL     1       2.469   6.195  19.809  0.00  0.00    +0.000 A 
ENDBRANCH   8  13
BRANCH  12  20
ATOM     20  C   UNL     1       0.673  13.542  21.060  0.00  0.00    +0.000 A 
ATOM     21  C   UNL     1      -0.186  14.646  21.095  0.00  0.00    +0.000 A 
ATOM     22  C   UNL     1       0.216  15.886  20.555  0.00  0.00    +0.000 A 
ATOM     23  C   UNL     1       1.467  16.032  19.960  0.00  0.00    +0.000 A 
ATOM     24  F   UNL     1       1.810  17.190  19.405  0.00  0.00    +0.000 F 
ATOM     25  C   UNL     1       2.344  14.959  19.918  0.00  0.00    +0.000 A 
ATOM     26  C   UNL     1       1.953  13.696  20.484  0.00  0.00    +0.000 A 
ENDBRANCH  12  20
TORSDOF 2
ENDMDL
MODEL 6
REMARK VINA RESULT:      -6.9      7.050      9.717
REMARK  Name = 
REMARK  3 active torsions:
REMARK  status: ('A' for Active; 'I' for Inactive)
REMARK    1  A    between atoms: C_1  and  N_2
REMARK    2  A    between atoms: C_8  and  C_9
REMARK    3  A    between atoms: C_19  and  C_20
REMARK                            x       y       z     vdW  Elec       q    Type
REMARK                         _______ _______ _______ _____ _____    ______ ____
ROOT
ATOM      1  C   UNL     1      -0.437  13.043  18.187  0.00  0.00    +0.000 C 
ATOM      2  N   UNL     1      -0.110  11.929  19.059  0.00  0.00    +0.000 NA
ATOM      3  C   UNL     1      -1.363  11.547  19.676  0.00  0.00    +0.000 C 
ATOM      4  C   UNL     1      -1.642  10.423  18.560  0.00  0.00    +0.000 C 
ATOM      5  C   UNL     1      -0.303   9.810  18.118  0.00  0.00    +0.000 C 
ATOM      6  C   UNL     1       0.621  10.610  18.985  0.00  0.00    +0.000 C 
ATOM      7  C   UNL     1       0.607   9.752  20.373  0.00  0.00    +0.000 C 
ATOM      8  C   UNL     1       1.033   8.521  20.737  0.00  0.00    +0.000 C 
ATOM      9  C   UNL     1      -0.289  10.312  21.460  0.00  0.00    +0.000 C 
ATOM     10  O   UNL     1      -0.591   9.789  22.532  0.00  0.00    +0.000 OA
ATOM     11  C   UNL     1      -0.742  11.633  21.074  0.00  0.00    +0.000 C 
ATOM     12  C   UNL     1       0.101  12.539  21.665  0.00  0.00    +0.000 C 
ENDROOT
BRANCH   8  13
ATOM     13  C   UNL     1       1.804   7.444  20.110  0.00  0.00    +0.000 A 
ATOM     14  C   UNL     1       1.753   6.131  20.569  0.00  0.00    +0.000 A 
ATOM     15  C   UNL     1       2.313   5.105  19.802  0.00  0.00    +0.000 A 
ATOM     16  C   UNL     1       2.922   5.392  18.583  0.00  0.00    +0.000 A 
ATOM     17  F   UNL     1       3.412   4.393  17.836  0.00  0.00    +0.000 F 
ATOM     18  C   UNL     1       3.002   6.693  18.116  0.00  0.00    +0.000 A 
ATOM     19  C   UNL     1       2.442   7.718  18.877  0.00  0.00    +0.000 A 
ENDBRANCH   8  13
BRANCH  12  20
ATOM     20  C   UNL     1       0.742  13.785  21.091  0.00  0.00    +0.000 A 
ATOM     21  C   UNL     1       2.091  13.785  20.721  0.00  0.00    +0.000 A 
ATOM     22  C   UNL     1       2.715  14.971  20.280  0.00  0.00    +0.000 A 
ATOM     23  C   UNL     1       2.007  16.169  20.223  0.00  0.00    +0.000 A 
ATOM     24  F   UNL     1       2.623  17.290  19.860  0.00  0.00    +0.000 F 
ATOM     25  C   UNL     1       0.667  16.199  20.575  0.00  0.00    +0.000 A 
ATOM     26  C   UNL     1       0.014  14.993  21.005  0.00  0.00    +0.000 A 
ENDBRANCH  12  20
TORSDOF 2
ENDMDL
MODEL 7
REMARK VINA RESULT:      -6.7      2.527      3.596
REMARK  Name = 
REMARK  3 active torsions:
REMARK  status: ('A' for Active; 'I' for Inactive)
REMARK    1  A    between atoms: C_1  and  N_2
REMARK    2  A    between atoms: C_8  and  C_9
REMARK    3  A    between atoms: C_19  and  C_20
REMARK                            x       y       z     vdW  Elec       q    Type
REMARK                         _______ _______ _______ _____ _____    ______ ____
ROOT
ATOM      1  C   UNL     1       1.316   4.522  18.277  0.00  0.00    +0.000 C 
ATOM      2  N   UNL     1       2.731   4.582  17.959  0.00  0.00    +0.000 NA
ATOM      3  C   UNL     1       3.369   3.668  18.883  0.00  0.00    +0.000 C 
ATOM      4  C   UNL     1       3.314   2.459  17.822  0.00  0.00    +0.000 C 
ATOM      5  C   UNL     1       3.490   3.027  16.404  0.00  0.00    +0.000 C 
ATOM      6  C   UNL     1       3.624   4.480  16.745  0.00  0.00    +0.000 C 
ATOM      7  C   UNL     1       5.218   4.605  17.068  0.00  0.00    +0.000 C 
ATOM      8  C   UNL     1       6.351   4.483  16.339  0.00  0.00    +0.000 C 
ATOM      9  C   UNL     1       5.571   4.613  18.542  0.00  0.00    +0.000 C 
ATOM     10  O   UNL     1       6.691   4.551  19.050  0.00  0.00    +0.000 OA
ATOM     11  C   UNL     1       4.360   4.750  19.325  0.00  0.00    +0.000 C 
ATOM     12  C   UNL     1       4.216   6.081  19.620  0.00  0.00    +0.000 C 
ENDROOT
BRANCH   8  13
ATOM     13  C   UNL     1       6.679   4.310  14.921  0.00  0.00    +0.000 A 
ATOM     14  C   UNL     1       5.921   3.503  14.078  0.00  0.00    +0.000 A 
ATOM     15  C   UNL     1       6.127   3.556  12.696  0.00  0.00    +0.000 A 
ATOM     16  C   UNL     1       7.088   4.411  12.161  0.00  0.00    +0.000 A 
ATOM     17  F   UNL     1       7.242   4.485  10.832  0.00  0.00    +0.000 F 
ATOM     18  C   UNL     1       7.867   5.208  12.983  0.00  0.00    +0.000 A 
ATOM     19  C   UNL     1       7.662   5.159  14.361  0.00  0.00    +0.000 A 
ENDBRANCH   8  13
BRANCH  12  20
ATOM     20  C   UNL     1       2.981   6.956  19.571  0.00  0.00    +0.000 A 
ATOM     21  C   UNL     1       2.739   7.784  18.469  0.00  0.00    +0.000 A 
ATOM     22  C   UNL     1       1.644   8.673  18.466  0.00  0.00    +0.000 A 
ATOM     23  C   UNL     1       0.793   8.759  19.566  0.00  0.00    +0.000 A 
ATOM     24  F   UNL     1      -0.200   9.643  19.572  0.00  0.00    +0.000 F 
ATOM     25  C   UNL     1       1.002   7.947  20.669  0.00  0.00    +0.000 A 
ATOM     26  C   UNL     1       2.103   7.021  20.675  0.00  0.00    +0.000 A 
ENDBRANCH  12  20
TORSDOF 2
ENDMDL
MODEL 8
REMARK VINA RESULT:      -6.6      9.695     13.789
REMARK  Name = 
REMARK  3 active torsions:
REMARK  status: ('A' for Active; 'I' for Inactive)
REMARK    1  A    between atoms: C_1  and  N_2
REMARK    2  A    between atoms: C_8  and  C_9
REMARK    3  A    between atoms: C_19  and  C_20
REMARK                            x       y       z     vdW  Elec       q    Type
REMARK                         _______ _______ _______ _____ _____    ______ ____
ROOT
ATOM      1  C   UNL     1      -0.282  13.515  18.183  0.00  0.00    +0.000 C 
ATOM      2  N   UNL     1      -0.568  13.242  19.581  0.00  0.00    +0.000 NA
ATOM      3  C   UNL     1       0.647  12.662  20.113  0.00  0.00    +0.000 C 
ATOM      4  C   UNL     1       1.174  14.090  20.634  0.00  0.00    +0.000 C 
ATOM      5  C   UNL     1      -0.030  14.938  21.079  0.00  0.00    +0.000 C 
ATOM      6  C   UNL     1      -1.129  13.963  20.783  0.00  0.00    +0.000 C 
ATOM      7  C   UNL     1      -1.164  13.070  22.148  0.00  0.00    +0.000 C 
ATOM      8  C   UNL     1      -1.480  13.316  23.440  0.00  0.00    +0.000 C 
ATOM      9  C   UNL     1      -0.461  11.730  22.053  0.00  0.00    +0.000 C 
ATOM     10  O   UNL     1      -0.217  10.940  22.964  0.00  0.00    +0.000 OA
ATOM     11  C   UNL     1      -0.126  11.462  20.669  0.00  0.00    +0.000 C 
ATOM     12  C   UNL     1      -1.127  10.679  20.155  0.00  0.00    +0.000 C 
ENDROOT
BRANCH   8  13
ATOM     13  C   UNL     1      -2.049  14.439  24.191  0.00  0.00    +0.000 A 
ATOM     14  C   UNL     1      -1.253  15.352  24.877  0.00  0.00    +0.000 A 
ATOM     15  C   UNL     1      -1.818  16.530  25.374  0.00  0.00    +0.000 A 
ATOM     16  C   UNL     1      -3.173  16.792  25.188  0.00  0.00    +0.000 A 
ATOM     17  F   UNL     1      -3.692  17.946  25.629  0.00  0.00    +0.000 F 
ATOM     18  C   UNL     1      -3.988  15.888  24.527  0.00  0.00    +0.000 A 
ATOM     19  C   UNL     1      -3.427  14.714  24.027  0.00  0.00    +0.000 A 
ENDBRANCH   8  13
BRANCH  12  20
ATOM     20  C   UNL     1      -1.844  10.773  18.824  0.00  0.00    +0.000 A 
ATOM     21  C   UNL     1      -3.056  11.462  18.715  0.00  0.00    +0.000 A 
ATOM     22  C   UNL     1      -3.775  11.464  17.501  0.00  0.00    +0.000 A 
ATOM     23  C   UNL     1      -3.302  10.766  16.393  0.00  0.00    +0.000 A 
ATOM     24  F   UNL     1      -4.018  10.731  15.273  0.00  0.00    +0.000 F 
ATOM     25  C   UNL     1      -2.100  10.080  16.466  0.00  0.00    +0.000 A 
ATOM     26  C   UNL     1      -1.348  10.088  17.692  0.00  0.00    +0.000 A 
ENDBRANCH  12  20
TORSDOF 2
ENDMDL
MODEL 9
REMARK VINA RESULT:      -6.6      5.658      8.357
REMARK  Name = 
REMARK  3 active torsions:
REMARK  status: ('A' for Active; 'I' for Inactive)
REMARK    1  A    between atoms: C_1  and  N_2
REMARK    2  A    between atoms: C_8  and  C_9
REMARK    3  A    between atoms: C_19  and  C_20
REMARK                            x       y       z     vdW  Elec       q    Type
REMARK                         _______ _______ _______ _____ _____    ______ ____
ROOT
ATOM      1  C   UNL     1      -1.450  10.943  21.251  0.00  0.00    +0.000 C 
ATOM      2  N   UNL     1      -0.462  10.196  20.494  0.00  0.00    +0.000 NA
ATOM      3  C   UNL     1       0.635  11.118  20.283  0.00  0.00    +0.000 C 
ATOM      4  C   UNL     1       1.416  10.583  21.583  0.00  0.00    +0.000 C 
ATOM      5  C   UNL     1       1.147   9.077  21.747  0.00  0.00    +0.000 C 
ATOM      6  C   UNL     1       0.251   8.867  20.564  0.00  0.00    +0.000 C 
ATOM      7  C   UNL     1       1.328   8.615  19.365  0.00  0.00    +0.000 C 
ATOM      8  C   UNL     1       2.233   7.649  19.084  0.00  0.00    +0.000 C 
ATOM      9  C   UNL     1       1.589   9.817  18.479  0.00  0.00    +0.000 C 
ATOM     10  O   UNL     1       2.449   9.939  17.608  0.00  0.00    +0.000 OA
ATOM     11  C   UNL     1       0.617  10.850  18.775  0.00  0.00    +0.000 C 
ATOM     12  C   UNL     1      -0.398  10.725  17.862  0.00  0.00    +0.000 C 
ENDROOT
BRANCH   8  13
ATOM     13  C   UNL     1       2.583   6.338  19.638  0.00  0.00    +0.000 A 
ATOM     14  C   UNL     1       1.742   5.654  20.511  0.00  0.00    +0.000 A 
ATOM     15  C   UNL     1       2.004   4.316  20.822  0.00  0.00    +0.000 A 
ATOM     16  C   UNL     1       3.102   3.667  20.263  0.00  0.00    +0.000 A 
ATOM     17  F   UNL     1       3.315   2.372  20.533  0.00  0.00    +0.000 F 
ATOM     18  C   UNL     1       3.963   4.334  19.407  0.00  0.00    +0.000 A 
ATOM     19  C   UNL     1       3.703   5.667  19.093  0.00  0.00    +0.000 A 
ENDBRANCH   8  13
BRANCH  12  20
ATOM     20  C   UNL     1      -1.898  10.783  18.066  0.00  0.00    +0.000 A 
ATOM     21  C   UNL     1      -2.698   9.670  17.786  0.00  0.00    +0.000 A 
ATOM     22  C   UNL     1      -4.103   9.754  17.879  0.00  0.00    +0.000 A 
ATOM     23  C   UNL     1      -4.723  10.950  18.234  0.00  0.00    +0.000 A 
ATOM     24  F   UNL     1      -6.049  11.029  18.262  0.00  0.00    +0.000 F 
ATOM     25  C   UNL     1      -3.957  12.067  18.526  0.00  0.00    +0.000 A 
ATOM     26  C   UNL     1      -2.523  11.988  18.455  0.00  0.00    +0.000 A 
ENDBRANCH  12  20
TORSDOF 2
ENDMDL
