MODEL 1
REMARK VINA RESULT:      -8.5      0.000      0.000
REMARK  Name = 
REMARK  1 active torsions:
REMARK  status: ('A' for Active; 'I' for Inactive)
REMARK    1  A    between atoms: C_4  and  C_5
REMARK                            x       y       z     vdW  Elec       q    Type
REMARK                         _______ _______ _______ _____ _____    ______ ____
ROOT
ATOM      1  O   UNL     1       5.181   1.713  20.862  0.00  0.00    +0.000 OA
ATOM      2  C   UNL     1       4.656   2.520  20.103  0.00  0.00    +0.000 C 
ATOM      3  N   UNL     1       5.343   3.089  19.066  0.00  0.00    +0.000 N 
ATOM      4  C   UNL     1       4.885   4.290  18.418  0.00  0.00    +0.000 C 
ATOM      5  N   UNL     1       3.471   4.152  18.179  0.00  0.00    +0.000 N 
ATOM      6  C   UNL     1       2.724   3.777  19.289  0.00  0.00    +0.000 A 
ATOM      7  N   UNL     1       1.450   4.218  19.343  0.00  0.00    +0.000 NA
ATOM      8  C   UNL     1       0.686   3.780  20.373  0.00  0.00    +0.000 A 
ATOM      9  C   UNL     1       1.138   2.925  21.368  0.00  0.00    +0.000 A 
ATOM     10  C   UNL     1       2.456   2.491  21.310  0.00  0.00    +0.000 A 
ATOM     11  C   UNL     1       3.252   2.927  20.253  0.00  0.00    +0.000 A 
ATOM     12  H   UNL     1       6.331   2.880  19.052  0.00  0.00    +0.000 HD
ATOM     13  H   UNL     1       3.010   4.924  17.708  0.00  0.00    +0.000 HD
ENDROOT
BRANCH   4  14
ATOM     14  C   UNL     1       5.598   4.477  17.094  0.00  0.00    +0.000 A 
ATOM     15  C   UNL     1       4.951   4.071  15.904  0.00  0.00    +0.000 A 
ATOM     16  C   UNL     1       5.556   4.226  14.657  0.00  0.00    +0.000 A 
ATOM     17  C   UNL     1       6.823   4.791  14.569  0.00  0.00    +0.000 A 
ATOM     18  C   UNL     1       7.481   5.200  15.728  0.00  0.00    +0.000 A 
ATOM     19  C   UNL     1       6.876   5.046  16.982  0.00  0.00    +0.000 A 
ATOM     20 CL   UNL     1       7.772   5.586  18.357  0.00  0.00    +0.000 Cl
ENDBRANCH   4  14
TORSDOF 1
ENDMDL
MODEL 2
REMARK VINA RESULT:      -7.7      1.208      1.261
REMARK  Name = 
REMARK  1 active torsions:
REMARK  status: ('A' for Active; 'I' for Inactive)
REMARK    1  A    between atoms: C_4  and  C_5
REMARK                            x       y       z     vdW  Elec       q    Type
REMARK                         _______ _______ _______ _____ _____    ______ ____
ROOT
ATOM      1  O   UNL     1       5.283   1.701  20.614  0.00  0.00    +0.000 OA
ATOM      2  C   UNL     1       4.645   2.512  19.954  0.00  0.00    +0.000 C 
ATOM      3  N   UNL     1       5.185   3.147  18.869  0.00  0.00    +0.000 N 
ATOM      4  C   UNL     1       4.611   4.350  18.327  0.00  0.00    +0.000 C 
ATOM      5  N   UNL     1       3.185   4.162  18.245  0.00  0.00    +0.000 N 
ATOM      6  C   UNL     1       2.586   3.717  19.417  0.00  0.00    +0.000 A 
ATOM      7  N   UNL     1       1.311   4.102  19.635  0.00  0.00    +0.000 NA
ATOM      8  C   UNL     1       0.689   3.595  20.727  0.00  0.00    +0.000 A 
ATOM      9  C   UNL     1       1.284   2.724  21.627  0.00  0.00    +0.000 A 
ATOM     10  C   UNL     1       2.602   2.348  21.402  0.00  0.00    +0.000 A 
ATOM     11  C   UNL     1       3.253   2.855  20.279  0.00  0.00    +0.000 A 
ATOM     12  H   UNL     1       6.172   2.980  18.733  0.00  0.00    +0.000 HD
ATOM     13  H   UNL     1       2.645   4.931  17.863  0.00  0.00    +0.000 HD
ENDROOT
BRANCH   4  14
ATOM     14  C   UNL     1       5.159   4.615  16.939  0.00  0.00    +0.000 A 
ATOM     15  C   UNL     1       5.771   3.556  16.231  0.00  0.00    +0.000 A 
ATOM     16  C   UNL     1       6.285   3.739  14.947  0.00  0.00    +0.000 A 
ATOM     17  C   UNL     1       6.201   4.987  14.341  0.00  0.00    +0.000 A 
ATOM     18  C   UNL     1       5.602   6.047  15.019  0.00  0.00    +0.000 A 
ATOM     19  C   UNL     1       5.084   5.866  16.308  0.00  0.00    +0.000 A 
ATOM     20 CL   UNL     1       4.358   7.241  17.063  0.00  0.00    +0.000 Cl
ENDBRANCH   4  14
TORSDOF 1
ENDMDL
MODEL 3
REMARK VINA RESULT:      -7.6      2.056      5.805
REMARK  Name = 
REMARK  1 active torsions:
REMARK  status: ('A' for Active; 'I' for Inactive)
REMARK    1  A    between atoms: C_4  and  C_5
REMARK                            x       y       z     vdW  Elec       q    Type
REMARK                         _______ _______ _______ _____ _____    ______ ____
ROOT
ATOM      1  O   UNL     1       7.834   4.815  18.469  0.00  0.00    +0.000 OA
ATOM      2  C   UNL     1       6.743   4.481  18.023  0.00  0.00    +0.000 C 
ATOM      3  N   UNL     1       5.722   4.077  18.839  0.00  0.00    +0.000 N 
ATOM      4  C   UNL     1       4.597   3.332  18.337  0.00  0.00    +0.000 C 
ATOM      5  N   UNL     1       4.158   3.960  17.117  0.00  0.00    +0.000 N 
ATOM      6  C   UNL     1       5.161   4.185  16.182  0.00  0.00    +0.000 A 
ATOM      7  N   UNL     1       4.801   4.158  14.882  0.00  0.00    +0.000 NA
ATOM      8  C   UNL     1       5.752   4.469  13.969  0.00  0.00    +0.000 A 
ATOM      9  C   UNL     1       7.061   4.798  14.289  0.00  0.00    +0.000 A 
ATOM     10  C   UNL     1       7.424   4.805  15.630  0.00  0.00    +0.000 A 
ATOM     11  C   UNL     1       6.456   4.494  16.582  0.00  0.00    +0.000 A 
ATOM     12  H   UNL     1       5.977   3.969  19.809  0.00  0.00    +0.000 HD
ATOM     13  H   UNL     1       3.354   3.548  16.655  0.00  0.00    +0.000 HD
ENDROOT
BRANCH   4  14
ATOM     14  C   UNL     1       3.463   3.352  19.343  0.00  0.00    +0.000 A 
ATOM     15  C   UNL     1       2.326   4.150  19.077  0.00  0.00    +0.000 A 
ATOM     16  C   UNL     1       1.250   4.202  19.963  0.00  0.00    +0.000 A 
ATOM     17  C   UNL     1       1.283   3.457  21.136  0.00  0.00    +0.000 A 
ATOM     18  C   UNL     1       2.393   2.662  21.420  0.00  0.00    +0.000 A 
ATOM     19  C   UNL     1       3.476   2.608  20.532  0.00  0.00    +0.000 A 
ATOM     20 CL   UNL     1       4.802   1.591  20.973  0.00  0.00    +0.000 Cl
ENDBRANCH   4  14
TORSDOF 1
ENDMDL
MODEL 4
REMARK VINA RESULT:      -7.5      3.192      5.942
REMARK  Name = 
REMARK  1 active torsions:
REMARK  status: ('A' for Active; 'I' for Inactive)
REMARK    1  A    between atoms: C_4  and  C_5
REMARK                            x       y       z     vdW  Elec       q    Type
REMARK                         _______ _______ _______ _____ _____    ______ ____
ROOT
ATOM      1  O   UNL     1       4.967   6.959  15.806  0.00  0.00    +0.000 OA
ATOM      2  C   UNL     1       4.964   6.357  16.873  0.00  0.00    +0.000 C 
ATOM      3  N   UNL     1       3.873   5.652  17.302  0.00  0.00    +0.000 N 
ATOM      4  C   UNL     1       3.707   5.271  18.680  0.00  0.00    +0.000 C 
ATOM      5  N   UNL     1       4.965   4.747  19.148  0.00  0.00    +0.000 N 
ATOM      6  C   UNL     1       6.064   5.561  18.906  0.00  0.00    +0.000 A 
ATOM      7  N   UNL     1       7.080   5.494  19.791  0.00  0.00    +0.000 NA
ATOM      8  C   UNL     1       8.194   6.212  19.512  0.00  0.00    +0.000 A 
ATOM      9  C   UNL     1       8.343   7.012  18.388  0.00  0.00    +0.000 A 
ATOM     10  C   UNL     1       7.284   7.086  17.492  0.00  0.00    +0.000 A 
ATOM     11  C   UNL     1       6.134   6.347  17.762  0.00  0.00    +0.000 A 
ATOM     12  H   UNL     1       3.048   5.766  16.731  0.00  0.00    +0.000 HD
ATOM     13  H   UNL     1       4.994   4.420  20.109  0.00  0.00    +0.000 HD
ENDROOT
BRANCH   4  14
ATOM     14  C   UNL     1       2.643   4.199  18.804  0.00  0.00    +0.000 A 
ATOM     15  C   UNL     1       2.696   3.079  17.942  0.00  0.00    +0.000 A 
ATOM     16  C   UNL     1       1.748   2.059  18.016  0.00  0.00    +0.000 A 
ATOM     17  C   UNL     1       0.725   2.132  18.954  0.00  0.00    +0.000 A 
ATOM     18  C   UNL     1       0.653   3.225  19.816  0.00  0.00    +0.000 A 
ATOM     19  C   UNL     1       1.603   4.253  19.744  0.00  0.00    +0.000 A 
ATOM     20 CL   UNL     1       1.428   5.563  20.857  0.00  0.00    +0.000 Cl
ENDBRANCH   4  14
TORSDOF 1
ENDMDL
MODEL 5
REMARK VINA RESULT:      -7.2      1.350      1.407
REMARK  Name = 
REMARK  1 active torsions:
REMARK  status: ('A' for Active; 'I' for Inactive)
REMARK    1  A    between atoms: C_4  and  C_5
REMARK                            x       y       z     vdW  Elec       q    Type
REMARK                         _______ _______ _______ _____ _____    ______ ____
ROOT
ATOM      1  O   UNL     1       3.232   1.105  18.632  0.00  0.00    +0.000 OA
ATOM      2  C   UNL     1       3.515   2.288  18.482  0.00  0.00    +0.000 C 
ATOM      3  N   UNL     1       4.473   2.695  17.595  0.00  0.00    +0.000 N 
ATOM      4  C   UNL     1       5.080   3.998  17.674  0.00  0.00    +0.000 C 
ATOM      5  N   UNL     1       4.030   4.962  17.886  0.00  0.00    +0.000 N 
ATOM      6  C   UNL     1       3.166   4.665  18.933  0.00  0.00    +0.000 A 
ATOM      7  N   UNL     1       2.611   5.711  19.581  0.00  0.00    +0.000 NA
ATOM      8  C   UNL     1       1.697   5.430  20.540  0.00  0.00    +0.000 A 
ATOM      9  C   UNL     1       1.312   4.146  20.897  0.00  0.00    +0.000 A 
ATOM     10  C   UNL     1       1.903   3.078  20.235  0.00  0.00    +0.000 A 
ATOM     11  C   UNL     1       2.840   3.350  19.241  0.00  0.00    +0.000 A 
ATOM     12  H   UNL     1       4.998   1.944  17.169  0.00  0.00    +0.000 HD
ATOM     13  H   UNL     1       4.310   5.935  17.947  0.00  0.00    +0.000 HD
ENDROOT
BRANCH   4  14
ATOM     14  C   UNL     1       5.800   4.322  16.380  0.00  0.00    +0.000 A 
ATOM     15  C   UNL     1       5.359   3.715  15.181  0.00  0.00    +0.000 A 
ATOM     16  C   UNL     1       5.979   3.982  13.961  0.00  0.00    +0.000 A 
ATOM     17  C   UNL     1       7.054   4.863  13.908  0.00  0.00    +0.000 A 
ATOM     18  C   UNL     1       7.506   5.473  15.077  0.00  0.00    +0.000 A 
ATOM     19  C   UNL     1       6.885   5.207  16.305  0.00  0.00    +0.000 A 
ATOM     20 CL   UNL     1       7.517   6.017  17.695  0.00  0.00    +0.000 Cl
ENDBRANCH   4  14
TORSDOF 1
ENDMDL
MODEL 6
REMARK VINA RESULT:      -7.2      2.107      5.890
REMARK  Name = 
REMARK  1 active torsions:
REMARK  status: ('A' for Active; 'I' for Inactive)
REMARK    1  A    between atoms: C_4  and  C_5
REMARK                            x       y       z     vdW  Elec       q    Type
REMARK                         _______ _______ _______ _____ _____    ______ ____
ROOT
ATOM      1  O   UNL     1       7.593   4.910  18.816  0.00  0.00    +0.000 OA
ATOM      2  C   UNL     1       6.552   4.513  18.307  0.00  0.00    +0.000 C 
ATOM      3  N   UNL     1       5.511   4.045  19.061  0.00  0.00    +0.000 N 
ATOM      4  C   UNL     1       4.464   3.236  18.495  0.00  0.00    +0.000 C 
ATOM      5  N   UNL     1       4.060   3.843  17.251  0.00  0.00    +0.000 N 
ATOM      6  C   UNL     1       5.100   4.131  16.377  0.00  0.00    +0.000 A 
ATOM      7  N   UNL     1       4.818   4.089  15.058  0.00  0.00    +0.000 NA
ATOM      8  C   UNL     1       5.800   4.460  14.202  0.00  0.00    +0.000 A 
ATOM      9  C   UNL     1       7.066   4.865  14.598  0.00  0.00    +0.000 A 
ATOM     10  C   UNL     1       7.350   4.888  15.958  0.00  0.00    +0.000 A 
ATOM     11  C   UNL     1       6.348   4.516  16.851  0.00  0.00    +0.000 A 
ATOM     12  H   UNL     1       5.716   3.948  20.045  0.00  0.00    +0.000 HD
ATOM     13  H   UNL     1       3.310   3.385  16.743  0.00  0.00    +0.000 HD
ENDROOT
BRANCH   4  14
ATOM     14  C   UNL     1       3.274   3.184  19.432  0.00  0.00    +0.000 A 
ATOM     15  C   UNL     1       3.437   2.607  20.713  0.00  0.00    +0.000 A 
ATOM     16  C   UNL     1       2.379   2.539  21.620  0.00  0.00    +0.000 A 
ATOM     17  C   UNL     1       1.133   3.046  21.269  0.00  0.00    +0.000 A 
ATOM     18  C   UNL     1       0.949   3.620  20.013  0.00  0.00    +0.000 A 
ATOM     19  C   UNL     1       2.009   3.691  19.099  0.00  0.00    +0.000 A 
ATOM     20 CL   UNL     1       1.679   4.424  17.569  0.00  0.00    +0.000 Cl
ENDBRANCH   4  14
TORSDOF 1
ENDMDL
MODEL 7
REMARK VINA RESULT:      -7.1      2.487      6.029
REMARK  Name = 
REMARK  1 active torsions:
REMARK  status: ('A' for Active; 'I' for Inactive)
REMARK    1  A    between atoms: C_4  and  C_5
REMARK                            x       y       z     vdW  Elec       q    Type
REMARK                         _______ _______ _______ _____ _____    ______ ____
ROOT
ATOM      1  O   UNL     1       7.475   6.132  18.230  0.00  0.00    +0.000 OA
ATOM      2  C   UNL     1       6.539   5.470  17.800  0.00  0.00    +0.000 C 
ATOM      3  N   UNL     1       5.495   5.092  18.599  0.00  0.00    +0.000 N 
ATOM      4  C   UNL     1       4.604   4.021  18.233  0.00  0.00    +0.000 C 
ATOM      5  N   UNL     1       4.249   4.197  16.848  0.00  0.00    +0.000 N 
ATOM      6  C   UNL     1       5.324   4.370  15.985  0.00  0.00    +0.000 A 
ATOM      7  N   UNL     1       5.171   3.924  14.721  0.00  0.00    +0.000 NA
ATOM      8  C   UNL     1       6.177   4.174  13.849  0.00  0.00    +0.000 A 
ATOM      9  C   UNL     1       7.346   4.843  14.182  0.00  0.00    +0.000 A 
ATOM     10  C   UNL     1       7.500   5.283  15.490  0.00  0.00    +0.000 A 
ATOM     11  C   UNL     1       6.470   5.040  16.397  0.00  0.00    +0.000 A 
ATOM     12  H   UNL     1       5.618   5.301  19.579  0.00  0.00    +0.000 HD
ATOM     13  H   UNL     1       3.607   3.517  16.452  0.00  0.00    +0.000 HD
ENDROOT
BRANCH   4  14
ATOM     14  C   UNL     1       3.348   4.069  19.079  0.00  0.00    +0.000 A 
ATOM     15  C   UNL     1       3.020   5.270  19.750  0.00  0.00    +0.000 A 
ATOM     16  C   UNL     1       1.873   5.374  20.537  0.00  0.00    +0.000 A 
ATOM     17  C   UNL     1       1.025   4.281  20.672  0.00  0.00    +0.000 A 
ATOM     18  C   UNL     1       1.328   3.086  20.020  0.00  0.00    +0.000 A 
ATOM     19  C   UNL     1       2.479   2.978  19.228  0.00  0.00    +0.000 A 
ATOM     20 CL   UNL     1       2.763   1.457  18.460  0.00  0.00    +0.000 Cl
ENDBRANCH   4  14
TORSDOF 1
ENDMDL
MODEL 8
REMARK VINA RESULT:      -7.0      1.886      2.348
REMARK  Name = 
REMARK  1 active torsions:
REMARK  status: ('A' for Active; 'I' for Inactive)
REMARK    1  A    between atoms: C_4  and  C_5
REMARK                            x       y       z     vdW  Elec       q    Type
REMARK                         _______ _______ _______ _____ _____    ______ ____
ROOT
ATOM      1  O   UNL     1       2.361   6.870  19.084  0.00  0.00    +0.000 OA
ATOM      2  C   UNL     1       2.958   5.827  18.844  0.00  0.00    +0.000 C 
ATOM      3  N   UNL     1       3.721   5.674  17.719  0.00  0.00    +0.000 N 
ATOM      4  C   UNL     1       4.105   4.376  17.231  0.00  0.00    +0.000 C 
ATOM      5  N   UNL     1       4.556   3.596  18.355  0.00  0.00    +0.000 N 
ATOM      6  C   UNL     1       3.682   3.568  19.436  0.00  0.00    +0.000 A 
ATOM      7  N   UNL     1       3.689   2.454  20.197  0.00  0.00    +0.000 NA
ATOM      8  C   UNL     1       2.910   2.457  21.305  0.00  0.00    +0.000 A 
ATOM      9  C   UNL     1       2.108   3.522  21.690  0.00  0.00    +0.000 A 
ATOM     10  C   UNL     1       2.097   4.657  20.890  0.00  0.00    +0.000 A 
ATOM     11  C   UNL     1       2.898   4.672  19.750  0.00  0.00    +0.000 A 
ATOM     12  H   UNL     1       3.656   6.437  17.060  0.00  0.00    +0.000 HD
ATOM     13  H   UNL     1       4.876   2.654  18.158  0.00  0.00    +0.000 HD
ENDROOT
BRANCH   4  14
ATOM     14  C   UNL     1       5.235   4.504  16.229  0.00  0.00    +0.000 A 
ATOM     15  C   UNL     1       5.032   4.047  14.906  0.00  0.00    +0.000 A 
ATOM     16  C   UNL     1       6.034   4.147  13.941  0.00  0.00    +0.000 A 
ATOM     17  C   UNL     1       7.262   4.706  14.273  0.00  0.00    +0.000 A 
ATOM     18  C   UNL     1       7.486   5.163  15.571  0.00  0.00    +0.000 A 
ATOM     19  C   UNL     1       6.482   5.065  16.544  0.00  0.00    +0.000 A 
ATOM     20 CL   UNL     1       6.856   5.664  18.121  0.00  0.00    +0.000 Cl
ENDBRANCH   4  14
TORSDOF 1
ENDMDL
MODEL 9
REMARK VINA RESULT:      -7.0      2.306      2.771
REMARK  Name = 
REMARK  1 active torsions:
REMARK  status: ('A' for Active; 'I' for Inactive)
REMARK    1  A    between atoms: C_4  and  C_5
REMARK                            x       y       z     vdW  Elec       q    Type
REMARK                         _______ _______ _______ _____ _____    ______ ____
ROOT
ATOM      1  O   UNL     1       3.719   1.826  17.311  0.00  0.00    +0.000 OA
ATOM      2  C   UNL     1       3.867   2.749  18.102  0.00  0.00    +0.000 C 
ATOM      3  N   UNL     1       4.907   3.631  17.997  0.00  0.00    +0.000 N 
ATOM      4  C   UNL     1       5.315   4.463  19.099  0.00  0.00    +0.000 C 
ATOM      5  N   UNL     1       4.128   5.026  19.691  0.00  0.00    +0.000 N 
ATOM      6  C   UNL     1       3.137   4.103  20.003  0.00  0.00    +0.000 A 
ATOM      7  N   UNL     1       2.343   4.393  21.056  0.00  0.00    +0.000 NA
ATOM      8  C   UNL     1       1.316   3.546  21.308  0.00  0.00    +0.000 A 
ATOM      9  C   UNL     1       1.044   2.408  20.564  0.00  0.00    +0.000 A 
ATOM     10  C   UNL     1       1.878   2.112  19.493  0.00  0.00    +0.000 A 
ATOM     11  C   UNL     1       2.934   2.976  19.216  0.00  0.00    +0.000 A 
ATOM     12  H   UNL     1       5.593   3.390  17.296  0.00  0.00    +0.000 HD
ATOM     13  H   UNL     1       4.263   5.652  20.477  0.00  0.00    +0.000 HD
ENDROOT
BRANCH   4  14
ATOM     14  C   UNL     1       6.206   5.586  18.608  0.00  0.00    +0.000 A 
ATOM     15  C   UNL     1       7.446   5.807  19.250  0.00  0.00    +0.000 A 
ATOM     16  C   UNL     1       8.310   6.821  18.837  0.00  0.00    +0.000 A 
ATOM     17  C   UNL     1       7.956   7.639  17.770  0.00  0.00    +0.000 A 
ATOM     18  C   UNL     1       6.739   7.440  17.120  0.00  0.00    +0.000 A 
ATOM     19  C   UNL     1       5.868   6.423  17.533  0.00  0.00    +0.000 A 
ATOM     20 CL   UNL     1       4.386   6.256  16.661  0.00  0.00    +0.000 Cl
ENDBRANCH   4  14
TORSDOF 1
ENDMDL
