MODEL 1
REMARK VINA RESULT:      -9.0      0.000      0.000
REMARK  Name = 
REMARK  5 active torsions:
REMARK  status: ('A' for Active; 'I' for Inactive)
REMARK    1  A    between atoms: C_4  and  N_5
REMARK    2  A    between atoms: N_5  and  C_6
REMARK    3  A    between atoms: C_15  and  O_16
REMARK    4  A    between atoms: O_16  and  C_17
REMARK    5  A    between atoms: C_17  and  C_18
REMARK                            x       y       z     vdW  Elec       q    Type
REMARK                         _______ _______ _______ _____ _____    ______ ____
ROOT
ATOM      1  O   UNL     1       5.565   4.384  13.564  0.00  0.00    +0.000 OA
ATOM      2  C   UNL     1       5.766   4.546  14.761  0.00  0.00    +0.000 A 
ATOM      3  C   UNL     1       5.178   3.636  15.749  0.00  0.00    +0.000 A 
ATOM      4  C   UNL     1       5.307   3.786  17.075  0.00  0.00    +0.000 A 
ATOM      5  C   UNL     1       6.099   4.927  17.564  0.00  0.00    +0.000 A 
ATOM      6  C   UNL     1       6.327   5.191  18.919  0.00  0.00    +0.000 A 
ATOM      7  C   UNL     1       7.156   6.250  19.315  0.00  0.00    +0.000 A 
ATOM      8  C   UNL     1       7.800   7.044  18.363  0.00  0.00    +0.000 A 
ATOM      9  C   UNL     1       7.553   6.819  17.012  0.00  0.00    +0.000 A 
ATOM     10  C   UNL     1       6.715   5.767  16.633  0.00  0.00    +0.000 A 
ATOM     11  O   UNL     1       6.542   5.583  15.246  0.00  0.00    +0.000 OA
ENDROOT
BRANCH   4  12
ATOM     12  N   UNL     1       4.694   2.930  17.970  0.00  0.00    +0.000 N 
ATOM     13  H   UNL     1       5.006   1.966  17.955  0.00  0.00    +0.000 HD
BRANCH  12  14
ATOM     14  C   UNL     1       3.394   3.089  18.503  0.00  0.00    +0.000 A 
ATOM     15  C   UNL     1       2.934   4.296  19.049  0.00  0.00    +0.000 A 
ATOM     16  C   UNL     1       1.658   4.391  19.614  0.00  0.00    +0.000 A 
ATOM     17  C   UNL     1       0.836   3.267  19.666  0.00  0.00    +0.000 A 
ATOM     18  C   UNL     1       1.285   2.057  19.145  0.00  0.00    +0.000 A 
ATOM     19  C   UNL     1       2.552   1.970  18.562  0.00  0.00    +0.000 A 
ENDBRANCH  12  14
ENDBRANCH   4  12
BRANCH   8  20
ATOM     20  O   UNL     1       8.685   8.049  18.648  0.00  0.00    +0.000 OA
BRANCH  20  21
ATOM     21  C   UNL     1       8.355   9.320  18.082  0.00  0.00    +0.000 C 
BRANCH  21  22
ATOM     22  C   UNL     1       9.180  10.434  18.685  0.00  0.00    +0.000 A 
ATOM     23  C   UNL     1       9.363  10.555  20.069  0.00  0.00    +0.000 A 
ATOM     24  C   UNL     1      10.048  11.649  20.604  0.00  0.00    +0.000 A 
ATOM     25  C   UNL     1      10.546  12.642  19.760  0.00  0.00    +0.000 A 
ATOM     26  C   UNL     1      10.361  12.534  18.385  0.00  0.00    +0.000 A 
ATOM     27 CL   UNL     1      10.954  13.768  17.341  0.00  0.00    +0.000 Cl
ATOM     28  C   UNL     1       9.683  11.442  17.845  0.00  0.00    +0.000 A 
ENDBRANCH  21  22
ENDBRANCH  20  21
ENDBRANCH   8  20
TORSDOF 5
ENDMDL
MODEL 2
REMARK VINA RESULT:      -8.9      5.603      8.012
REMARK  Name = 
REMARK  5 active torsions:
REMARK  status: ('A' for Active; 'I' for Inactive)
REMARK    1  A    between atoms: C_4  and  N_5
REMARK    2  A    between atoms: N_5  and  C_6
REMARK    3  A    between atoms: C_15  and  O_16
REMARK    4  A    between atoms: O_16  and  C_17
REMARK    5  A    between atoms: C_17  and  C_18
REMARK                            x       y       z     vdW  Elec       q    Type
REMARK                         _______ _______ _______ _____ _____    ______ ____
ROOT
ATOM      1  O   UNL     1       2.149   2.537  21.865  0.00  0.00    +0.000 OA
ATOM      2  C   UNL     1       2.240   3.435  21.037  0.00  0.00    +0.000 A 
ATOM      3  C   UNL     1       2.770   3.167  19.697  0.00  0.00    +0.000 A 
ATOM      4  C   UNL     1       2.952   4.111  18.762  0.00  0.00    +0.000 A 
ATOM      5  C   UNL     1       2.583   5.495  19.101  0.00  0.00    +0.000 A 
ATOM      6  C   UNL     1       2.706   6.571  18.215  0.00  0.00    +0.000 A 
ATOM      7  C   UNL     1       2.263   7.852  18.575  0.00  0.00    +0.000 A 
ATOM      8  C   UNL     1       1.658   8.073  19.815  0.00  0.00    +0.000 A 
ATOM      9  C   UNL     1       1.565   7.023  20.722  0.00  0.00    +0.000 A 
ATOM     10  C   UNL     1       2.021   5.754  20.353  0.00  0.00    +0.000 A 
ATOM     11  O   UNL     1       1.860   4.736  21.315  0.00  0.00    +0.000 OA
ENDROOT
BRANCH   4  12
ATOM     12  N   UNL     1       3.501   3.819  17.527  0.00  0.00    +0.000 N 
ATOM     13  H   UNL     1       3.121   3.011  17.047  0.00  0.00    +0.000 HD
BRANCH  12  14
ATOM     14  C   UNL     1       4.807   4.158  17.107  0.00  0.00    +0.000 A 
ATOM     15  C   UNL     1       5.182   4.226  15.757  0.00  0.00    +0.000 A 
ATOM     16  C   UNL     1       6.500   4.512  15.389  0.00  0.00    +0.000 A 
ATOM     17  C   UNL     1       7.470   4.704  16.371  0.00  0.00    +0.000 A 
ATOM     18  C   UNL     1       7.118   4.621  17.716  0.00  0.00    +0.000 A 
ATOM     19  C   UNL     1       5.795   4.356  18.080  0.00  0.00    +0.000 A 
ENDBRANCH  12  14
ENDBRANCH   4  12
BRANCH   8  20
ATOM     20  O   UNL     1       1.126   9.266  20.227  0.00  0.00    +0.000 OA
BRANCH  20  21
ATOM     21  C   UNL     1       1.149  10.306  19.246  0.00  0.00    +0.000 C 
BRANCH  21  22
ATOM     22  C   UNL     1      -0.245  10.744  18.860  0.00  0.00    +0.000 A 
ATOM     23  C   UNL     1      -0.955  11.697  19.603  0.00  0.00    +0.000 A 
ATOM     24  C   UNL     1      -2.278  12.010  19.281  0.00  0.00    +0.000 A 
ATOM     25  C   UNL     1      -2.910  11.365  18.218  0.00  0.00    +0.000 A 
ATOM     26  C   UNL     1      -2.215  10.411  17.480  0.00  0.00    +0.000 A 
ATOM     27 CL   UNL     1      -2.998   9.595  16.182  0.00  0.00    +0.000 Cl
ATOM     28  C   UNL     1      -0.893  10.098  17.794  0.00  0.00    +0.000 A 
ENDBRANCH  21  22
ENDBRANCH  20  21
ENDBRANCH   8  20
TORSDOF 5
ENDMDL
MODEL 3
REMARK VINA RESULT:      -8.7      5.434      7.978
REMARK  Name = 
REMARK  5 active torsions:
REMARK  status: ('A' for Active; 'I' for Inactive)
REMARK    1  A    between atoms: C_4  and  N_5
REMARK    2  A    between atoms: N_5  and  C_6
REMARK    3  A    between atoms: C_15  and  O_16
REMARK    4  A    between atoms: O_16  and  C_17
REMARK    5  A    between atoms: C_17  and  C_18
REMARK                            x       y       z     vdW  Elec       q    Type
REMARK                         _______ _______ _______ _____ _____    ______ ____
ROOT
ATOM      1  O   UNL     1       1.995   2.740  22.083  0.00  0.00    +0.000 OA
ATOM      2  C   UNL     1       2.214   3.508  21.154  0.00  0.00    +0.000 A 
ATOM      3  C   UNL     1       2.861   3.035  19.927  0.00  0.00    +0.000 A 
ATOM      4  C   UNL     1       3.184   3.831  18.897  0.00  0.00    +0.000 A 
ATOM      5  C   UNL     1       2.854   5.261  19.003  0.00  0.00    +0.000 A 
ATOM      6  C   UNL     1       3.120   6.197  17.997  0.00  0.00    +0.000 A 
ATOM      7  C   UNL     1       2.709   7.531  18.130  0.00  0.00    +0.000 A 
ATOM      8  C   UNL     1       1.995   7.947  19.257  0.00  0.00    +0.000 A 
ATOM      9  C   UNL     1       1.758   7.038  20.284  0.00  0.00    +0.000 A 
ATOM     10  C   UNL     1       2.183   5.715  20.142  0.00  0.00    +0.000 A 
ATOM     11  O   UNL     1       1.875   4.848  21.211  0.00  0.00    +0.000 OA
ENDROOT
BRANCH   4  12
ATOM     12  N   UNL     1       3.838   3.348  17.779  0.00  0.00    +0.000 N 
ATOM     13  H   UNL     1       3.762   2.351  17.610  0.00  0.00    +0.000 HD
BRANCH  12  14
ATOM     14  C   UNL     1       4.972   3.935  17.172  0.00  0.00    +0.000 A 
ATOM     15  C   UNL     1       5.118   4.056  15.782  0.00  0.00    +0.000 A 
ATOM     16  C   UNL     1       6.283   4.593  15.225  0.00  0.00    +0.000 A 
ATOM     17  C   UNL     1       7.331   4.991  16.053  0.00  0.00    +0.000 A 
ATOM     18  C   UNL     1       7.209   4.859  17.434  0.00  0.00    +0.000 A 
ATOM     19  C   UNL     1       6.035   4.341  17.989  0.00  0.00    +0.000 A 
ENDBRANCH  12  14
ENDBRANCH   4  12
BRANCH   8  20
ATOM     20  O   UNL     1       1.487   9.204  19.444  0.00  0.00    +0.000 OA
BRANCH  20  21
ATOM     21  C   UNL     1       1.047   9.860  18.251  0.00  0.00    +0.000 C 
BRANCH  21  22
ATOM     22  C   UNL     1      -0.397  10.292  18.347  0.00  0.00    +0.000 A 
ATOM     23  C   UNL     1      -1.357   9.885  17.411  0.00  0.00    +0.000 A 
ATOM     24  C   UNL     1      -2.663  10.379  17.468  0.00  0.00    +0.000 A 
ATOM     25  C   UNL     1      -3.020  11.296  18.456  0.00  0.00    +0.000 A 
ATOM     26  C   UNL     1      -2.071  11.713  19.385  0.00  0.00    +0.000 A 
ATOM     27 CL   UNL     1      -2.500  12.862  20.592  0.00  0.00    +0.000 Cl
ATOM     28  C   UNL     1      -0.768  11.219  19.335  0.00  0.00    +0.000 A 
ENDBRANCH  21  22
ENDBRANCH  20  21
ENDBRANCH   8  20
TORSDOF 5
ENDMDL
MODEL 4
REMARK VINA RESULT:      -8.7      5.095      7.395
REMARK  Name = 
REMARK  5 active torsions:
REMARK  status: ('A' for Active; 'I' for Inactive)
REMARK    1  A    between atoms: C_4  and  N_5
REMARK    2  A    between atoms: N_5  and  C_6
REMARK    3  A    between atoms: C_15  and  O_16
REMARK    4  A    between atoms: O_16  and  C_17
REMARK    5  A    between atoms: C_17  and  C_18
REMARK                            x       y       z     vdW  Elec       q    Type
REMARK                         _______ _______ _______ _____ _____    ______ ____
ROOT
ATOM      1  O   UNL     1       0.645   2.980  20.820  0.00  0.00    +0.000 OA
ATOM      2  C   UNL     1       1.464   3.738  20.315  0.00  0.00    +0.000 A 
ATOM      3  C   UNL     1       1.529   5.146  20.719  0.00  0.00    +0.000 A 
ATOM      4  C   UNL     1       2.357   6.045  20.169  0.00  0.00    +0.000 A 
ATOM      5  C   UNL     1       3.264   5.584  19.105  0.00  0.00    +0.000 A 
ATOM      6  C   UNL     1       4.189   6.412  18.459  0.00  0.00    +0.000 A 
ATOM      7  C   UNL     1       5.078   5.891  17.508  0.00  0.00    +0.000 A 
ATOM      8  C   UNL     1       5.082   4.526  17.211  0.00  0.00    +0.000 A 
ATOM      9  C   UNL     1       4.142   3.696  17.815  0.00  0.00    +0.000 A 
ATOM     10  C   UNL     1       3.255   4.232  18.752  0.00  0.00    +0.000 A 
ATOM     11  O   UNL     1       2.357   3.321  19.345  0.00  0.00    +0.000 OA
ENDROOT
BRANCH   4  12
ATOM     12  N   UNL     1       2.349   7.374  20.549  0.00  0.00    +0.000 N 
ATOM     13  H   UNL     1       2.675   7.574  21.488  0.00  0.00    +0.000 HD
BRANCH  12  14
ATOM     14  C   UNL     1       1.499   8.375  20.027  0.00  0.00    +0.000 A 
ATOM     15  C   UNL     1       0.471   8.970  20.772  0.00  0.00    +0.000 A 
ATOM     16  C   UNL     1      -0.382   9.917  20.195  0.00  0.00    +0.000 A 
ATOM     17  C   UNL     1      -0.234  10.260  18.853  0.00  0.00    +0.000 A 
ATOM     18  C   UNL     1       0.770   9.663  18.094  0.00  0.00    +0.000 A 
ATOM     19  C   UNL     1       1.633   8.733  18.678  0.00  0.00    +0.000 A 
ENDBRANCH  12  14
ENDBRANCH   4  12
BRANCH   8  20
ATOM     20  O   UNL     1       5.958   3.911  16.357  0.00  0.00    +0.000 OA
BRANCH  20  21
ATOM     21  C   UNL     1       6.955   4.770  15.796  0.00  0.00    +0.000 C 
BRANCH  21  22
ATOM     22  C   UNL     1       7.065   4.599  14.298  0.00  0.00    +0.000 A 
ATOM     23  C   UNL     1       7.827   5.469  13.507  0.00  0.00    +0.000 A 
ATOM     24  C   UNL     1       7.831   5.346  12.115  0.00  0.00    +0.000 A 
ATOM     25  C   UNL     1       7.064   4.358  11.498  0.00  0.00    +0.000 A 
ATOM     26  C   UNL     1       6.298   3.495  12.277  0.00  0.00    +0.000 A 
ATOM     27 CL   UNL     1       5.332   2.289  11.519  0.00  0.00    +0.000 Cl
ATOM     28  C   UNL     1       6.294   3.610  13.666  0.00  0.00    +0.000 A 
ENDBRANCH  21  22
ENDBRANCH  20  21
ENDBRANCH   8  20
TORSDOF 5
ENDMDL
MODEL 5
REMARK VINA RESULT:      -8.6      6.046      8.591
REMARK  Name = 
REMARK  5 active torsions:
REMARK  status: ('A' for Active; 'I' for Inactive)
REMARK    1  A    between atoms: C_4  and  N_5
REMARK    2  A    between atoms: N_5  and  C_6
REMARK    3  A    between atoms: C_15  and  O_16
REMARK    4  A    between atoms: O_16  and  C_17
REMARK    5  A    between atoms: C_17  and  C_18
REMARK                            x       y       z     vdW  Elec       q    Type
REMARK                         _______ _______ _______ _____ _____    ______ ____
ROOT
ATOM      1  O   UNL     1       2.177   3.991  21.741  0.00  0.00    +0.000 OA
ATOM      2  C   UNL     1       2.211   4.846  20.865  0.00  0.00    +0.000 A 
ATOM      3  C   UNL     1       2.751   4.537  19.538  0.00  0.00    +0.000 A 
ATOM      4  C   UNL     1       2.873   5.438  18.552  0.00  0.00    +0.000 A 
ATOM      5  C   UNL     1       2.422   6.814  18.818  0.00  0.00    +0.000 A 
ATOM      6  C   UNL     1       2.477   7.846  17.873  0.00  0.00    +0.000 A 
ATOM      7  C   UNL     1       1.959   9.116  18.167  0.00  0.00    +0.000 A 
ATOM      8  C   UNL     1       1.347   9.368  19.396  0.00  0.00    +0.000 A 
ATOM      9  C   UNL     1       1.320   8.364  20.360  0.00  0.00    +0.000 A 
ATOM     10  C   UNL     1       1.850   7.107  20.058  0.00  0.00    +0.000 A 
ATOM     11  O   UNL     1       1.754   6.135  21.075  0.00  0.00    +0.000 OA
ENDROOT
BRANCH   4  12
ATOM     12  N   UNL     1       3.433   5.113  17.331  0.00  0.00    +0.000 N 
ATOM     13  H   UNL     1       2.848   4.581  16.696  0.00  0.00    +0.000 HD
BRANCH  12  14
ATOM     14  C   UNL     1       4.815   4.969  17.072  0.00  0.00    +0.000 A 
ATOM     15  C   UNL     1       5.329   4.686  15.798  0.00  0.00    +0.000 A 
ATOM     16  C   UNL     1       6.701   4.498  15.600  0.00  0.00    +0.000 A 
ATOM     17  C   UNL     1       7.575   4.563  16.683  0.00  0.00    +0.000 A 
ATOM     18  C   UNL     1       7.078   4.825  17.958  0.00  0.00    +0.000 A 
ATOM     19  C   UNL     1       5.710   5.033  18.149  0.00  0.00    +0.000 A 
ENDBRANCH  12  14
ENDBRANCH   4  12
BRANCH   8  20
ATOM     20  O   UNL     1       0.746  10.547  19.747  0.00  0.00    +0.000 OA
BRANCH  20  21
ATOM     21  C   UNL     1       0.236  11.312  18.651  0.00  0.00    +0.000 C 
BRANCH  21  22
ATOM     22  C   UNL     1      -1.212  10.984  18.364  0.00  0.00    +0.000 A 
ATOM     23  C   UNL     1      -1.579  10.006  17.429  0.00  0.00    +0.000 A 
ATOM     24  C   UNL     1      -2.923   9.793  17.112  0.00  0.00    +0.000 A 
ATOM     25  C   UNL     1      -3.914  10.564  17.719  0.00  0.00    +0.000 A 
ATOM     26  C   UNL     1      -3.558  11.542  18.642  0.00  0.00    +0.000 A 
ATOM     27 CL   UNL     1      -4.776  12.512  19.376  0.00  0.00    +0.000 Cl
ATOM     28  C   UNL     1      -2.219  11.756  18.966  0.00  0.00    +0.000 A 
ENDBRANCH  21  22
ENDBRANCH  20  21
ENDBRANCH   8  20
TORSDOF 5
ENDMDL
MODEL 6
REMARK VINA RESULT:      -8.6      5.451      7.806
REMARK  Name = 
REMARK  5 active torsions:
REMARK  status: ('A' for Active; 'I' for Inactive)
REMARK    1  A    between atoms: C_4  and  N_5
REMARK    2  A    between atoms: N_5  and  C_6
REMARK    3  A    between atoms: C_15  and  O_16
REMARK    4  A    between atoms: O_16  and  C_17
REMARK    5  A    between atoms: C_17  and  C_18
REMARK                            x       y       z     vdW  Elec       q    Type
REMARK                         _______ _______ _______ _____ _____    ______ ____
ROOT
ATOM      1  O   UNL     1       2.164   2.191  21.889  0.00  0.00    +0.000 OA
ATOM      2  C   UNL     1       2.276   3.101  21.076  0.00  0.00    +0.000 A 
ATOM      3  C   UNL     1       2.785   2.841  19.726  0.00  0.00    +0.000 A 
ATOM      4  C   UNL     1       2.989   3.795  18.807  0.00  0.00    +0.000 A 
ATOM      5  C   UNL     1       2.667   5.184  19.175  0.00  0.00    +0.000 A 
ATOM      6  C   UNL     1       2.816   6.272  18.306  0.00  0.00    +0.000 A 
ATOM      7  C   UNL     1       2.417   7.560  18.694  0.00  0.00    +0.000 A 
ATOM      8  C   UNL     1       1.830   7.777  19.943  0.00  0.00    +0.000 A 
ATOM      9  C   UNL     1       1.712   6.713  20.832  0.00  0.00    +0.000 A 
ATOM     10  C   UNL     1       2.124   5.438  20.436  0.00  0.00    +0.000 A 
ATOM     11  O   UNL     1       1.940   4.408  21.381  0.00  0.00    +0.000 OA
ENDROOT
BRANCH   4  12
ATOM     12  N   UNL     1       3.518   3.510  17.562  0.00  0.00    +0.000 N 
ATOM     13  H   UNL     1       3.196   2.653  17.125  0.00  0.00    +0.000 HD
BRANCH  12  14
ATOM     14  C   UNL     1       4.772   3.949  17.080  0.00  0.00    +0.000 A 
ATOM     15  C   UNL     1       5.874   4.180  17.916  0.00  0.00    +0.000 A 
ATOM     16  C   UNL     1       7.079   4.667  17.400  0.00  0.00    +0.000 A 
ATOM     17  C   UNL     1       7.187   4.957  16.042  0.00  0.00    +0.000 A 
ATOM     18  C   UNL     1       6.096   4.751  15.201  0.00  0.00    +0.000 A 
ATOM     19  C   UNL     1       4.900   4.245  15.716  0.00  0.00    +0.000 A 
ENDBRANCH  12  14
ENDBRANCH   4  12
BRANCH   8  20
ATOM     20  O   UNL     1       1.340   8.978  20.381  0.00  0.00    +0.000 OA
BRANCH  20  21
ATOM     21  C   UNL     1       0.648   8.925  21.632  0.00  0.00    +0.000 C 
BRANCH  21  22
ATOM     22  C   UNL     1      -0.214  10.148  21.848  0.00  0.00    +0.000 A 
ATOM     23  C   UNL     1      -0.896  10.370  23.052  0.00  0.00    +0.000 A 
ATOM     24  C   UNL     1      -1.762  11.457  23.190  0.00  0.00    +0.000 A 
ATOM     25  C   UNL     1      -1.965  12.329  22.119  0.00  0.00    +0.000 A 
ATOM     26  C   UNL     1      -1.299  12.110  20.917  0.00  0.00    +0.000 A 
ATOM     27 CL   UNL     1      -1.565  13.169  19.586  0.00  0.00    +0.000 Cl
ATOM     28  C   UNL     1      -0.429  11.030  20.776  0.00  0.00    +0.000 A 
ENDBRANCH  21  22
ENDBRANCH  20  21
ENDBRANCH   8  20
TORSDOF 5
ENDMDL
MODEL 7
REMARK VINA RESULT:      -8.5      6.681      9.740
REMARK  Name = 
REMARK  5 active torsions:
REMARK  status: ('A' for Active; 'I' for Inactive)
REMARK    1  A    between atoms: C_4  and  N_5
REMARK    2  A    between atoms: N_5  and  C_6
REMARK    3  A    between atoms: C_15  and  O_16
REMARK    4  A    between atoms: O_16  and  C_17
REMARK    5  A    between atoms: C_17  and  C_18
REMARK                            x       y       z     vdW  Elec       q    Type
REMARK                         _______ _______ _______ _____ _____    ______ ____
ROOT
ATOM      1  O   UNL     1      -0.031   9.826  23.517  0.00  0.00    +0.000 OA
ATOM      2  C   UNL     1       0.236   9.750  22.324  0.00  0.00    +0.000 A 
ATOM      3  C   UNL     1      -0.354  10.688  21.364  0.00  0.00    +0.000 A 
ATOM      4  C   UNL     1      -0.152  10.627  20.040  0.00  0.00    +0.000 A 
ATOM      5  C   UNL     1       0.726   9.564  19.525  0.00  0.00    +0.000 A 
ATOM      6  C   UNL     1       1.034   9.397  18.170  0.00  0.00    +0.000 A 
ATOM      7  C   UNL     1       1.939   8.411  17.755  0.00  0.00    +0.000 A 
ATOM      8  C   UNL     1       2.580   7.595  18.690  0.00  0.00    +0.000 A 
ATOM      9  C   UNL     1       2.255   7.721  20.037  0.00  0.00    +0.000 A 
ATOM     10  C   UNL     1       1.342   8.701  20.434  0.00  0.00    +0.000 A 
ATOM     11  O   UNL     1       1.092   8.788  21.820  0.00  0.00    +0.000 OA
ENDROOT
BRANCH   4  12
ATOM     12  N   UNL     1      -0.769  11.504  19.166  0.00  0.00    +0.000 N 
ATOM     13  H   UNL     1      -0.498  12.478  19.243  0.00  0.00    +0.000 HD
BRANCH  12  14
ATOM     14  C   UNL     1      -2.040  11.321  18.577  0.00  0.00    +0.000 A 
ATOM     15  C   UNL     1      -2.236  10.603  17.388  0.00  0.00    +0.000 A 
ATOM     16  C   UNL     1      -3.506  10.495  16.813  0.00  0.00    +0.000 A 
ATOM     17  C   UNL     1      -4.595  11.130  17.407  0.00  0.00    +0.000 A 
ATOM     18  C   UNL     1      -4.414  11.862  18.577  0.00  0.00    +0.000 A 
ATOM     19  C   UNL     1      -3.147  11.951  19.161  0.00  0.00    +0.000 A 
ENDBRANCH  12  14
ENDBRANCH   4  12
BRANCH   8  20
ATOM     20  O   UNL     1       3.533   6.658  18.392  0.00  0.00    +0.000 OA
BRANCH  20  21
ATOM     21  C   UNL     1       3.109   5.633  17.488  0.00  0.00    +0.000 C 
BRANCH  21  22
ATOM     22  C   UNL     1       2.697   4.376  18.219  0.00  0.00    +0.000 A 
ATOM     23  C   UNL     1       1.380   3.898  18.188  0.00  0.00    +0.000 A 
ATOM     24  C   UNL     1       1.006   2.790  18.952  0.00  0.00    +0.000 A 
ATOM     25  C   UNL     1       1.944   2.153  19.765  0.00  0.00    +0.000 A 
ATOM     26  C   UNL     1       3.252   2.626  19.808  0.00  0.00    +0.000 A 
ATOM     27 CL   UNL     1       4.407   1.859  20.828  0.00  0.00    +0.000 Cl
ATOM     28  C   UNL     1       3.632   3.729  19.044  0.00  0.00    +0.000 A 
ENDBRANCH  21  22
ENDBRANCH  20  21
ENDBRANCH   8  20
TORSDOF 5
ENDMDL
MODEL 8
REMARK VINA RESULT:      -8.5      6.371      9.272
REMARK  Name = 
REMARK  5 active torsions:
REMARK  status: ('A' for Active; 'I' for Inactive)
REMARK    1  A    between atoms: C_4  and  N_5
REMARK    2  A    between atoms: N_5  and  C_6
REMARK    3  A    between atoms: C_15  and  O_16
REMARK    4  A    between atoms: O_16  and  C_17
REMARK    5  A    between atoms: C_17  and  C_18
REMARK                            x       y       z     vdW  Elec       q    Type
REMARK                         _______ _______ _______ _____ _____    ______ ____
ROOT
ATOM      1  O   UNL     1      -0.419   8.703  22.834  0.00  0.00    +0.000 OA
ATOM      2  C   UNL     1       0.072   8.820  21.718  0.00  0.00    +0.000 A 
ATOM      3  C   UNL     1      -0.377   9.881  20.810  0.00  0.00    +0.000 A 
ATOM      4  C   UNL     1       0.073  10.032  19.557  0.00  0.00    +0.000 A 
ATOM      5  C   UNL     1       1.089   9.083  19.071  0.00  0.00    +0.000 A 
ATOM      6  C   UNL     1       1.655   9.138  17.792  0.00  0.00    +0.000 A 
ATOM      7  C   UNL     1       2.675   8.250  17.420  0.00  0.00    +0.000 A 
ATOM      8  C   UNL     1       3.171   7.315  18.330  0.00  0.00    +0.000 A 
ATOM      9  C   UNL     1       2.592   7.221  19.592  0.00  0.00    +0.000 A 
ATOM     10  C   UNL     1       1.569   8.105  19.945  0.00  0.00    +0.000 A 
ATOM     11  O   UNL     1       1.058   7.969  21.253  0.00  0.00    +0.000 OA
ENDROOT
BRANCH   4  12
ATOM     12  N   UNL     1      -0.414  11.018  18.720  0.00  0.00    +0.000 N 
ATOM     13  H   UNL     1      -0.069  11.957  18.885  0.00  0.00    +0.000 HD
BRANCH  12  14
ATOM     14  C   UNL     1      -1.658  10.988  18.049  0.00  0.00    +0.000 A 
ATOM     15  C   UNL     1      -2.766  11.745  18.459  0.00  0.00    +0.000 A 
ATOM     16  C   UNL     1      -3.993  11.640  17.797  0.00  0.00    +0.000 A 
ATOM     17  C   UNL     1      -4.136  10.753  16.732  0.00  0.00    +0.000 A 
ATOM     18  C   UNL     1      -3.051   9.981  16.325  0.00  0.00    +0.000 A 
ATOM     19  C   UNL     1      -1.820  10.102  16.975  0.00  0.00    +0.000 A 
ENDBRANCH  12  14
ENDBRANCH   4  12
BRANCH   8  20
ATOM     20  O   UNL     1       4.213   6.460  18.088  0.00  0.00    +0.000 OA
BRANCH  20  21
ATOM     21  C   UNL     1       3.921   5.399  17.173  0.00  0.00    +0.000 C 
BRANCH  21  22
ATOM     22  C   UNL     1       3.385   4.177  17.883  0.00  0.00    +0.000 A 
ATOM     23  C   UNL     1       2.059   3.752  17.727  0.00  0.00    +0.000 A 
ATOM     24  C   UNL     1       1.564   2.678  18.471  0.00  0.00    +0.000 A 
ATOM     25  C   UNL     1       2.387   2.024  19.387  0.00  0.00    +0.000 A 
ATOM     26  C   UNL     1       3.703   2.445  19.554  0.00  0.00    +0.000 A 
ATOM     27 CL   UNL     1       4.716   1.657  20.701  0.00  0.00    +0.000 Cl
ATOM     28  C   UNL     1       4.204   3.513  18.811  0.00  0.00    +0.000 A 
ENDBRANCH  21  22
ENDBRANCH  20  21
ENDBRANCH   8  20
TORSDOF 5
ENDMDL
MODEL 9
REMARK VINA RESULT:      -8.5      6.201      9.122
REMARK  Name = 
REMARK  5 active torsions:
REMARK  status: ('A' for Active; 'I' for Inactive)
REMARK    1  A    between atoms: C_4  and  N_5
REMARK    2  A    between atoms: N_5  and  C_6
REMARK    3  A    between atoms: C_15  and  O_16
REMARK    4  A    between atoms: O_16  and  C_17
REMARK    5  A    between atoms: C_17  and  C_18
REMARK                            x       y       z     vdW  Elec       q    Type
REMARK                         _______ _______ _______ _____ _____    ______ ____
ROOT
ATOM      1  O   UNL     1      -0.235  10.351  23.455  0.00  0.00    +0.000 OA
ATOM      2  C   UNL     1       0.188  10.105  22.333  0.00  0.00    +0.000 A 
ATOM      3  C   UNL     1       0.075  11.094  21.256  0.00  0.00    +0.000 A 
ATOM      4  C   UNL     1       0.463  10.871  19.992  0.00  0.00    +0.000 A 
ATOM      5  C   UNL     1       1.049   9.559  19.674  0.00  0.00    +0.000 A 
ATOM      6  C   UNL     1       1.510   9.202  18.401  0.00  0.00    +0.000 A 
ATOM      7  C   UNL     1       2.129   7.962  18.183  0.00  0.00    +0.000 A 
ATOM      8  C   UNL     1       2.331   7.072  19.241  0.00  0.00    +0.000 A 
ATOM      9  C   UNL     1       1.844   7.396  20.503  0.00  0.00    +0.000 A 
ATOM     10  C   UNL     1       1.218   8.629  20.703  0.00  0.00    +0.000 A 
ATOM     11  O   UNL     1       0.783   8.897  22.017  0.00  0.00    +0.000 OA
ENDROOT
BRANCH   4  12
ATOM     12  N   UNL     1       0.292  11.817  18.998  0.00  0.00    +0.000 N 
ATOM     13  H   UNL     1      -0.147  11.494  18.143  0.00  0.00    +0.000 HD
BRANCH  12  14
ATOM     14  C   UNL     1       1.083  12.975  18.820  0.00  0.00    +0.000 A 
ATOM     15  C   UNL     1       2.362  12.946  18.244  0.00  0.00    +0.000 A 
ATOM     16  C   UNL     1       3.130  14.110  18.138  0.00  0.00    +0.000 A 
ATOM     17  C   UNL     1       2.638  15.315  18.635  0.00  0.00    +0.000 A 
ATOM     18  C   UNL     1       1.378  15.357  19.227  0.00  0.00    +0.000 A 
ATOM     19  C   UNL     1       0.605  14.196  19.313  0.00  0.00    +0.000 A 
ENDBRANCH  12  14
ENDBRANCH   4  12
BRANCH   8  20
ATOM     20  O   UNL     1       2.991   5.877  19.145  0.00  0.00    +0.000 OA
BRANCH  20  21
ATOM     21  C   UNL     1       3.134   5.373  17.814  0.00  0.00    +0.000 C 
BRANCH  21  22
ATOM     22  C   UNL     1       4.585   5.151  17.451  0.00  0.00    +0.000 A 
ATOM     23  C   UNL     1       4.961   4.450  16.297  0.00  0.00    +0.000 A 
ATOM     24  C   UNL     1       6.306   4.175  16.038  0.00  0.00    +0.000 A 
ATOM     25  C   UNL     1       7.290   4.589  16.936  0.00  0.00    +0.000 A 
ATOM     26  C   UNL     1       6.924   5.279  18.088  0.00  0.00    +0.000 A 
ATOM     27 CL   UNL     1       8.132   5.771  19.212  0.00  0.00    +0.000 Cl
ATOM     28  C   UNL     1       5.583   5.560  18.350  0.00  0.00    +0.000 A 
ENDBRANCH  21  22
ENDBRANCH  20  21
ENDBRANCH   8  20
TORSDOF 5
ENDMDL
