MODEL 1
REMARK VINA RESULT:      -7.6      0.000      0.000
REMARK  Name = 
REMARK  1 active torsions:
REMARK  status: ('A' for Active; 'I' for Inactive)
REMARK    1  A    between atoms: N_22  and  O_23
REMARK                            x       y       z     vdW  Elec       q    Type
REMARK                         _______ _______ _______ _____ _____    ______ ____
ROOT
ATOM      1  O   UNL     1       4.895   6.967  15.987  0.00  0.00    +0.000 OA
ATOM      2  C   UNL     1       4.443   6.078  16.697  0.00  0.00    +0.000 C 
ATOM      3  N   UNL     1       4.853   4.748  16.754  0.00  0.00    +0.000 N 
ATOM      4  C   UNL     1       4.052   4.011  17.625  0.00  0.00    +0.000 A 
ATOM      5  C   UNL     1       4.172   2.678  17.979  0.00  0.00    +0.000 A 
ATOM      6  C   UNL     1       3.228   2.167  18.882  0.00  0.00    +0.000 A 
ATOM      7  C   UNL     1       2.143   2.950  19.297  0.00  0.00    +0.000 A 
ATOM      8 CL   UNL     1       1.019   2.333  20.445  0.00  0.00    +0.000 Cl
ATOM      9  C   UNL     1       1.999   4.261  18.854  0.00  0.00    +0.000 A 
ATOM     10  C   UNL     1       3.038   4.819  18.136  0.00  0.00    +0.000 A 
ATOM     11  C   UNL     1       3.345   6.189  17.721  0.00  0.00    +0.000 C 
ATOM     12  C   UNL     1       2.928   7.369  18.199  0.00  0.00    +0.000 C 
ATOM     13  N   UNL     1       3.164   8.639  17.664  0.00  0.00    +0.000 N 
ATOM     14  C   UNL     1       2.229   9.537  18.177  0.00  0.00    +0.000 A 
ATOM     15  C   UNL     1       2.102  10.893  17.947  0.00  0.00    +0.000 A 
ATOM     16  C   UNL     1       1.187  11.617  18.735  0.00  0.00    +0.000 A 
ATOM     17  C   UNL     1       0.430  10.982  19.732  0.00  0.00    +0.000 A 
ATOM     18  F   UNL     1      -0.401  11.706  20.492  0.00  0.00    +0.000 F 
ATOM     19  C   UNL     1       0.563   9.628  19.981  0.00  0.00    +0.000 A 
ATOM     20  C   UNL     1       1.471   8.949  19.193  0.00  0.00    +0.000 A 
ATOM     21  C   UNL     1       1.990   7.587  19.394  0.00  0.00    +0.000 C 
ATOM     22  N   UNL     1       1.699   7.010  20.508  0.00  0.00    +0.000 NA
ATOM     23  H   UNL     1       5.616   4.379  16.202  0.00  0.00    +0.000 HD
ATOM     24  H   UNL     1       3.561   8.718  16.733  0.00  0.00    +0.000 HD
ENDROOT
BRANCH  22  25
ATOM     25  O   UNL     1       2.547   5.961  20.834  0.00  0.00    +0.000 OA
ATOM     26  H   UNL     1       2.201   5.239  20.275  0.00  0.00    +0.000 HD
ENDBRANCH  22  25
TORSDOF 1
ENDMDL
MODEL 2
REMARK VINA RESULT:      -7.3      2.384      3.669
REMARK  Name = 
REMARK  1 active torsions:
REMARK  status: ('A' for Active; 'I' for Inactive)
REMARK    1  A    between atoms: N_22  and  O_23
REMARK                            x       y       z     vdW  Elec       q    Type
REMARK                         _______ _______ _______ _____ _____    ______ ____
ROOT
ATOM      1  O   UNL     1       2.178   4.311  21.689  0.00  0.00    +0.000 OA
ATOM      2  C   UNL     1       2.671   4.511  20.586  0.00  0.00    +0.000 C 
ATOM      3  N   UNL     1       3.266   3.577  19.742  0.00  0.00    +0.000 N 
ATOM      4  C   UNL     1       3.785   4.188  18.601  0.00  0.00    +0.000 A 
ATOM      5  C   UNL     1       4.406   3.592  17.517  0.00  0.00    +0.000 A 
ATOM      6  C   UNL     1       4.845   4.435  16.487  0.00  0.00    +0.000 A 
ATOM      7  C   UNL     1       4.767   5.828  16.624  0.00  0.00    +0.000 A 
ATOM      8 CL   UNL     1       5.261   6.854  15.333  0.00  0.00    +0.000 Cl
ATOM      9  C   UNL     1       4.218   6.402  17.766  0.00  0.00    +0.000 A 
ATOM     10  C   UNL     1       3.601   5.567  18.677  0.00  0.00    +0.000 A 
ATOM     11  C   UNL     1       2.737   5.813  19.833  0.00  0.00    +0.000 C 
ATOM     12  C   UNL     1       1.981   6.869  20.160  0.00  0.00    +0.000 C 
ATOM     13  N   UNL     1       1.282   7.083  21.351  0.00  0.00    +0.000 N 
ATOM     14  C   UNL     1       0.993   8.442  21.479  0.00  0.00    +0.000 A 
ATOM     15  C   UNL     1       0.301   9.097  22.478  0.00  0.00    +0.000 A 
ATOM     16  C   UNL     1      -0.022  10.453  22.281  0.00  0.00    +0.000 A 
ATOM     17  C   UNL     1       0.343  11.120  21.101  0.00  0.00    +0.000 A 
ATOM     18  F   UNL     1      -0.014  12.399  20.928  0.00  0.00    +0.000 F 
ATOM     19  C   UNL     1       1.022  10.467  20.089  0.00  0.00    +0.000 A 
ATOM     20  C   UNL     1       1.319   9.137  20.312  0.00  0.00    +0.000 A 
ATOM     21  C   UNL     1       1.802   8.150  19.334  0.00  0.00    +0.000 C 
ATOM     22  N   UNL     1       1.800   8.506  18.096  0.00  0.00    +0.000 NA
ATOM     23  H   UNL     1       3.331   2.592  19.963  0.00  0.00    +0.000 HD
ATOM     24  H   UNL     1       1.455   6.473  22.144  0.00  0.00    +0.000 HD
ENDROOT
BRANCH  22  25
ATOM     25  O   UNL     1       1.827   7.442  17.206  0.00  0.00    +0.000 OA
ATOM     26  H   UNL     1       2.575   6.913  17.544  0.00  0.00    +0.000 HD
ENDBRANCH  22  25
TORSDOF 1
ENDMDL
MODEL 3
REMARK VINA RESULT:      -7.3      3.717      7.235
REMARK  Name = 
REMARK  1 active torsions:
REMARK  status: ('A' for Active; 'I' for Inactive)
REMARK    1  A    between atoms: N_22  and  O_23
REMARK                            x       y       z     vdW  Elec       q    Type
REMARK                         _______ _______ _______ _____ _____    ______ ____
ROOT
ATOM      1  O   UNL     1       1.014   9.055  22.942  0.00  0.00    +0.000 OA
ATOM      2  C   UNL     1       0.482   9.650  22.013  0.00  0.00    +0.000 C 
ATOM      3  N   UNL     1      -0.268  10.821  22.077  0.00  0.00    +0.000 N 
ATOM      4  C   UNL     1      -0.779  11.160  20.824  0.00  0.00    +0.000 A 
ATOM      5  C   UNL     1      -1.531  12.270  20.476  0.00  0.00    +0.000 A 
ATOM      6  C   UNL     1      -1.928  12.380  19.136  0.00  0.00    +0.000 A 
ATOM      7  C   UNL     1      -1.678  11.340  18.231  0.00  0.00    +0.000 A 
ATOM      8 CL   UNL     1      -2.124  11.506  16.577  0.00  0.00    +0.000 Cl
ATOM      9  C   UNL     1      -0.998  10.195  18.631  0.00  0.00    +0.000 A 
ATOM     10  C   UNL     1      -0.430  10.186  19.890  0.00  0.00    +0.000 A 
ATOM     11  C   UNL     1       0.525   9.295  20.551  0.00  0.00    +0.000 C 
ATOM     12  C   UNL     1       1.418   8.432  20.049  0.00  0.00    +0.000 C 
ATOM     13  N   UNL     1       2.208   7.517  20.750  0.00  0.00    +0.000 N 
ATOM     14  C   UNL     1       2.662   6.532  19.872  0.00  0.00    +0.000 A 
ATOM     15  C   UNL     1       3.486   5.452  20.121  0.00  0.00    +0.000 A 
ATOM     16  C   UNL     1       3.954   4.707  19.022  0.00  0.00    +0.000 A 
ATOM     17  C   UNL     1       3.600   5.055  17.709  0.00  0.00    +0.000 A 
ATOM     18  F   UNL     1       4.094   4.351  16.683  0.00  0.00    +0.000 F 
ATOM     19  C   UNL     1       2.789   6.145  17.450  0.00  0.00    +0.000 A 
ATOM     20  C   UNL     1       2.351   6.856  18.549  0.00  0.00    +0.000 A 
ATOM     21  C   UNL     1       1.698   8.174  18.562  0.00  0.00    +0.000 C 
ATOM     22  N   UNL     1       1.667   8.821  17.450  0.00  0.00    +0.000 NA
ATOM     23  H   UNL     1      -0.436  11.328  22.936  0.00  0.00    +0.000 HD
ATOM     24  H   UNL     1       2.012   7.342  21.731  0.00  0.00    +0.000 HD
ENDROOT
BRANCH  22  25
ATOM     25  O   UNL     1       1.461  10.185  17.600  0.00  0.00    +0.000 OA
ATOM     26  H   UNL     1       1.835  10.351  18.486  0.00  0.00    +0.000 HD
ENDBRANCH  22  25
TORSDOF 1
ENDMDL
MODEL 4
REMARK VINA RESULT:      -7.1      4.382      5.785
REMARK  Name = 
REMARK  1 active torsions:
REMARK  status: ('A' for Active; 'I' for Inactive)
REMARK    1  A    between atoms: N_22  and  O_23
REMARK                            x       y       z     vdW  Elec       q    Type
REMARK                         _______ _______ _______ _____ _____    ______ ____
ROOT
ATOM      1  O   UNL     1       6.856   7.128  18.038  0.00  0.00    +0.000 OA
ATOM      2  C   UNL     1       6.784   6.425  17.038  0.00  0.00    +0.000 C 
ATOM      3  N   UNL     1       7.697   6.346  15.990  0.00  0.00    +0.000 N 
ATOM      4  C   UNL     1       7.240   5.492  14.987  0.00  0.00    +0.000 A 
ATOM      5  C   UNL     1       7.881   5.125  13.816  0.00  0.00    +0.000 A 
ATOM      6  C   UNL     1       7.201   4.245  12.962  0.00  0.00    +0.000 A 
ATOM      7  C   UNL     1       5.879   3.867  13.234  0.00  0.00    +0.000 A 
ATOM      8 CL   UNL     1       5.070   2.747  12.208  0.00  0.00    +0.000 Cl
ATOM      9  C   UNL     1       5.228   4.325  14.375  0.00  0.00    +0.000 A 
ATOM     10  C   UNL     1       5.971   5.017  15.311  0.00  0.00    +0.000 A 
ATOM     11  C   UNL     1       5.705   5.433  16.689  0.00  0.00    +0.000 C 
ATOM     12  C   UNL     1       4.831   4.977  17.596  0.00  0.00    +0.000 C 
ATOM     13  N   UNL     1       4.547   5.514  18.854  0.00  0.00    +0.000 N 
ATOM     14  C   UNL     1       3.312   5.035  19.292  0.00  0.00    +0.000 A 
ATOM     15  C   UNL     1       2.652   5.280  20.480  0.00  0.00    +0.000 A 
ATOM     16  C   UNL     1       1.500   4.523  20.766  0.00  0.00    +0.000 A 
ATOM     17  C   UNL     1       1.037   3.543  19.874  0.00  0.00    +0.000 A 
ATOM     18  F   UNL     1      -0.038   2.813  20.194  0.00  0.00    +0.000 F 
ATOM     19  C   UNL     1       1.702   3.281  18.690  0.00  0.00    +0.000 A 
ATOM     20  C   UNL     1       2.830   4.036  18.442  0.00  0.00    +0.000 A 
ATOM     21  C   UNL     1       3.851   3.811  17.408  0.00  0.00    +0.000 C 
ATOM     22  N   UNL     1       3.788   2.701  16.757  0.00  0.00    +0.000 NA
ATOM     23  H   UNL     1       8.560   6.873  15.966  0.00  0.00    +0.000 HD
ATOM     24  H   UNL     1       4.904   6.435  19.092  0.00  0.00    +0.000 HD
ENDROOT
BRANCH  22  25
ATOM     25  O   UNL     1       4.979   2.343  16.142  0.00  0.00    +0.000 OA
ATOM     26  H   UNL     1       5.503   3.163  16.220  0.00  0.00    +0.000 HD
ENDBRANCH  22  25
TORSDOF 1
ENDMDL
MODEL 5
REMARK VINA RESULT:      -6.7      7.290      9.592
REMARK  Name = 
REMARK  1 active torsions:
REMARK  status: ('A' for Active; 'I' for Inactive)
REMARK    1  A    between atoms: N_22  and  O_23
REMARK                            x       y       z     vdW  Elec       q    Type
REMARK                         _______ _______ _______ _____ _____    ______ ____
ROOT
ATOM      1  O   UNL     1      -7.282  12.608  18.221  0.00  0.00    +0.000 OA
ATOM      2  C   UNL     1      -6.180  12.167  17.917  0.00  0.00    +0.000 C 
ATOM      3  N   UNL     1      -5.792  11.625  16.695  0.00  0.00    +0.000 N 
ATOM      4  C   UNL     1      -4.480  11.156  16.746  0.00  0.00    +0.000 A 
ATOM      5  C   UNL     1      -3.729  10.596  15.726  0.00  0.00    +0.000 A 
ATOM      6  C   UNL     1      -2.421  10.199  16.037  0.00  0.00    +0.000 A 
ATOM      7  C   UNL     1      -1.954  10.255  17.357  0.00  0.00    +0.000 A 
ATOM      8 CL   UNL     1      -0.331   9.814  17.720  0.00  0.00    +0.000 Cl
ATOM      9  C   UNL     1      -2.763  10.741  18.379  0.00  0.00    +0.000 A 
ATOM     10  C   UNL     1      -3.967  11.321  18.031  0.00  0.00    +0.000 A 
ATOM     11  C   UNL     1      -4.941  12.124  18.772  0.00  0.00    +0.000 C 
ATOM     12  C   UNL     1      -4.817  12.851  19.890  0.00  0.00    +0.000 C 
ATOM     13  N   UNL     1      -5.830  13.488  20.612  0.00  0.00    +0.000 N 
ATOM     14  C   UNL     1      -5.378  13.755  21.904  0.00  0.00    +0.000 A 
ATOM     15  C   UNL     1      -6.028  14.390  22.944  0.00  0.00    +0.000 A 
ATOM     16  C   UNL     1      -5.285  14.707  24.097  0.00  0.00    +0.000 A 
ATOM     17  C   UNL     1      -3.920  14.393  24.186  0.00  0.00    +0.000 A 
ATOM     18  F   UNL     1      -3.232  14.744  25.280  0.00  0.00    +0.000 F 
ATOM     19  C   UNL     1      -3.257  13.772  23.143  0.00  0.00    +0.000 A 
ATOM     20  C   UNL     1      -4.013  13.480  22.027  0.00  0.00    +0.000 A 
ATOM     21  C   UNL     1      -3.531  13.057  20.703  0.00  0.00    +0.000 C 
ATOM     22  N   UNL     1      -2.261  13.116  20.498  0.00  0.00    +0.000 NA
ATOM     23  H   UNL     1      -6.409  11.560  15.896  0.00  0.00    +0.000 HD
ATOM     24  H   UNL     1      -6.799  13.283  20.392  0.00  0.00    +0.000 HD
ENDROOT
BRANCH  22  25
ATOM     25  O   UNL     1      -1.910  13.145  19.156  0.00  0.00    +0.000 OA
ATOM     26  H   UNL     1      -2.667  13.615  18.758  0.00  0.00    +0.000 HD
ENDBRANCH  22  25
TORSDOF 1
ENDMDL
MODEL 6
REMARK VINA RESULT:      -6.7      1.147      1.379
REMARK  Name = 
REMARK  1 active torsions:
REMARK  status: ('A' for Active; 'I' for Inactive)
REMARK    1  A    between atoms: N_22  and  O_23
REMARK                            x       y       z     vdW  Elec       q    Type
REMARK                         _______ _______ _______ _____ _____    ______ ____
ROOT
ATOM      1  O   UNL     1       4.080   8.018  16.577  0.00  0.00    +0.000 OA
ATOM      2  C   UNL     1       3.847   6.911  17.045  0.00  0.00    +0.000 C 
ATOM      3  N   UNL     1       4.442   5.701  16.697  0.00  0.00    +0.000 N 
ATOM      4  C   UNL     1       3.864   4.638  17.391  0.00  0.00    +0.000 A 
ATOM      5  C   UNL     1       4.212   3.298  17.350  0.00  0.00    +0.000 A 
ATOM      6  C   UNL     1       3.467   2.419  18.148  0.00  0.00    +0.000 A 
ATOM      7  C   UNL     1       2.343   2.873  18.851  0.00  0.00    +0.000 A 
ATOM      8 CL   UNL     1       1.466   1.797  19.869  0.00  0.00    +0.000 Cl
ATOM      9  C   UNL     1       1.964   4.210  18.803  0.00  0.00    +0.000 A 
ATOM     10  C   UNL     1       2.819   5.103  18.187  0.00  0.00    +0.000 A 
ATOM     11  C   UNL     1       2.878   6.565  18.146  0.00  0.00    +0.000 C 
ATOM     12  C   UNL     1       2.363   7.492  18.964  0.00  0.00    +0.000 C 
ATOM     13  N   UNL     1       2.353   8.878  18.786  0.00  0.00    +0.000 N 
ATOM     14  C   UNL     1       1.372   9.441  19.602  0.00  0.00    +0.000 A 
ATOM     15  C   UNL     1       1.031  10.768  19.769  0.00  0.00    +0.000 A 
ATOM     16  C   UNL     1       0.129  11.097  20.798  0.00  0.00    +0.000 A 
ATOM     17  C   UNL     1      -0.404  10.106  21.638  0.00  0.00    +0.000 A 
ATOM     18  F   UNL     1      -1.228  10.456  22.633  0.00  0.00    +0.000 F 
ATOM     19  C   UNL     1      -0.054   8.776  21.488  0.00  0.00    +0.000 A 
ATOM     20  C   UNL     1       0.835   8.489  20.473  0.00  0.00    +0.000 A 
ATOM     21  C   UNL     1       1.559   7.229  20.244  0.00  0.00    +0.000 C 
ATOM     22  N   UNL     1       1.491   6.340  21.174  0.00  0.00    +0.000 NA
ATOM     23  H   UNL     1       5.175   5.622  16.005  0.00  0.00    +0.000 HD
ATOM     24  H   UNL     1       2.617   9.263  17.884  0.00  0.00    +0.000 HD
ENDROOT
BRANCH  22  25
ATOM     25  O   UNL     1       2.510   5.399  21.126  0.00  0.00    +0.000 OA
ATOM     26  H   UNL     1       3.294   5.937  21.351  0.00  0.00    +0.000 HD
ENDBRANCH  22  25
TORSDOF 1
ENDMDL
MODEL 7
REMARK VINA RESULT:      -6.7      9.644     11.032
REMARK  Name = 
REMARK  1 active torsions:
REMARK  status: ('A' for Active; 'I' for Inactive)
REMARK    1  A    between atoms: N_22  and  O_23
REMARK                            x       y       z     vdW  Elec       q    Type
REMARK                         _______ _______ _______ _____ _____    ______ ____
ROOT
ATOM      1  O   UNL     1       9.363   9.968  19.551  0.00  0.00    +0.000 OA
ATOM      2  C   UNL     1       9.821  11.039  19.171  0.00  0.00    +0.000 C 
ATOM      3  N   UNL     1      10.315  11.348  17.907  0.00  0.00    +0.000 N 
ATOM      4  C   UNL     1      10.824  12.646  17.869  0.00  0.00    +0.000 A 
ATOM      5  C   UNL     1      11.357  13.327  16.788  0.00  0.00    +0.000 A 
ATOM      6  C   UNL     1      11.807  14.636  17.013  0.00  0.00    +0.000 A 
ATOM      7  C   UNL     1      11.828  15.169  18.309  0.00  0.00    +0.000 A 
ATOM      8 CL   UNL     1      12.333  16.793  18.568  0.00  0.00    +0.000 Cl
ATOM      9  C   UNL     1      11.368  14.427  19.392  0.00  0.00    +0.000 A 
ATOM     10  C   UNL     1      10.737  13.226  19.133  0.00  0.00    +0.000 A 
ATOM     11  C   UNL     1       9.942  12.316  19.959  0.00  0.00    +0.000 C 
ATOM     12  C   UNL     1       9.273  12.519  21.102  0.00  0.00    +0.000 C 
ATOM     13  N   UNL     1       8.642  11.564  21.903  0.00  0.00    +0.000 N 
ATOM     14  C   UNL     1       8.451  12.087  23.182  0.00  0.00    +0.000 A 
ATOM     15  C   UNL     1       7.847  11.509  24.281  0.00  0.00    +0.000 A 
ATOM     16  C   UNL     1       7.608  12.318  25.408  0.00  0.00    +0.000 A 
ATOM     17  C   UNL     1       7.966  13.676  25.414  0.00  0.00    +0.000 A 
ATOM     18  F   UNL     1       7.689  14.427  26.486  0.00  0.00    +0.000 F 
ATOM     19  C   UNL     1       8.556  14.266  24.311  0.00  0.00    +0.000 A 
ATOM     20  C   UNL     1       8.772  13.447  23.221  0.00  0.00    +0.000 A 
ATOM     21  C   UNL     1       9.144  13.849  21.857  0.00  0.00    +0.000 C 
ATOM     22  N   UNL     1       9.113  15.109  21.590  0.00  0.00    +0.000 NA
ATOM     23  H   UNL     1      10.323  10.691  17.138  0.00  0.00    +0.000 HD
ATOM     24  H   UNL     1       8.808  10.578  21.723  0.00  0.00    +0.000 HD
ENDROOT
BRANCH  22  25
ATOM     25  O   UNL     1       9.031  15.394  20.235  0.00  0.00    +0.000 OA
ATOM     26  H   UNL     1       9.590  14.695  19.846  0.00  0.00    +0.000 HD
ENDBRANCH  22  25
TORSDOF 1
ENDMDL
MODEL 8
REMARK VINA RESULT:      -6.5      5.473      7.639
REMARK  Name = 
REMARK  1 active torsions:
REMARK  status: ('A' for Active; 'I' for Inactive)
REMARK    1  A    between atoms: N_22  and  O_23
REMARK                            x       y       z     vdW  Elec       q    Type
REMARK                         _______ _______ _______ _____ _____    ______ ____
ROOT
ATOM      1  O   UNL     1      -3.272  11.520  16.804  0.00  0.00    +0.000 OA
ATOM      2  C   UNL     1      -2.338  11.120  17.488  0.00  0.00    +0.000 C 
ATOM      3  N   UNL     1      -1.202  10.441  17.056  0.00  0.00    +0.000 N 
ATOM      4  C   UNL     1      -0.394  10.076  18.132  0.00  0.00    +0.000 A 
ATOM      5  C   UNL     1       0.832   9.433  18.104  0.00  0.00    +0.000 A 
ATOM      6  C   UNL     1       1.449   9.175  19.337  0.00  0.00    +0.000 A 
ATOM      7  C   UNL     1       0.781   9.447  20.538  0.00  0.00    +0.000 A 
ATOM      8 CL   UNL     1       1.565   9.175  22.046  0.00  0.00    +0.000 Cl
ATOM      9  C   UNL     1      -0.490  10.013  20.535  0.00  0.00    +0.000 A 
ATOM     10  C   UNL     1      -0.999  10.453  19.329  0.00  0.00    +0.000 A 
ATOM     11  C   UNL     1      -2.152  11.282  18.973  0.00  0.00    +0.000 C 
ATOM     12  C   UNL     1      -2.859  12.165  19.691  0.00  0.00    +0.000 C 
ATOM     13  N   UNL     1      -4.034  12.824  19.318  0.00  0.00    +0.000 N 
ATOM     14  C   UNL     1      -4.679  13.299  20.460  0.00  0.00    +0.000 A 
ATOM     15  C   UNL     1      -5.848  14.026  20.564  0.00  0.00    +0.000 A 
ATOM     16  C   UNL     1      -6.193  14.551  21.824  0.00  0.00    +0.000 A 
ATOM     17  C   UNL     1      -5.369  14.349  22.942  0.00  0.00    +0.000 A 
ATOM     18  F   UNL     1      -5.706  14.895  24.117  0.00  0.00    +0.000 F 
ATOM     19  C   UNL     1      -4.188  13.636  22.843  0.00  0.00    +0.000 A 
ATOM     20  C   UNL     1      -3.877  13.139  21.594  0.00  0.00    +0.000 A 
ATOM     21  C   UNL     1      -2.596  12.571  21.148  0.00  0.00    +0.000 C 
ATOM     22  N   UNL     1      -1.595  12.689  21.949  0.00  0.00    +0.000 NA
ATOM     23  H   UNL     1      -1.022  10.223  16.085  0.00  0.00    +0.000 HD
ATOM     24  H   UNL     1      -4.527  12.523  18.483  0.00  0.00    +0.000 HD
ENDROOT
BRANCH  22  25
ATOM     25  O   UNL     1      -0.361  12.555  21.329  0.00  0.00    +0.000 OA
ATOM     26  H   UNL     1      -0.171  11.606  21.458  0.00  0.00    +0.000 HD
ENDBRANCH  22  25
TORSDOF 1
ENDMDL
MODEL 9
REMARK VINA RESULT:      -6.5      2.546      3.698
REMARK  Name = 
REMARK  1 active torsions:
REMARK  status: ('A' for Active; 'I' for Inactive)
REMARK    1  A    between atoms: N_22  and  O_23
REMARK                            x       y       z     vdW  Elec       q    Type
REMARK                         _______ _______ _______ _____ _____    ______ ____
ROOT
ATOM      1  O   UNL     1       1.877  10.380  17.237  0.00  0.00    +0.000 OA
ATOM      2  C   UNL     1       2.112   9.353  17.860  0.00  0.00    +0.000 C 
ATOM      3  N   UNL     1       2.988   8.330  17.508  0.00  0.00    +0.000 N 
ATOM      4  C   UNL     1       2.935   7.282  18.427  0.00  0.00    +0.000 A 
ATOM      5  C   UNL     1       3.683   6.117  18.443  0.00  0.00    +0.000 A 
ATOM      6  C   UNL     1       3.436   5.211  19.484  0.00  0.00    +0.000 A 
ATOM      7  C   UNL     1       2.384   5.430  20.384  0.00  0.00    +0.000 A 
ATOM      8 CL   UNL     1       2.120   4.339  21.689  0.00  0.00    +0.000 Cl
ATOM      9  C   UNL     1       1.590   6.568  20.289  0.00  0.00    +0.000 A 
ATOM     10  C   UNL     1       1.971   7.550  19.396  0.00  0.00    +0.000 A 
ATOM     11  C   UNL     1       1.542   8.935  19.190  0.00  0.00    +0.000 C 
ATOM     12  C   UNL     1       0.924   9.798  20.007  0.00  0.00    +0.000 C 
ATOM     13  N   UNL     1       0.429  11.066  19.693  0.00  0.00    +0.000 N 
ATOM     14  C   UNL     1      -0.503  11.450  20.657  0.00  0.00    +0.000 A 
ATOM     15  C   UNL     1      -1.219  12.626  20.761  0.00  0.00    +0.000 A 
ATOM     16  C   UNL     1      -1.960  12.850  21.937  0.00  0.00    +0.000 A 
ATOM     17  C   UNL     1      -1.967  11.908  22.978  0.00  0.00    +0.000 A 
ATOM     18  F   UNL     1      -2.650  12.169  24.100  0.00  0.00    +0.000 F 
ATOM     19  C   UNL     1      -1.240  10.735  22.889  0.00  0.00    +0.000 A 
ATOM     20  C   UNL     1      -0.521  10.549  21.725  0.00  0.00    +0.000 A 
ATOM     21  C   UNL     1       0.514   9.537  21.463  0.00  0.00    +0.000 C 
ATOM     22  N   UNL     1       0.921   8.844  22.469  0.00  0.00    +0.000 NA
ATOM     23  H   UNL     1       3.558   8.350  16.672  0.00  0.00    +0.000 HD
ATOM     24  H   UNL     1       0.372  11.349  18.719  0.00  0.00    +0.000 HD
ENDROOT
BRANCH  22  25
ATOM     25  O   UNL     1       2.160   8.251  22.277  0.00  0.00    +0.000 OA
ATOM     26  H   UNL     1       2.060   7.409  22.762  0.00  0.00    +0.000 HD
ENDBRANCH  22  25
TORSDOF 1
ENDMDL
