MODEL 1
REMARK VINA RESULT:      -8.3      0.000      0.000
REMARK  Name = 
REMARK  6 active torsions:
REMARK  status: ('A' for Active; 'I' for Inactive)
REMARK    1  A    between atoms: C_2  and  C_12
REMARK    2  A    between atoms: N_3  and  C_4
REMARK    3  A    between atoms: C_4  and  C_5
REMARK    4  A    between atoms: N_17  and  C_18
REMARK    5  A    between atoms: C_18  and  C_19
REMARK    6  A    between atoms: C_19  and  C_20
REMARK                            x       y       z     vdW  Elec       q    Type
REMARK                         _______ _______ _______ _____ _____    ______ ____
ROOT
ATOM      1  C   UNL     1       5.835   4.823  18.534  0.00  0.00    +0.000 C 
ATOM      2  C   UNL     1       6.748   5.403  19.607  0.00  0.00    +0.000 C 
ATOM      3  C   UNL     1       7.902   6.011  18.829  0.00  0.00    +0.000 C 
ATOM      4  C   UNL     1       7.271   6.386  17.517  0.00  0.00    +0.000 C 
ATOM      5  O   UNL     1       7.760   7.174  16.721  0.00  0.00    +0.000 OA
ATOM      6  N   UNL     1       6.115   5.639  17.359  0.00  0.00    +0.000 N 
ENDROOT
BRANCH   1   8
ATOM      7  O   UNL     1       3.646   3.871  18.898  0.00  0.00    +0.000 OA
ATOM      8  C   UNL     1       4.371   4.865  18.989  0.00  0.00    +0.000 C 
ATOM      9  N   UNL     1       3.966   6.025  19.610  0.00  0.00    +0.000 N 
ATOM     10  H   UNL     1       4.650   6.744  19.809  0.00  0.00    +0.000 HD
BRANCH   9  11
ATOM     11  C   UNL     1       2.617   6.175  20.095  0.00  0.00    +0.000 C 
BRANCH  11  12
ATOM     12  C   UNL     1       2.024   7.490  19.655  0.00  0.00    +0.000 A 
ATOM     13  C   UNL     1       2.176   7.934  18.338  0.00  0.00    +0.000 A 
ATOM     14  C   UNL     1       1.647   9.165  17.946  0.00  0.00    +0.000 A 
ATOM     15  C   UNL     1       0.972   9.948  18.876  0.00  0.00    +0.000 A 
ATOM     16  F   UNL     1       0.471  11.134  18.498  0.00  0.00    +0.000 F 
ATOM     17  C   UNL     1       0.817   9.529  20.189  0.00  0.00    +0.000 A 
ATOM     18  C   UNL     1       1.345   8.299  20.583  0.00  0.00    +0.000 A 
ENDBRANCH  11  12
ENDBRANCH   9  11
ENDBRANCH   1   8
BRANCH   6  19
ATOM     19  C   UNL     1       5.277   5.563  16.156  0.00  0.00    +0.000 C 
BRANCH  19  20
ATOM     20  C   UNL     1       5.284   4.202  15.455  0.00  0.00    +0.000 C 
BRANCH  20  21
ATOM     21  C   UNL     1       6.029   4.218  14.143  0.00  0.00    +0.000 A 
ATOM     22  C   UNL     1       7.164   5.020  13.961  0.00  0.00    +0.000 A 
ATOM     23  C   UNL     1       7.817   5.050  12.725  0.00  0.00    +0.000 A 
ATOM     24  C   UNL     1       7.342   4.279  11.665  0.00  0.00    +0.000 A 
ATOM     25  C   UNL     1       6.223   3.469  11.843  0.00  0.00    +0.000 A 
ATOM     26  C   UNL     1       5.571   3.436  13.074  0.00  0.00    +0.000 A 
ENDBRANCH  20  21
ENDBRANCH  19  20
ENDBRANCH   6  19
TORSDOF 6
ENDMDL
MODEL 2
REMARK VINA RESULT:      -8.3      0.082      1.369
REMARK  Name = 
REMARK  6 active torsions:
REMARK  status: ('A' for Active; 'I' for Inactive)
REMARK    1  A    between atoms: C_2  and  C_12
REMARK    2  A    between atoms: N_3  and  C_4
REMARK    3  A    between atoms: C_4  and  C_5
REMARK    4  A    between atoms: N_17  and  C_18
REMARK    5  A    between atoms: C_18  and  C_19
REMARK    6  A    between atoms: C_19  and  C_20
REMARK                            x       y       z     vdW  Elec       q    Type
REMARK                         _______ _______ _______ _____ _____    ______ ____
ROOT
ATOM      1  C   UNL     1       5.820   4.851  18.496  0.00  0.00    +0.000 C 
ATOM      2  C   UNL     1       6.724   5.395  19.595  0.00  0.00    +0.000 C 
ATOM      3  C   UNL     1       7.890   6.017  18.846  0.00  0.00    +0.000 C 
ATOM      4  C   UNL     1       7.277   6.432  17.539  0.00  0.00    +0.000 C 
ATOM      5  O   UNL     1       7.779   7.238  16.769  0.00  0.00    +0.000 OA
ATOM      6  N   UNL     1       6.117   5.697  17.347  0.00  0.00    +0.000 N 
ENDROOT
BRANCH   1   8
ATOM      7  O   UNL     1       3.610   3.918  18.769  0.00  0.00    +0.000 OA
ATOM      8  C   UNL     1       4.351   4.889  18.936  0.00  0.00    +0.000 C 
ATOM      9  N   UNL     1       3.959   6.013  19.629  0.00  0.00    +0.000 N 
ATOM     10  H   UNL     1       4.653   6.703  19.885  0.00  0.00    +0.000 HD
BRANCH   9  11
ATOM     11  C   UNL     1       2.607   6.154  20.108  0.00  0.00    +0.000 C 
BRANCH  11  12
ATOM     12  C   UNL     1       2.027   7.489  19.711  0.00  0.00    +0.000 A 
ATOM     13  C   UNL     1       1.323   8.263  20.638  0.00  0.00    +0.000 A 
ATOM     14  C   UNL     1       0.766   9.485  20.255  0.00  0.00    +0.000 A 
ATOM     15  C   UNL     1       0.912   9.923  18.943  0.00  0.00    +0.000 A 
ATOM     16  F   UNL     1       0.369  11.094  18.577  0.00  0.00    +0.000 F 
ATOM     17  C   UNL     1       1.599   9.165  18.006  0.00  0.00    +0.000 A 
ATOM     18  C   UNL     1       2.156   7.945  18.387  0.00  0.00    +0.000 A 
ENDBRANCH  11  12
ENDBRANCH   9  11
ENDBRANCH   1   8
BRANCH   6  19
ATOM     19  C   UNL     1       5.293   5.659  16.133  0.00  0.00    +0.000 C 
BRANCH  19  20
ATOM     20  C   UNL     1       5.221   4.291  15.450  0.00  0.00    +0.000 C 
BRANCH  20  21
ATOM     21  C   UNL     1       5.946   4.253  14.127  0.00  0.00    +0.000 A 
ATOM     22  C   UNL     1       5.517   3.419  13.085  0.00  0.00    +0.000 A 
ATOM     23  C   UNL     1       6.225   3.371  11.881  0.00  0.00    +0.000 A 
ATOM     24  C   UNL     1       7.365   4.156  11.710  0.00  0.00    +0.000 A 
ATOM     25  C   UNL     1       7.789   4.998  12.735  0.00  0.00    +0.000 A 
ATOM     26  C   UNL     1       7.083   5.048  13.936  0.00  0.00    +0.000 A 
ENDBRANCH  20  21
ENDBRANCH  19  20
ENDBRANCH   6  19
TORSDOF 6
ENDMDL
MODEL 3
REMARK VINA RESULT:      -8.1      2.435      3.972
REMARK  Name = 
REMARK  6 active torsions:
REMARK  status: ('A' for Active; 'I' for Inactive)
REMARK    1  A    between atoms: C_2  and  C_12
REMARK    2  A    between atoms: N_3  and  C_4
REMARK    3  A    between atoms: C_4  and  C_5
REMARK    4  A    between atoms: N_17  and  C_18
REMARK    5  A    between atoms: C_18  and  C_19
REMARK    6  A    between atoms: C_19  and  C_20
REMARK                            x       y       z     vdW  Elec       q    Type
REMARK                         _______ _______ _______ _____ _____    ______ ____
ROOT
ATOM      1  C   UNL     1       1.615   3.367  19.165  0.00  0.00    +0.000 C 
ATOM      2  C   UNL     1       0.816   3.700  20.419  0.00  0.00    +0.000 C 
ATOM      3  C   UNL     1       1.384   2.775  21.482  0.00  0.00    +0.000 C 
ATOM      4  C   UNL     1       2.803   2.567  21.033  0.00  0.00    +0.000 C 
ATOM      5  O   UNL     1       3.696   2.145  21.752  0.00  0.00    +0.000 OA
ATOM      6  N   UNL     1       2.882   2.864  19.681  0.00  0.00    +0.000 N 
ENDROOT
BRANCH   1   8
ATOM      7  O   UNL     1       1.191   4.661  17.171  0.00  0.00    +0.000 OA
ATOM      8  C   UNL     1       1.753   4.603  18.267  0.00  0.00    +0.000 C 
ATOM      9  N   UNL     1       2.429   5.671  18.814  0.00  0.00    +0.000 N 
ATOM     10  H   UNL     1       2.722   5.629  19.781  0.00  0.00    +0.000 HD
BRANCH   9  11
ATOM     11  C   UNL     1       2.608   6.894  18.071  0.00  0.00    +0.000 C 
BRANCH  11  12
ATOM     12  C   UNL     1       1.919   8.050  18.753  0.00  0.00    +0.000 A 
ATOM     13  C   UNL     1       1.574   9.197  18.033  0.00  0.00    +0.000 A 
ATOM     14  C   UNL     1       0.962  10.274  18.677  0.00  0.00    +0.000 A 
ATOM     15  C   UNL     1       0.702  10.199  20.041  0.00  0.00    +0.000 A 
ATOM     16  F   UNL     1       0.120  11.237  20.659  0.00  0.00    +0.000 F 
ATOM     17  C   UNL     1       1.045   9.072  20.775  0.00  0.00    +0.000 A 
ATOM     18  C   UNL     1       1.657   7.996  20.132  0.00  0.00    +0.000 A 
ENDBRANCH  11  12
ENDBRANCH   9  11
ENDBRANCH   1   8
BRANCH   6  19
ATOM     19  C   UNL     1       4.035   2.642  18.800  0.00  0.00    +0.000 C 
BRANCH  19  20
ATOM     20  C   UNL     1       5.112   3.729  18.868  0.00  0.00    +0.000 C 
BRANCH  20  21
ATOM     21  C   UNL     1       5.644   4.117  17.510  0.00  0.00    +0.000 A 
ATOM     22  C   UNL     1       6.958   4.579  17.349  0.00  0.00    +0.000 A 
ATOM     23  C   UNL     1       7.420   4.969  16.089  0.00  0.00    +0.000 A 
ATOM     24  C   UNL     1       6.573   4.901  14.983  0.00  0.00    +0.000 A 
ATOM     25  C   UNL     1       5.272   4.429  15.133  0.00  0.00    +0.000 A 
ATOM     26  C   UNL     1       4.810   4.038  16.388  0.00  0.00    +0.000 A 
ENDBRANCH  20  21
ENDBRANCH  19  20
ENDBRANCH   6  19
TORSDOF 6
ENDMDL
MODEL 4
REMARK VINA RESULT:      -7.9      3.023      3.699
REMARK  Name = 
REMARK  6 active torsions:
REMARK  status: ('A' for Active; 'I' for Inactive)
REMARK    1  A    between atoms: C_2  and  C_12
REMARK    2  A    between atoms: N_3  and  C_4
REMARK    3  A    between atoms: C_4  and  C_5
REMARK    4  A    between atoms: N_17  and  C_18
REMARK    5  A    between atoms: C_18  and  C_19
REMARK    6  A    between atoms: C_19  and  C_20
REMARK                            x       y       z     vdW  Elec       q    Type
REMARK                         _______ _______ _______ _____ _____    ______ ____
ROOT
ATOM      1  C   UNL     1       6.253   4.685  17.523  0.00  0.00    +0.000 C 
ATOM      2  C   UNL     1       6.598   5.231  18.903  0.00  0.00    +0.000 C 
ATOM      3  C   UNL     1       7.702   6.241  18.640  0.00  0.00    +0.000 C 
ATOM      4  C   UNL     1       7.407   6.716  17.245  0.00  0.00    +0.000 C 
ATOM      5  O   UNL     1       7.859   7.743  16.760  0.00  0.00    +0.000 OA
ATOM      6  N   UNL     1       6.618   5.766  16.616  0.00  0.00    +0.000 N 
ENDROOT
BRANCH   1   8
ATOM      7  O   UNL     1       4.436   3.132  17.177  0.00  0.00    +0.000 OA
ATOM      8  C   UNL     1       4.772   4.286  17.454  0.00  0.00    +0.000 C 
ATOM      9  N   UNL     1       3.870   5.252  17.839  0.00  0.00    +0.000 N 
ATOM     10  H   UNL     1       4.212   6.125  18.218  0.00  0.00    +0.000 HD
BRANCH   9  11
ATOM     11  C   UNL     1       2.453   4.987  17.831  0.00  0.00    +0.000 C 
BRANCH  11  12
ATOM     12  C   UNL     1       2.036   4.225  19.064  0.00  0.00    +0.000 A 
ATOM     13  C   UNL     1       1.183   3.122  18.964  0.00  0.00    +0.000 A 
ATOM     14  C   UNL     1       0.780   2.437  20.113  0.00  0.00    +0.000 A 
ATOM     15  C   UNL     1       1.229   2.865  21.357  0.00  0.00    +0.000 A 
ATOM     16  F   UNL     1       0.835   2.210  22.460  0.00  0.00    +0.000 F 
ATOM     17  C   UNL     1       2.070   3.962  21.478  0.00  0.00    +0.000 A 
ATOM     18  C   UNL     1       2.473   4.646  20.332  0.00  0.00    +0.000 A 
ENDBRANCH  11  12
ENDBRANCH   9  11
ENDBRANCH   1   8
BRANCH   6  19
ATOM     19  C   UNL     1       6.233   5.743  15.200  0.00  0.00    +0.000 C 
BRANCH  19  20
ATOM     20  C   UNL     1       7.220   5.018  14.280  0.00  0.00    +0.000 C 
BRANCH  20  21
ATOM     21  C   UNL     1       6.539   4.130  13.268  0.00  0.00    +0.000 A 
ATOM     22  C   UNL     1       7.275   3.430  12.302  0.00  0.00    +0.000 A 
ATOM     23  C   UNL     1       6.622   2.643  11.350  0.00  0.00    +0.000 A 
ATOM     24  C   UNL     1       5.231   2.549  11.356  0.00  0.00    +0.000 A 
ATOM     25  C   UNL     1       4.493   3.230  12.321  0.00  0.00    +0.000 A 
ATOM     26  C   UNL     1       5.143   4.014  13.273  0.00  0.00    +0.000 A 
ENDBRANCH  20  21
ENDBRANCH  19  20
ENDBRANCH   6  19
TORSDOF 6
ENDMDL
MODEL 5
REMARK VINA RESULT:      -7.9      2.353      3.964
REMARK  Name = 
REMARK  6 active torsions:
REMARK  status: ('A' for Active; 'I' for Inactive)
REMARK    1  A    between atoms: C_2  and  C_12
REMARK    2  A    between atoms: N_3  and  C_4
REMARK    3  A    between atoms: C_4  and  C_5
REMARK    4  A    between atoms: N_17  and  C_18
REMARK    5  A    between atoms: C_18  and  C_19
REMARK    6  A    between atoms: C_19  and  C_20
REMARK                            x       y       z     vdW  Elec       q    Type
REMARK                         _______ _______ _______ _____ _____    ______ ____
ROOT
ATOM      1  C   UNL     1       1.746   3.646  19.293  0.00  0.00    +0.000 C 
ATOM      2  C   UNL     1       1.023   3.942  20.602  0.00  0.00    +0.000 C 
ATOM      3  C   UNL     1       1.554   2.896  21.568  0.00  0.00    +0.000 C 
ATOM      4  C   UNL     1       2.934   2.615  21.044  0.00  0.00    +0.000 C 
ATOM      5  O   UNL     1       3.816   2.069  21.691  0.00  0.00    +0.000 OA
ATOM      6  N   UNL     1       2.986   3.008  19.715  0.00  0.00    +0.000 N 
ENDROOT
BRANCH   1   8
ATOM      7  O   UNL     1       1.469   5.060  17.356  0.00  0.00    +0.000 OA
ATOM      8  C   UNL     1       1.950   4.934  18.485  0.00  0.00    +0.000 C 
ATOM      9  N   UNL     1       2.584   5.963  19.143  0.00  0.00    +0.000 N 
ATOM     10  H   UNL     1       2.806   5.861  20.124  0.00  0.00    +0.000 HD
BRANCH   9  11
ATOM     11  C   UNL     1       2.817   7.227  18.491  0.00  0.00    +0.000 C 
BRANCH  11  12
ATOM     12  C   UNL     1       1.849   8.277  18.977  0.00  0.00    +0.000 A 
ATOM     13  C   UNL     1       1.447   8.309  20.316  0.00  0.00    +0.000 A 
ATOM     14  C   UNL     1       0.529   9.267  20.752  0.00  0.00    +0.000 A 
ATOM     15  C   UNL     1       0.014  10.185  19.843  0.00  0.00    +0.000 A 
ATOM     16  F   UNL     1      -0.873  11.099  20.264  0.00  0.00    +0.000 F 
ATOM     17  C   UNL     1       0.393  10.164  18.509  0.00  0.00    +0.000 A 
ATOM     18  C   UNL     1       1.310   9.207  18.072  0.00  0.00    +0.000 A 
ENDBRANCH  11  12
ENDBRANCH   9  11
ENDBRANCH   1   8
BRANCH   6  19
ATOM     19  C   UNL     1       4.084   2.766  18.771  0.00  0.00    +0.000 C 
BRANCH  19  20
ATOM     20  C   UNL     1       5.188   3.828  18.787  0.00  0.00    +0.000 C 
BRANCH  20  21
ATOM     21  C   UNL     1       5.686   4.181  17.408  0.00  0.00    +0.000 A 
ATOM     22  C   UNL     1       7.005   4.606  17.197  0.00  0.00    +0.000 A 
ATOM     23  C   UNL     1       7.435   4.965  15.916  0.00  0.00    +0.000 A 
ATOM     24  C   UNL     1       6.552   4.903  14.840  0.00  0.00    +0.000 A 
ATOM     25  C   UNL     1       5.244   4.468  15.038  0.00  0.00    +0.000 A 
ATOM     26  C   UNL     1       4.813   4.108  16.314  0.00  0.00    +0.000 A 
ENDBRANCH  20  21
ENDBRANCH  19  20
ENDBRANCH   6  19
TORSDOF 6
ENDMDL
MODEL 6
REMARK VINA RESULT:      -7.9      2.645      4.321
REMARK  Name = 
REMARK  6 active torsions:
REMARK  status: ('A' for Active; 'I' for Inactive)
REMARK    1  A    between atoms: C_2  and  C_12
REMARK    2  A    between atoms: N_3  and  C_4
REMARK    3  A    between atoms: C_4  and  C_5
REMARK    4  A    between atoms: N_17  and  C_18
REMARK    5  A    between atoms: C_18  and  C_19
REMARK    6  A    between atoms: C_19  and  C_20
REMARK                            x       y       z     vdW  Elec       q    Type
REMARK                         _______ _______ _______ _____ _____    ______ ____
ROOT
ATOM      1  C   UNL     1       1.483   3.386  19.234  0.00  0.00    +0.000 C 
ATOM      2  C   UNL     1       0.740   3.804  20.497  0.00  0.00    +0.000 C 
ATOM      3  C   UNL     1       1.282   2.879  21.573  0.00  0.00    +0.000 C 
ATOM      4  C   UNL     1       2.673   2.572  21.094  0.00  0.00    +0.000 C 
ATOM      5  O   UNL     1       3.559   2.118  21.803  0.00  0.00    +0.000 OA
ATOM      6  N   UNL     1       2.732   2.823  19.732  0.00  0.00    +0.000 N 
ENDROOT
BRANCH   1   8
ATOM      7  O   UNL     1       1.240   4.561  17.139  0.00  0.00    +0.000 OA
ATOM      8  C   UNL     1       1.670   4.584  18.294  0.00  0.00    +0.000 C 
ATOM      9  N   UNL     1       2.227   5.710  18.858  0.00  0.00    +0.000 N 
ATOM     10  H   UNL     1       2.405   5.728  19.854  0.00  0.00    +0.000 HD
BRANCH   9  11
ATOM     11  C   UNL     1       2.436   6.904  18.078  0.00  0.00    +0.000 C 
BRANCH  11  12
ATOM     12  C   UNL     1       1.869   8.115  18.774  0.00  0.00    +0.000 A 
ATOM     13  C   UNL     1       1.665   9.308  18.074  0.00  0.00    +0.000 A 
ATOM     14  C   UNL     1       1.164  10.433  18.732  0.00  0.00    +0.000 A 
ATOM     15  C   UNL     1       0.874  10.360  20.090  0.00  0.00    +0.000 A 
ATOM     16  F   UNL     1       0.399  11.444  20.721  0.00  0.00    +0.000 F 
ATOM     17  C   UNL     1       1.077   9.187  20.804  0.00  0.00    +0.000 A 
ATOM     18  C   UNL     1       1.577   8.063  20.148  0.00  0.00    +0.000 A 
ENDBRANCH  11  12
ENDBRANCH   9  11
ENDBRANCH   1   8
BRANCH   6  19
ATOM     19  C   UNL     1       3.845   2.505  18.829  0.00  0.00    +0.000 C 
BRANCH  19  20
ATOM     20  C   UNL     1       5.080   3.394  18.998  0.00  0.00    +0.000 C 
BRANCH  20  21
ATOM     21  C   UNL     1       5.270   4.362  17.856  0.00  0.00    +0.000 A 
ATOM     22  C   UNL     1       4.941   4.009  16.540  0.00  0.00    +0.000 A 
ATOM     23  C   UNL     1       5.161   4.907  15.492  0.00  0.00    +0.000 A 
ATOM     24  C   UNL     1       5.710   6.162  15.751  0.00  0.00    +0.000 A 
ATOM     25  C   UNL     1       6.026   6.526  17.057  0.00  0.00    +0.000 A 
ATOM     26  C   UNL     1       5.806   5.632  18.105  0.00  0.00    +0.000 A 
ENDBRANCH  20  21
ENDBRANCH  19  20
ENDBRANCH   6  19
TORSDOF 6
ENDMDL
MODEL 7
REMARK VINA RESULT:      -7.9      3.181      7.106
REMARK  Name = 
REMARK  6 active torsions:
REMARK  status: ('A' for Active; 'I' for Inactive)
REMARK    1  A    between atoms: C_2  and  C_12
REMARK    2  A    between atoms: N_3  and  C_4
REMARK    3  A    between atoms: C_4  and  C_5
REMARK    4  A    between atoms: N_17  and  C_18
REMARK    5  A    between atoms: C_18  and  C_19
REMARK    6  A    between atoms: C_19  and  C_20
REMARK                            x       y       z     vdW  Elec       q    Type
REMARK                         _______ _______ _______ _____ _____    ______ ____
ROOT
ATOM      1  C   UNL     1       3.521   3.019  18.947  0.00  0.00    +0.000 C 
ATOM      2  C   UNL     1       2.533   1.986  18.417  0.00  0.00    +0.000 C 
ATOM      3  C   UNL     1       1.310   2.148  19.303  0.00  0.00    +0.000 C 
ATOM      4  C   UNL     1       1.369   3.594  19.708  0.00  0.00    +0.000 C 
ATOM      5  O   UNL     1       0.423   4.218  20.164  0.00  0.00    +0.000 OA
ATOM      6  N   UNL     1       2.670   4.042  19.542  0.00  0.00    +0.000 N 
ENDROOT
BRANCH   1   8
ATOM      7  O   UNL     1       3.952   3.843  16.719  0.00  0.00    +0.000 OA
ATOM      8  C   UNL     1       4.421   3.535  17.817  0.00  0.00    +0.000 C 
ATOM      9  N   UNL     1       5.741   3.747  18.148  0.00  0.00    +0.000 N 
ATOM     10  H   UNL     1       6.033   3.638  19.110  0.00  0.00    +0.000 HD
BRANCH   9  11
ATOM     11  C   UNL     1       6.678   4.246  17.173  0.00  0.00    +0.000 C 
BRANCH  11  12
ATOM     12  C   UNL     1       7.258   5.570  17.605  0.00  0.00    +0.000 A 
ATOM     13  C   UNL     1       7.919   5.691  18.832  0.00  0.00    +0.000 A 
ATOM     14  C   UNL     1       8.429   6.926  19.237  0.00  0.00    +0.000 A 
ATOM     15  C   UNL     1       8.271   8.036  18.414  0.00  0.00    +0.000 A 
ATOM     16  F   UNL     1       8.756   9.222  18.809  0.00  0.00    +0.000 F 
ATOM     17  C   UNL     1       7.611   7.938  17.197  0.00  0.00    +0.000 A 
ATOM     18  C   UNL     1       7.101   6.705  16.792  0.00  0.00    +0.000 A 
ENDBRANCH  11  12
ENDBRANCH   9  11
ENDBRANCH   1   8
BRANCH   6  19
ATOM     19  C   UNL     1       3.214   5.337  19.969  0.00  0.00    +0.000 C 
BRANCH  19  20
ATOM     20  C   UNL     1       3.208   6.422  18.888  0.00  0.00    +0.000 C 
BRANCH  20  21
ATOM     21  C   UNL     1       2.309   7.586  19.225  0.00  0.00    +0.000 A 
ATOM     22  C   UNL     1       1.713   7.702  20.488  0.00  0.00    +0.000 A 
ATOM     23  C   UNL     1       0.853   8.768  20.767  0.00  0.00    +0.000 A 
ATOM     24  C   UNL     1       0.583   9.723  19.788  0.00  0.00    +0.000 A 
ATOM     25  C   UNL     1       1.183   9.622  18.535  0.00  0.00    +0.000 A 
ATOM     26  C   UNL     1       2.043   8.561  18.255  0.00  0.00    +0.000 A 
ENDBRANCH  20  21
ENDBRANCH  19  20
ENDBRANCH   6  19
TORSDOF 6
ENDMDL
MODEL 8
REMARK VINA RESULT:      -7.8      3.082      4.376
REMARK  Name = 
REMARK  6 active torsions:
REMARK  status: ('A' for Active; 'I' for Inactive)
REMARK    1  A    between atoms: C_2  and  C_12
REMARK    2  A    between atoms: N_3  and  C_4
REMARK    3  A    between atoms: C_4  and  C_5
REMARK    4  A    between atoms: N_17  and  C_18
REMARK    5  A    between atoms: C_18  and  C_19
REMARK    6  A    between atoms: C_19  and  C_20
REMARK                            x       y       z     vdW  Elec       q    Type
REMARK                         _______ _______ _______ _____ _____    ______ ____
ROOT
ATOM      1  C   UNL     1       1.942   4.313  18.307  0.00  0.00    +0.000 C 
ATOM      2  C   UNL     1       1.010   3.561  19.251  0.00  0.00    +0.000 C 
ATOM      3  C   UNL     1       1.305   2.096  18.979  0.00  0.00    +0.000 C 
ATOM      4  C   UNL     1       2.741   2.112  18.537  0.00  0.00    +0.000 C 
ATOM      5  O   UNL     1       3.464   1.126  18.516  0.00  0.00    +0.000 OA
ATOM      6  N   UNL     1       3.052   3.391  18.104  0.00  0.00    +0.000 N 
ENDROOT
BRANCH   1   8
ATOM      7  O   UNL     1       2.766   5.738  20.073  0.00  0.00    +0.000 OA
ATOM      8  C   UNL     1       2.352   5.661  18.914  0.00  0.00    +0.000 C 
ATOM      9  N   UNL     1       2.347   6.735  18.053  0.00  0.00    +0.000 N 
ATOM     10  H   UNL     1       2.160   6.581  17.071  0.00  0.00    +0.000 HD
BRANCH   9  11
ATOM     11  C   UNL     1       2.729   8.050  18.505  0.00  0.00    +0.000 C 
BRANCH  11  12
ATOM     12  C   UNL     1       1.521   8.864  18.893  0.00  0.00    +0.000 A 
ATOM     13  C   UNL     1       0.796   9.567  17.926  0.00  0.00    +0.000 A 
ATOM     14  C   UNL     1      -0.306  10.341  18.296  0.00  0.00    +0.000 A 
ATOM     15  C   UNL     1      -0.674  10.411  19.636  0.00  0.00    +0.000 A 
ATOM     16  F   UNL     1      -1.728  11.161  19.990  0.00  0.00    +0.000 F 
ATOM     17  C   UNL     1       0.037   9.727  20.611  0.00  0.00    +0.000 A 
ATOM     18  C   UNL     1       1.138   8.954  20.243  0.00  0.00    +0.000 A 
ENDBRANCH  11  12
ENDBRANCH   9  11
ENDBRANCH   1   8
BRANCH   6  19
ATOM     19  C   UNL     1       4.289   3.816  17.438  0.00  0.00    +0.000 C 
BRANCH  19  20
ATOM     20  C   UNL     1       5.494   3.984  18.368  0.00  0.00    +0.000 C 
BRANCH  20  21
ATOM     21  C   UNL     1       6.250   5.267  18.128  0.00  0.00    +0.000 A 
ATOM     22  C   UNL     1       7.427   5.560  18.832  0.00  0.00    +0.000 A 
ATOM     23  C   UNL     1       8.092   6.772  18.622  0.00  0.00    +0.000 A 
ATOM     24  C   UNL     1       7.587   7.697  17.709  0.00  0.00    +0.000 A 
ATOM     25  C   UNL     1       6.427   7.406  16.995  0.00  0.00    +0.000 A 
ATOM     26  C   UNL     1       5.763   6.198  17.202  0.00  0.00    +0.000 A 
ENDBRANCH  20  21
ENDBRANCH  19  20
ENDBRANCH   6  19
TORSDOF 6
ENDMDL
MODEL 9
REMARK VINA RESULT:      -7.8      3.233      6.965
REMARK  Name = 
REMARK  6 active torsions:
REMARK  status: ('A' for Active; 'I' for Inactive)
REMARK    1  A    between atoms: C_2  and  C_12
REMARK    2  A    between atoms: N_3  and  C_4
REMARK    3  A    between atoms: C_4  and  C_5
REMARK    4  A    between atoms: N_17  and  C_18
REMARK    5  A    between atoms: C_18  and  C_19
REMARK    6  A    between atoms: C_19  and  C_20
REMARK                            x       y       z     vdW  Elec       q    Type
REMARK                         _______ _______ _______ _____ _____    ______ ____
ROOT
ATOM      1  C   UNL     1       2.715   6.617  18.383  0.00  0.00    +0.000 C 
ATOM      2  C   UNL     1       2.849   8.025  17.817  0.00  0.00    +0.000 C 
ATOM      3  C   UNL     1       1.806   8.832  18.570  0.00  0.00    +0.000 C 
ATOM      4  C   UNL     1       1.706   8.117  19.889  0.00  0.00    +0.000 C 
ATOM      5  O   UNL     1       1.217   8.604  20.898  0.00  0.00    +0.000 OA
ATOM      6  N   UNL     1       2.187   6.828  19.725  0.00  0.00    +0.000 N 
ENDROOT
BRANCH   1   8
ATOM      7  O   UNL     1       4.824   5.913  19.325  0.00  0.00    +0.000 OA
ATOM      8  C   UNL     1       4.067   5.891  18.352  0.00  0.00    +0.000 C 
ATOM      9  N   UNL     1       4.314   5.127  17.234  0.00  0.00    +0.000 N 
ATOM     10  H   UNL     1       3.585   5.011  16.543  0.00  0.00    +0.000 HD
BRANCH   9  11
ATOM     11  C   UNL     1       5.544   4.386  17.100  0.00  0.00    +0.000 C 
BRANCH  11  12
ATOM     12  C   UNL     1       6.018   4.375  15.668  0.00  0.00    +0.000 A 
ATOM     13  C   UNL     1       7.154   5.098  15.288  0.00  0.00    +0.000 A 
ATOM     14  C   UNL     1       7.570   5.104  13.955  0.00  0.00    +0.000 A 
ATOM     15  C   UNL     1       6.845   4.390  13.008  0.00  0.00    +0.000 A 
ATOM     16  F   UNL     1       7.243   4.404  11.727  0.00  0.00    +0.000 F 
ATOM     17  C   UNL     1       5.711   3.674  13.363  0.00  0.00    +0.000 A 
ATOM     18  C   UNL     1       5.293   3.667  14.694  0.00  0.00    +0.000 A 
ENDBRANCH  11  12
ENDBRANCH   9  11
ENDBRANCH   1   8
BRANCH   6  19
ATOM     19  C   UNL     1       2.124   5.737  20.705  0.00  0.00    +0.000 C 
BRANCH  19  20
ATOM     20  C   UNL     1       1.263   4.543  20.281  0.00  0.00    +0.000 C 
BRANCH  20  21
ATOM     21  C   UNL     1       2.057   3.457  19.598  0.00  0.00    +0.000 A 
ATOM     22  C   UNL     1       3.195   2.901  20.199  0.00  0.00    +0.000 A 
ATOM     23  C   UNL     1       3.939   1.922  19.532  0.00  0.00    +0.000 A 
ATOM     24  C   UNL     1       3.550   1.493  18.264  0.00  0.00    +0.000 A 
ATOM     25  C   UNL     1       2.412   2.030  17.667  0.00  0.00    +0.000 A 
ATOM     26  C   UNL     1       1.669   3.005  18.331  0.00  0.00    +0.000 A 
ENDBRANCH  20  21
ENDBRANCH  19  20
ENDBRANCH   6  19
TORSDOF 6
ENDMDL
