MODEL 1
REMARK VINA RESULT:      -8.2      0.000      0.000
REMARK  Name = 
REMARK  13 active torsions:
REMARK  status: ('A' for Active; 'I' for Inactive)
REMARK    1  A    between atoms: C_1  and  C_2
REMARK    2  A    between atoms: N_4  and  C_5
REMARK    3  A    between atoms: C_5  and  C_6
REMARK    4  A    between atoms: C_6  and  C_7
REMARK    5  A    between atoms: C_7  and  C_8
REMARK    6  A    between atoms: C_8  and  C_9
REMARK    7  A    between atoms: C_9  and  C_10
REMARK    8  A    between atoms: C_10  and  N_11
REMARK    9  A    between atoms: N_11  and  C_12
REMARK   10  A    between atoms: C_12  and  C_13
REMARK   11  A    between atoms: C_22  and  C_23
REMARK   12  A    between atoms: C_29  and  C_30
REMARK   13  A    between atoms: C_30  and  O_32
REMARK                            x       y       z     vdW  Elec       q    Type
REMARK                         _______ _______ _______ _____ _____    ______ ____
ROOT
ATOM      1  C   UNL     1       7.081   6.059  17.353  0.00  0.00    +0.000 A 
ATOM      2  N   UNL     1       7.525   5.978  16.077  0.00  0.00    +0.000 NA
ATOM      3  C   UNL     1       6.879   5.238  15.192  0.00  0.00    +0.000 A 
ATOM      4  C   UNL     1       7.472   5.160  13.942  0.00  0.00    +0.000 A 
ATOM      5  C   UNL     1       6.901   4.431  12.906  0.00  0.00    +0.000 A 
ATOM      6  C   UNL     1       5.684   3.819  13.120  0.00  0.00    +0.000 A 
ATOM      7 CL   UNL     1       4.951   2.906  11.861  0.00  0.00    +0.000 Cl
ATOM      8  C   UNL     1       5.060   3.922  14.364  0.00  0.00    +0.000 A 
ATOM      9  C   UNL     1       5.672   4.572  15.479  0.00  0.00    +0.000 A 
ATOM     10  C   UNL     1       5.185   4.613  16.850  0.00  0.00    +0.000 A 
ATOM     11  C   UNL     1       5.941   5.372  17.794  0.00  0.00    +0.000 A 
ENDROOT
BRANCH  10  12
ATOM     12  C   UNL     1       3.918   3.882  17.216  0.00  0.00    +0.000 A 
ATOM     13  C   UNL     1       2.677   4.552  17.286  0.00  0.00    +0.000 A 
ATOM     14  C   UNL     1       1.542   3.963  17.854  0.00  0.00    +0.000 A 
ATOM     15  C   UNL     1       1.577   2.633  18.246  0.00  0.00    +0.000 A 
ATOM     16  C   UNL     1       2.745   1.901  18.065  0.00  0.00    +0.000 A 
ATOM     17  C   UNL     1       3.907   2.524  17.585  0.00  0.00    +0.000 A 
ENDBRANCH  10  12
BRANCH  11  18
ATOM     18  C   UNL     1       5.626   5.332  19.245  0.00  0.00    +0.000 C 
ATOM     19  O   UNL     1       4.566   5.716  19.699  0.00  0.00    +0.000 OA
BRANCH  18  20
ATOM     20  O   UNL     1       6.607   4.842  20.038  0.00  0.00    +0.000 OA
ATOM     21  H   UNL     1       7.455   4.616  19.617  0.00  0.00    +0.000 HD
ENDBRANCH  18  20
ENDBRANCH  11  18
BRANCH   1  22
ATOM     22  C   UNL     1       7.942   6.977  18.187  0.00  0.00    +0.000 C 
BRANCH  22  23
ATOM     23  N   UNL     1       7.935   8.371  17.756  0.00  0.00    +0.000 NA
ATOM     24  H   UNL     1       8.271   8.458  16.798  0.00  0.00    +0.000 HD
BRANCH  23  25
ATOM     25  C   UNL     1       8.750   9.204  18.644  0.00  0.00    +0.000 C 
BRANCH  25  26
ATOM     26  C   UNL     1       8.747  10.666  18.198  0.00  0.00    +0.000 C 
BRANCH  26  27
ATOM     27  C   UNL     1      10.150  11.190  17.920  0.00  0.00    +0.000 C 
BRANCH  27  28
ATOM     28  C   UNL     1      10.757  11.719  19.219  0.00  0.00    +0.000 C 
BRANCH  28  29
ATOM     29  C   UNL     1       9.688  12.028  20.257  0.00  0.00    +0.000 C 
BRANCH  29  30
ATOM     30  C   UNL     1       9.468  13.534  20.363  0.00  0.00    +0.000 C 
BRANCH  30  34
ATOM     31  C   UNL     1       7.124  14.919  17.737  0.00  0.00    +0.000 C 
ATOM     32  C   UNL     1       8.443  14.535  18.358  0.00  0.00    +0.000 C 
ATOM     33  O   UNL     1       9.519  14.713  17.791  0.00  0.00    +0.000 OA
ATOM     34  N   UNL     1       8.316  13.958  19.595  0.00  0.00    +0.000 N 
ATOM     35  H   UNL     1       7.408  13.934  20.038  0.00  0.00    +0.000 HD
ENDBRANCH  30  34
ENDBRANCH  29  30
ENDBRANCH  28  29
ENDBRANCH  27  28
ENDBRANCH  26  27
ENDBRANCH  25  26
ENDBRANCH  23  25
ENDBRANCH  22  23
ENDBRANCH   1  22
TORSDOF 12
ENDMDL
MODEL 2
REMARK VINA RESULT:      -8.1      1.655      1.986
REMARK  Name = 
REMARK  13 active torsions:
REMARK  status: ('A' for Active; 'I' for Inactive)
REMARK    1  A    between atoms: C_1  and  C_2
REMARK    2  A    between atoms: N_4  and  C_5
REMARK    3  A    between atoms: C_5  and  C_6
REMARK    4  A    between atoms: C_6  and  C_7
REMARK    5  A    between atoms: C_7  and  C_8
REMARK    6  A    between atoms: C_8  and  C_9
REMARK    7  A    between atoms: C_9  and  C_10
REMARK    8  A    between atoms: C_10  and  N_11
REMARK    9  A    between atoms: N_11  and  C_12
REMARK   10  A    between atoms: C_12  and  C_13
REMARK   11  A    between atoms: C_22  and  C_23
REMARK   12  A    between atoms: C_29  and  C_30
REMARK   13  A    between atoms: C_30  and  O_32
REMARK                            x       y       z     vdW  Elec       q    Type
REMARK                         _______ _______ _______ _____ _____    ______ ____
ROOT
ATOM      1  C   UNL     1       7.090   6.153  17.192  0.00  0.00    +0.000 A 
ATOM      2  N   UNL     1       7.527   6.054  15.915  0.00  0.00    +0.000 NA
ATOM      3  C   UNL     1       6.924   5.241  15.066  0.00  0.00    +0.000 A 
ATOM      4  C   UNL     1       7.509   5.156  13.813  0.00  0.00    +0.000 A 
ATOM      5  C   UNL     1       6.979   4.351  12.810  0.00  0.00    +0.000 A 
ATOM      6  C   UNL     1       5.807   3.669  13.061  0.00  0.00    +0.000 A 
ATOM      7 CL   UNL     1       5.126   2.663  11.844  0.00  0.00    +0.000 Cl
ATOM      8  C   UNL     1       5.188   3.777  14.307  0.00  0.00    +0.000 A 
ATOM      9  C   UNL     1       5.766   4.508  15.390  0.00  0.00    +0.000 A 
ATOM     10  C   UNL     1       5.290   4.567  16.764  0.00  0.00    +0.000 A 
ATOM     11  C   UNL     1       6.001   5.410  17.671  0.00  0.00    +0.000 A 
ENDROOT
BRANCH  10  12
ATOM     12  C   UNL     1       4.077   3.769  17.171  0.00  0.00    +0.000 A 
ATOM     13  C   UNL     1       2.788   4.345  17.185  0.00  0.00    +0.000 A 
ATOM     14  C   UNL     1       1.694   3.711  17.785  0.00  0.00    +0.000 A 
ATOM     15  C   UNL     1       1.825   2.418  18.269  0.00  0.00    +0.000 A 
ATOM     16  C   UNL     1       3.047   1.767  18.148  0.00  0.00    +0.000 A 
ATOM     17  C   UNL     1       4.165   2.442  17.633  0.00  0.00    +0.000 A 
ENDBRANCH  10  12
BRANCH  11  18
ATOM     18  C   UNL     1       5.703   5.403  19.126  0.00  0.00    +0.000 C 
ATOM     19  O   UNL     1       4.667   5.843  19.587  0.00  0.00    +0.000 OA
BRANCH  18  20
ATOM     20  O   UNL     1       6.669   4.877  19.915  0.00  0.00    +0.000 OA
ATOM     21  H   UNL     1       6.389   4.456  20.747  0.00  0.00    +0.000 HD
ENDBRANCH  18  20
ENDBRANCH  11  18
BRANCH   1  22
ATOM     22  C   UNL     1       7.895   7.157  17.983  0.00  0.00    +0.000 C 
BRANCH  22  23
ATOM     23  N   UNL     1       7.393   8.525  17.914  0.00  0.00    +0.000 NA
ATOM     24  H   UNL     1       6.685   8.617  17.185  0.00  0.00    +0.000 HD
BRANCH  23  25
ATOM     25  C   UNL     1       8.480   9.477  17.672  0.00  0.00    +0.000 C 
BRANCH  25  26
ATOM     26  C   UNL     1       9.055  10.013  18.983  0.00  0.00    +0.000 C 
BRANCH  26  27
ATOM     27  C   UNL     1       9.972  11.210  18.767  0.00  0.00    +0.000 C 
BRANCH  27  28
ATOM     28  C   UNL     1      10.604  11.607  20.100  0.00  0.00    +0.000 C 
BRANCH  28  29
ATOM     29  C   UNL     1      10.775  13.115  20.217  0.00  0.00    +0.000 C 
BRANCH  29  30
ATOM     30  C   UNL     1      10.017  13.645  21.432  0.00  0.00    +0.000 C 
BRANCH  30  34
ATOM     31  C   UNL     1       7.591  11.663  23.551  0.00  0.00    +0.000 C 
ATOM     32  C   UNL     1       8.476  12.822  23.170  0.00  0.00    +0.000 C 
ATOM     33  O   UNL     1       8.596  13.823  23.872  0.00  0.00    +0.000 OA
ATOM     34  N   UNL     1       9.110  12.651  21.966  0.00  0.00    +0.000 N 
ATOM     35  H   UNL     1       9.039  11.761  21.492  0.00  0.00    +0.000 HD
ENDBRANCH  30  34
ENDBRANCH  29  30
ENDBRANCH  28  29
ENDBRANCH  27  28
ENDBRANCH  26  27
ENDBRANCH  25  26
ENDBRANCH  23  25
ENDBRANCH  22  23
ENDBRANCH   1  22
TORSDOF 12
ENDMDL
MODEL 3
REMARK VINA RESULT:      -8.1      1.450      1.964
REMARK  Name = 
REMARK  13 active torsions:
REMARK  status: ('A' for Active; 'I' for Inactive)
REMARK    1  A    between atoms: C_1  and  C_2
REMARK    2  A    between atoms: N_4  and  C_5
REMARK    3  A    between atoms: C_5  and  C_6
REMARK    4  A    between atoms: C_6  and  C_7
REMARK    5  A    between atoms: C_7  and  C_8
REMARK    6  A    between atoms: C_8  and  C_9
REMARK    7  A    between atoms: C_9  and  C_10
REMARK    8  A    between atoms: C_10  and  N_11
REMARK    9  A    between atoms: N_11  and  C_12
REMARK   10  A    between atoms: C_12  and  C_13
REMARK   11  A    between atoms: C_22  and  C_23
REMARK   12  A    between atoms: C_29  and  C_30
REMARK   13  A    between atoms: C_30  and  O_32
REMARK                            x       y       z     vdW  Elec       q    Type
REMARK                         _______ _______ _______ _____ _____    ______ ____
ROOT
ATOM      1  C   UNL     1       7.166   6.270  17.238  0.00  0.00    +0.000 A 
ATOM      2  N   UNL     1       7.568   6.149  15.952  0.00  0.00    +0.000 NA
ATOM      3  C   UNL     1       6.959   5.303  15.140  0.00  0.00    +0.000 A 
ATOM      4  C   UNL     1       7.509   5.199  13.873  0.00  0.00    +0.000 A 
ATOM      5  C   UNL     1       6.968   4.360  12.906  0.00  0.00    +0.000 A 
ATOM      6  C   UNL     1       5.819   3.660  13.207  0.00  0.00    +0.000 A 
ATOM      7 CL   UNL     1       5.125   2.610  12.035  0.00  0.00    +0.000 Cl
ATOM      8  C   UNL     1       5.234   3.785  14.468  0.00  0.00    +0.000 A 
ATOM      9  C   UNL     1       5.826   4.554  15.516  0.00  0.00    +0.000 A 
ATOM     10  C   UNL     1       5.389   4.637  16.901  0.00  0.00    +0.000 A 
ATOM     11  C   UNL     1       6.108   5.516  17.766  0.00  0.00    +0.000 A 
ENDROOT
BRANCH  10  12
ATOM     12  C   UNL     1       4.206   3.824  17.363  0.00  0.00    +0.000 A 
ATOM     13  C   UNL     1       4.358   2.491  17.803  0.00  0.00    +0.000 A 
ATOM     14  C   UNL     1       3.264   1.641  18.002  0.00  0.00    +0.000 A 
ATOM     15  C   UNL     1       1.974   2.140  17.898  0.00  0.00    +0.000 A 
ATOM     16  C   UNL     1       1.788   3.485  17.600  0.00  0.00    +0.000 A 
ATOM     17  C   UNL     1       2.886   4.308  17.308  0.00  0.00    +0.000 A 
ENDBRANCH  10  12
BRANCH  11  18
ATOM     18  C   UNL     1       5.852   5.539  19.229  0.00  0.00    +0.000 C 
ATOM     19  O   UNL     1       6.633   5.080  20.040  0.00  0.00    +0.000 OA
BRANCH  18  20
ATOM     20  O   UNL     1       4.681   6.103  19.606  0.00  0.00    +0.000 OA
ATOM     21  H   UNL     1       4.056   6.353  18.902  0.00  0.00    +0.000 HD
ENDBRANCH  18  20
ENDBRANCH  11  18
BRANCH   1  22
ATOM     22  C   UNL     1       7.972   7.309  17.981  0.00  0.00    +0.000 C 
BRANCH  22  23
ATOM     23  N   UNL     1       7.412   8.656  17.934  0.00  0.00    +0.000 NA
ATOM     24  H   UNL     1       6.717   8.737  17.192  0.00  0.00    +0.000 HD
BRANCH  23  25
ATOM     25  C   UNL     1       8.462   9.659  17.740  0.00  0.00    +0.000 C 
BRANCH  25  26
ATOM     26  C   UNL     1       9.298   9.845  19.006  0.00  0.00    +0.000 C 
BRANCH  26  27
ATOM     27  C   UNL     1       9.891  11.245  19.109  0.00  0.00    +0.000 C 
BRANCH  27  28
ATOM     28  C   UNL     1      10.559  11.609  17.783  0.00  0.00    +0.000 C 
BRANCH  28  29
ATOM     29  C   UNL     1      11.739  12.547  17.985  0.00  0.00    +0.000 C 
BRANCH  29  30
ATOM     30  C   UNL     1      12.033  13.317  16.700  0.00  0.00    +0.000 C 
BRANCH  30  34
ATOM     31  C   UNL     1      10.267  16.660  16.828  0.00  0.00    +0.000 C 
ATOM     32  C   UNL     1      11.344  15.646  17.119  0.00  0.00    +0.000 C 
ATOM     33  O   UNL     1      12.329  15.905  17.807  0.00  0.00    +0.000 OA
ATOM     34  N   UNL     1      11.122  14.429  16.528  0.00  0.00    +0.000 N 
ATOM     35  H   UNL     1      10.243  14.262  16.057  0.00  0.00    +0.000 HD
ENDBRANCH  30  34
ENDBRANCH  29  30
ENDBRANCH  28  29
ENDBRANCH  27  28
ENDBRANCH  26  27
ENDBRANCH  25  26
ENDBRANCH  23  25
ENDBRANCH  22  23
ENDBRANCH   1  22
TORSDOF 12
ENDMDL
MODEL 4
REMARK VINA RESULT:      -8.0      3.621      4.966
REMARK  Name = 
REMARK  13 active torsions:
REMARK  status: ('A' for Active; 'I' for Inactive)
REMARK    1  A    between atoms: C_1  and  C_2
REMARK    2  A    between atoms: N_4  and  C_5
REMARK    3  A    between atoms: C_5  and  C_6
REMARK    4  A    between atoms: C_6  and  C_7
REMARK    5  A    between atoms: C_7  and  C_8
REMARK    6  A    between atoms: C_8  and  C_9
REMARK    7  A    between atoms: C_9  and  C_10
REMARK    8  A    between atoms: C_10  and  N_11
REMARK    9  A    between atoms: N_11  and  C_12
REMARK   10  A    between atoms: C_12  and  C_13
REMARK   11  A    between atoms: C_22  and  C_23
REMARK   12  A    between atoms: C_29  and  C_30
REMARK   13  A    between atoms: C_30  and  O_32
REMARK                            x       y       z     vdW  Elec       q    Type
REMARK                         _______ _______ _______ _____ _____    ______ ____
ROOT
ATOM      1  C   UNL     1       4.246   6.618  17.150  0.00  0.00    +0.000 A 
ATOM      2  N   UNL     1       3.782   7.887  17.230  0.00  0.00    +0.000 NA
ATOM      3  C   UNL     1       2.811   8.189  18.074  0.00  0.00    +0.000 A 
ATOM      4  C   UNL     1       2.357   9.497  18.009  0.00  0.00    +0.000 A 
ATOM      5  C   UNL     1       1.349   9.964  18.844  0.00  0.00    +0.000 A 
ATOM      6  C   UNL     1       0.834   9.113  19.799  0.00  0.00    +0.000 A 
ATOM      7 CL   UNL     1      -0.416   9.658  20.846  0.00  0.00    +0.000 Cl
ATOM      8  C   UNL     1       1.309   7.804  19.898  0.00  0.00    +0.000 A 
ATOM      9  C   UNL     1       2.265   7.263  18.985  0.00  0.00    +0.000 A 
ATOM     10  C   UNL     1       2.720   5.883  18.902  0.00  0.00    +0.000 A 
ATOM     11  C   UNL     1       3.727   5.580  17.938  0.00  0.00    +0.000 A 
ENDROOT
BRANCH  10  12
ATOM     12  C   UNL     1       2.137   4.847  19.829  0.00  0.00    +0.000 A 
ATOM     13  C   UNL     1       2.677   4.623  21.114  0.00  0.00    +0.000 A 
ATOM     14  C   UNL     1       2.319   3.515  21.891  0.00  0.00    +0.000 A 
ATOM     15  C   UNL     1       1.306   2.670  21.464  0.00  0.00    +0.000 A 
ATOM     16  C   UNL     1       0.656   2.939  20.265  0.00  0.00    +0.000 A 
ATOM     17  C   UNL     1       1.084   3.995  19.445  0.00  0.00    +0.000 A 
ENDBRANCH  10  12
BRANCH  11  18
ATOM     18  C   UNL     1       4.129   4.178  17.656  0.00  0.00    +0.000 C 
ATOM     19  O   UNL     1       5.085   3.648  18.188  0.00  0.00    +0.000 OA
BRANCH  18  20
ATOM     20  O   UNL     1       3.358   3.522  16.758  0.00  0.00    +0.000 OA
ATOM     21  H   UNL     1       3.300   3.894  15.860  0.00  0.00    +0.000 HD
ENDBRANCH  18  20
ENDBRANCH  11  18
BRANCH   1  22
ATOM     22  C   UNL     1       5.372   6.496  16.151  0.00  0.00    +0.000 C 
BRANCH  22  23
ATOM     23  N   UNL     1       6.612   7.151  16.553  0.00  0.00    +0.000 NA
ATOM     24  H   UNL     1       7.304   7.112  15.806  0.00  0.00    +0.000 HD
BRANCH  23  25
ATOM     25  C   UNL     1       7.160   6.546  17.770  0.00  0.00    +0.000 C 
BRANCH  25  26
ATOM     26  C   UNL     1       8.198   7.454  18.427  0.00  0.00    +0.000 C 
BRANCH  26  27
ATOM     27  C   UNL     1       8.109   8.891  17.930  0.00  0.00    +0.000 C 
BRANCH  27  28
ATOM     28  C   UNL     1       8.911   9.798  18.862  0.00  0.00    +0.000 C 
BRANCH  28  29
ATOM     29  C   UNL     1       9.609  10.915  18.100  0.00  0.00    +0.000 C 
BRANCH  29  30
ATOM     30  C   UNL     1      10.714  11.533  18.954  0.00  0.00    +0.000 C 
BRANCH  30  34
ATOM     31  C   UNL     1      10.171  15.272  19.129  0.00  0.00    +0.000 C 
ATOM     32  C   UNL     1       9.955  13.820  19.470  0.00  0.00    +0.000 C 
ATOM     33  O   UNL     1       9.127  13.451  20.300  0.00  0.00    +0.000 OA
ATOM     34  N   UNL     1      10.779  12.969  18.780  0.00  0.00    +0.000 N 
ATOM     35  H   UNL     1      11.365  13.338  18.044  0.00  0.00    +0.000 HD
ENDBRANCH  30  34
ENDBRANCH  29  30
ENDBRANCH  28  29
ENDBRANCH  27  28
ENDBRANCH  26  27
ENDBRANCH  25  26
ENDBRANCH  23  25
ENDBRANCH  22  23
ENDBRANCH   1  22
TORSDOF 12
ENDMDL
MODEL 5
REMARK VINA RESULT:      -8.0      1.396      1.488
REMARK  Name = 
REMARK  13 active torsions:
REMARK  status: ('A' for Active; 'I' for Inactive)
REMARK    1  A    between atoms: C_1  and  C_2
REMARK    2  A    between atoms: N_4  and  C_5
REMARK    3  A    between atoms: C_5  and  C_6
REMARK    4  A    between atoms: C_6  and  C_7
REMARK    5  A    between atoms: C_7  and  C_8
REMARK    6  A    between atoms: C_8  and  C_9
REMARK    7  A    between atoms: C_9  and  C_10
REMARK    8  A    between atoms: C_10  and  N_11
REMARK    9  A    between atoms: N_11  and  C_12
REMARK   10  A    between atoms: C_12  and  C_13
REMARK   11  A    between atoms: C_22  and  C_23
REMARK   12  A    between atoms: C_29  and  C_30
REMARK   13  A    between atoms: C_30  and  O_32
REMARK                            x       y       z     vdW  Elec       q    Type
REMARK                         _______ _______ _______ _____ _____    ______ ____
ROOT
ATOM      1  C   UNL     1       7.042   6.039  17.301  0.00  0.00    +0.000 A 
ATOM      2  N   UNL     1       7.486   5.944  16.026  0.00  0.00    +0.000 NA
ATOM      3  C   UNL     1       6.855   5.176  15.156  0.00  0.00    +0.000 A 
ATOM      4  C   UNL     1       7.447   5.088  13.907  0.00  0.00    +0.000 A 
ATOM      5  C   UNL     1       6.891   4.327  12.885  0.00  0.00    +0.000 A 
ATOM      6  C   UNL     1       5.687   3.694  13.112  0.00  0.00    +0.000 A 
ATOM      7 CL   UNL     1       4.972   2.743  11.871  0.00  0.00    +0.000 Cl
ATOM      8  C   UNL     1       5.062   3.806  14.355  0.00  0.00    +0.000 A 
ATOM      9  C   UNL     1       5.662   4.490  15.457  0.00  0.00    +0.000 A 
ATOM     10  C   UNL     1       5.176   4.545  16.828  0.00  0.00    +0.000 A 
ATOM     11  C   UNL     1       5.917   5.337  17.756  0.00  0.00    +0.000 A 
ENDROOT
BRANCH  10  12
ATOM     12  C   UNL     1       3.926   3.794  17.209  0.00  0.00    +0.000 A 
ATOM     13  C   UNL     1       2.664   4.428  17.223  0.00  0.00    +0.000 A 
ATOM     14  C   UNL     1       1.536   3.833  17.801  0.00  0.00    +0.000 A 
ATOM     15  C   UNL     1       1.604   2.527  18.262  0.00  0.00    +0.000 A 
ATOM     16  C   UNL     1       2.797   1.824  18.139  0.00  0.00    +0.000 A 
ATOM     17  C   UNL     1       3.949   2.457  17.647  0.00  0.00    +0.000 A 
ENDBRANCH  10  12
BRANCH  11  18
ATOM     18  C   UNL     1       5.605   5.316  19.209  0.00  0.00    +0.000 C 
ATOM     19  O   UNL     1       4.552   5.722  19.661  0.00  0.00    +0.000 OA
BRANCH  18  20
ATOM     20  O   UNL     1       6.579   4.818  20.005  0.00  0.00    +0.000 OA
ATOM     21  H   UNL     1       6.304   4.356  20.817  0.00  0.00    +0.000 HD
ENDBRANCH  18  20
ENDBRANCH  11  18
BRANCH   1  22
ATOM     22  C   UNL     1       7.884   6.990  18.118  0.00  0.00    +0.000 C 
BRANCH  22  23
ATOM     23  N   UNL     1       7.825   8.381  17.679  0.00  0.00    +0.000 NA
ATOM     24  H   UNL     1       8.187   8.480  16.731  0.00  0.00    +0.000 HD
BRANCH  23  25
ATOM     25  C   UNL     1       8.570   9.255  18.588  0.00  0.00    +0.000 C 
BRANCH  25  26
ATOM     26  C   UNL     1       9.007  10.543  17.892  0.00  0.00    +0.000 C 
BRANCH  26  27
ATOM     27  C   UNL     1       9.538  11.581  18.872  0.00  0.00    +0.000 C 
BRANCH  27  28
ATOM     28  C   UNL     1      10.618  12.417  18.186  0.00  0.00    +0.000 C 
BRANCH  28  29
ATOM     29  C   UNL     1      10.136  13.830  17.891  0.00  0.00    +0.000 C 
BRANCH  29  30
ATOM     30  C   UNL     1      10.790  14.826  18.844  0.00  0.00    +0.000 C 
BRANCH  30  34
ATOM     31  C   UNL     1      10.235  18.328  17.527  0.00  0.00    +0.000 C 
ATOM     32  C   UNL     1      10.842  16.950  17.596  0.00  0.00    +0.000 C 
ATOM     33  O   UNL     1      11.705  16.566  16.809  0.00  0.00    +0.000 OA
ATOM     34  N   UNL     1      10.326  16.176  18.602  0.00  0.00    +0.000 N 
ATOM     35  H   UNL     1       9.690  16.592  19.270  0.00  0.00    +0.000 HD
ENDBRANCH  30  34
ENDBRANCH  29  30
ENDBRANCH  28  29
ENDBRANCH  27  28
ENDBRANCH  26  27
ENDBRANCH  25  26
ENDBRANCH  23  25
ENDBRANCH  22  23
ENDBRANCH   1  22
TORSDOF 12
ENDMDL
MODEL 6
REMARK VINA RESULT:      -8.0      3.540      4.913
REMARK  Name = 
REMARK  13 active torsions:
REMARK  status: ('A' for Active; 'I' for Inactive)
REMARK    1  A    between atoms: C_1  and  C_2
REMARK    2  A    between atoms: N_4  and  C_5
REMARK    3  A    between atoms: C_5  and  C_6
REMARK    4  A    between atoms: C_6  and  C_7
REMARK    5  A    between atoms: C_7  and  C_8
REMARK    6  A    between atoms: C_8  and  C_9
REMARK    7  A    between atoms: C_9  and  C_10
REMARK    8  A    between atoms: C_10  and  N_11
REMARK    9  A    between atoms: N_11  and  C_12
REMARK   10  A    between atoms: C_12  and  C_13
REMARK   11  A    between atoms: C_22  and  C_23
REMARK   12  A    between atoms: C_29  and  C_30
REMARK   13  A    between atoms: C_30  and  O_32
REMARK                            x       y       z     vdW  Elec       q    Type
REMARK                         _______ _______ _______ _____ _____    ______ ____
ROOT
ATOM      1  C   UNL     1       4.404   6.565  17.156  0.00  0.00    +0.000 A 
ATOM      2  N   UNL     1       3.885   7.807  17.301  0.00  0.00    +0.000 NA
ATOM      3  C   UNL     1       2.905   8.023  18.160  0.00  0.00    +0.000 A 
ATOM      4  C   UNL     1       2.394   9.312  18.161  0.00  0.00    +0.000 A 
ATOM      5  C   UNL     1       1.370   9.692  19.020  0.00  0.00    +0.000 A 
ATOM      6  C   UNL     1       0.895   8.772  19.931  0.00  0.00    +0.000 A 
ATOM      7 CL   UNL     1      -0.374   9.208  21.007  0.00  0.00    +0.000 Cl
ATOM      8  C   UNL     1       1.428   7.482  19.964  0.00  0.00    +0.000 A 
ATOM      9  C   UNL     1       2.403   7.030  19.024  0.00  0.00    +0.000 A 
ATOM     10  C   UNL     1       2.917   5.677  18.871  0.00  0.00    +0.000 A 
ATOM     11  C   UNL     1       3.934   5.467  17.891  0.00  0.00    +0.000 A 
ENDROOT
BRANCH  10  12
ATOM     12  C   UNL     1       2.383   4.571  19.744  0.00  0.00    +0.000 A 
ATOM     13  C   UNL     1       1.282   3.784  19.342  0.00  0.00    +0.000 A 
ATOM     14  C   UNL     1       0.618   2.924  20.225  0.00  0.00    +0.000 A 
ATOM     15  C   UNL     1       1.120   2.721  21.501  0.00  0.00    +0.000 A 
ATOM     16  C   UNL     1       2.284   3.377  21.886  0.00  0.00    +0.000 A 
ATOM     17  C   UNL     1       2.891   4.310  21.031  0.00  0.00    +0.000 A 
ENDBRANCH  10  12
BRANCH  11  18
ATOM     18  C   UNL     1       4.395   4.100  17.538  0.00  0.00    +0.000 C 
ATOM     19  O   UNL     1       3.836   3.411  16.707  0.00  0.00    +0.000 OA
BRANCH  18  20
ATOM     20  O   UNL     1       5.484   3.662  18.212  0.00  0.00    +0.000 OA
ATOM     21  H   UNL     1       6.312   3.562  17.710  0.00  0.00    +0.000 HD
ENDBRANCH  18  20
ENDBRANCH  11  18
BRANCH   1  22
ATOM     22  C   UNL     1       5.530   6.543  16.150  0.00  0.00    +0.000 C 
BRANCH  22  23
ATOM     23  N   UNL     1       6.734   7.250  16.575  0.00  0.00    +0.000 NA
ATOM     24  H   UNL     1       7.417   7.293  15.819  0.00  0.00    +0.000 HD
BRANCH  23  25
ATOM     25  C   UNL     1       7.335   6.614  17.750  0.00  0.00    +0.000 C 
BRANCH  25  26
ATOM     26  C   UNL     1       8.327   7.547  18.444  0.00  0.00    +0.000 C 
BRANCH  26  27
ATOM     27  C   UNL     1       8.225   8.981  17.939  0.00  0.00    +0.000 C 
BRANCH  27  28
ATOM     28  C   UNL     1       8.916   9.915  18.931  0.00  0.00    +0.000 C 
BRANCH  28  29
ATOM     29  C   UNL     1       9.829  10.909  18.229  0.00  0.00    +0.000 C 
BRANCH  29  30
ATOM     30  C   UNL     1      10.841  11.491  19.213  0.00  0.00    +0.000 C 
BRANCH  30  34
ATOM     31  C   UNL     1       9.198  12.957  22.289  0.00  0.00    +0.000 C 
ATOM     32  C   UNL     1       9.753  12.935  20.888  0.00  0.00    +0.000 C 
ATOM     33  O   UNL     1       9.742  13.922  20.156  0.00  0.00    +0.000 OA
ATOM     34  N   UNL     1      10.248  11.712  20.515  0.00  0.00    +0.000 N 
ATOM     35  H   UNL     1      10.312  10.974  21.204  0.00  0.00    +0.000 HD
ENDBRANCH  30  34
ENDBRANCH  29  30
ENDBRANCH  28  29
ENDBRANCH  27  28
ENDBRANCH  26  27
ENDBRANCH  25  26
ENDBRANCH  23  25
ENDBRANCH  22  23
ENDBRANCH   1  22
TORSDOF 12
ENDMDL
MODEL 7
REMARK VINA RESULT:      -8.0      1.040      1.357
REMARK  Name = 
REMARK  13 active torsions:
REMARK  status: ('A' for Active; 'I' for Inactive)
REMARK    1  A    between atoms: C_1  and  C_2
REMARK    2  A    between atoms: N_4  and  C_5
REMARK    3  A    between atoms: C_5  and  C_6
REMARK    4  A    between atoms: C_6  and  C_7
REMARK    5  A    between atoms: C_7  and  C_8
REMARK    6  A    between atoms: C_8  and  C_9
REMARK    7  A    between atoms: C_9  and  C_10
REMARK    8  A    between atoms: C_10  and  N_11
REMARK    9  A    between atoms: N_11  and  C_12
REMARK   10  A    between atoms: C_12  and  C_13
REMARK   11  A    between atoms: C_22  and  C_23
REMARK   12  A    between atoms: C_29  and  C_30
REMARK   13  A    between atoms: C_30  and  O_32
REMARK                            x       y       z     vdW  Elec       q    Type
REMARK                         _______ _______ _______ _____ _____    ______ ____
ROOT
ATOM      1  C   UNL     1       7.022   6.144  17.228  0.00  0.00    +0.000 A 
ATOM      2  N   UNL     1       7.465   6.047  15.953  0.00  0.00    +0.000 NA
ATOM      3  C   UNL     1       6.874   5.227  15.102  0.00  0.00    +0.000 A 
ATOM      4  C   UNL     1       7.465   5.146  13.852  0.00  0.00    +0.000 A 
ATOM      5  C   UNL     1       6.948   4.335  12.849  0.00  0.00    +0.000 A 
ATOM      6  C   UNL     1       5.782   3.641  13.095  0.00  0.00    +0.000 A 
ATOM      7 CL   UNL     1       5.116   2.626  11.878  0.00  0.00    +0.000 Cl
ATOM      8  C   UNL     1       5.157   3.744  14.339  0.00  0.00    +0.000 A 
ATOM      9  C   UNL     1       5.722   4.482  15.423  0.00  0.00    +0.000 A 
ATOM     10  C   UNL     1       5.240   4.539  16.795  0.00  0.00    +0.000 A 
ATOM     11  C   UNL     1       5.939   5.390  17.703  0.00  0.00    +0.000 A 
ENDROOT
BRANCH  10  12
ATOM     12  C   UNL     1       4.034   3.729  17.199  0.00  0.00    +0.000 A 
ATOM     13  C   UNL     1       2.740   4.293  17.209  0.00  0.00    +0.000 A 
ATOM     14  C   UNL     1       1.650   3.648  17.805  0.00  0.00    +0.000 A 
ATOM     15  C   UNL     1       1.792   2.356  18.289  0.00  0.00    +0.000 A 
ATOM     16  C   UNL     1       3.020   1.717  18.171  0.00  0.00    +0.000 A 
ATOM     17  C   UNL     1       4.133   2.403  17.660  0.00  0.00    +0.000 A 
ENDBRANCH  10  12
BRANCH  11  18
ATOM     18  C   UNL     1       5.635   5.383  19.158  0.00  0.00    +0.000 C 
ATOM     19  O   UNL     1       4.595   5.816  19.614  0.00  0.00    +0.000 OA
BRANCH  18  20
ATOM     20  O   UNL     1       6.601   4.862  19.950  0.00  0.00    +0.000 OA
ATOM     21  H   UNL     1       7.485   5.267  19.905  0.00  0.00    +0.000 HD
ENDBRANCH  18  20
ENDBRANCH  11  18
BRANCH   1  22
ATOM     22  C   UNL     1       7.814   7.157  18.021  0.00  0.00    +0.000 C 
BRANCH  22  23
ATOM     23  N   UNL     1       8.184   8.354  17.273  0.00  0.00    +0.000 NA
ATOM     24  H   UNL     1       9.171   8.334  17.019  0.00  0.00    +0.000 HD
BRANCH  23  25
ATOM     25  C   UNL     1       7.895   9.568  18.041  0.00  0.00    +0.000 C 
BRANCH  25  26
ATOM     26  C   UNL     1       9.084   9.975  18.911  0.00  0.00    +0.000 C 
BRANCH  26  27
ATOM     27  C   UNL     1       9.726  11.274  18.443  0.00  0.00    +0.000 C 
BRANCH  27  28
ATOM     28  C   UNL     1       8.678  12.129  17.732  0.00  0.00    +0.000 C 
BRANCH  28  29
ATOM     29  C   UNL     1       8.612  13.537  18.307  0.00  0.00    +0.000 C 
BRANCH  29  30
ATOM     30  C   UNL     1       7.424  14.296  17.722  0.00  0.00    +0.000 C 
BRANCH  30  34
ATOM     31  C   UNL     1       6.273  17.082  20.008  0.00  0.00    +0.000 C 
ATOM     32  C   UNL     1       7.058  16.431  18.897  0.00  0.00    +0.000 C 
ATOM     33  O   UNL     1       7.868  17.048  18.209  0.00  0.00    +0.000 OA
ATOM     34  N   UNL     1       6.764  15.103  18.726  0.00  0.00    +0.000 N 
ATOM     35  H   UNL     1       6.160  14.641  19.393  0.00  0.00    +0.000 HD
ENDBRANCH  30  34
ENDBRANCH  29  30
ENDBRANCH  28  29
ENDBRANCH  27  28
ENDBRANCH  26  27
ENDBRANCH  25  26
ENDBRANCH  23  25
ENDBRANCH  22  23
ENDBRANCH   1  22
TORSDOF 12
ENDMDL
MODEL 8
REMARK VINA RESULT:      -8.0      1.277      1.726
REMARK  Name = 
REMARK  13 active torsions:
REMARK  status: ('A' for Active; 'I' for Inactive)
REMARK    1  A    between atoms: C_1  and  C_2
REMARK    2  A    between atoms: N_4  and  C_5
REMARK    3  A    between atoms: C_5  and  C_6
REMARK    4  A    between atoms: C_6  and  C_7
REMARK    5  A    between atoms: C_7  and  C_8
REMARK    6  A    between atoms: C_8  and  C_9
REMARK    7  A    between atoms: C_9  and  C_10
REMARK    8  A    between atoms: C_10  and  N_11
REMARK    9  A    between atoms: N_11  and  C_12
REMARK   10  A    between atoms: C_12  and  C_13
REMARK   11  A    between atoms: C_22  and  C_23
REMARK   12  A    between atoms: C_29  and  C_30
REMARK   13  A    between atoms: C_30  and  O_32
REMARK                            x       y       z     vdW  Elec       q    Type
REMARK                         _______ _______ _______ _____ _____    ______ ____
ROOT
ATOM      1  C   UNL     1       7.059   6.117  17.273  0.00  0.00    +0.000 A 
ATOM      2  N   UNL     1       7.490   6.036  15.993  0.00  0.00    +0.000 NA
ATOM      3  C   UNL     1       6.878   5.242  15.132  0.00  0.00    +0.000 A 
ATOM      4  C   UNL     1       7.458   5.174  13.875  0.00  0.00    +0.000 A 
ATOM      5  C   UNL     1       6.918   4.390  12.861  0.00  0.00    +0.000 A 
ATOM      6  C   UNL     1       5.742   3.713  13.105  0.00  0.00    +0.000 A 
ATOM      7 CL   UNL     1       5.048   2.733  11.874  0.00  0.00    +0.000 Cl
ATOM      8  C   UNL     1       5.129   3.804  14.356  0.00  0.00    +0.000 A 
ATOM      9  C   UNL     1       5.715   4.512  15.448  0.00  0.00    +0.000 A 
ATOM     10  C   UNL     1       5.245   4.552  16.825  0.00  0.00    +0.000 A 
ATOM     11  C   UNL     1       5.967   5.374  17.743  0.00  0.00    +0.000 A 
ENDROOT
BRANCH  10  12
ATOM     12  C   UNL     1       4.028   3.756  17.223  0.00  0.00    +0.000 A 
ATOM     13  C   UNL     1       2.742   4.337  17.236  0.00  0.00    +0.000 A 
ATOM     14  C   UNL     1       1.642   3.704  17.828  0.00  0.00    +0.000 A 
ATOM     15  C   UNL     1       1.767   2.408  18.305  0.00  0.00    +0.000 A 
ATOM     16  C   UNL     1       2.987   1.753  18.185  0.00  0.00    +0.000 A 
ATOM     17  C   UNL     1       4.109   2.426  17.678  0.00  0.00    +0.000 A 
ENDBRANCH  10  12
BRANCH  11  18
ATOM     18  C   UNL     1       5.674   5.344  19.199  0.00  0.00    +0.000 C 
ATOM     19  O   UNL     1       6.390   4.779  20.002  0.00  0.00    +0.000 OA
BRANCH  18  20
ATOM     20  O   UNL     1       4.546   5.989  19.578  0.00  0.00    +0.000 OA
ATOM     21  H   UNL     1       3.797   5.445  19.878  0.00  0.00    +0.000 HD
ENDBRANCH  18  20
ENDBRANCH  11  18
BRANCH   1  22
ATOM     22  C   UNL     1       7.875   7.101  18.077  0.00  0.00    +0.000 C 
BRANCH  22  23
ATOM     23  N   UNL     1       8.114   8.376  17.411  0.00  0.00    +0.000 NA
ATOM     24  H   UNL     1       8.906   8.311  16.772  0.00  0.00    +0.000 HD
BRANCH  23  25
ATOM     25  C   UNL     1       8.347   9.447  18.383  0.00  0.00    +0.000 C 
BRANCH  25  26
ATOM     26  C   UNL     1       9.327  10.488  17.844  0.00  0.00    +0.000 C 
BRANCH  26  27
ATOM     27  C   UNL     1       9.274  11.794  18.627  0.00  0.00    +0.000 C 
BRANCH  27  28
ATOM     28  C   UNL     1       8.668  12.886  17.746  0.00  0.00    +0.000 C 
BRANCH  28  29
ATOM     29  C   UNL     1       8.554  14.210  18.487  0.00  0.00    +0.000 C 
BRANCH  29  30
ATOM     30  C   UNL     1       7.562  15.132  17.781  0.00  0.00    +0.000 C 
BRANCH  30  34
ATOM     31  C   UNL     1       3.886  14.354  18.215  0.00  0.00    +0.000 C 
ATOM     32  C   UNL     1       5.170  15.129  18.372  0.00  0.00    +0.000 C 
ATOM     33  O   UNL     1       5.234  16.184  18.999  0.00  0.00    +0.000 OA
ATOM     34  N   UNL     1       6.237  14.550  17.735  0.00  0.00    +0.000 N 
ATOM     35  H   UNL     1       6.129  13.633  17.323  0.00  0.00    +0.000 HD
ENDBRANCH  30  34
ENDBRANCH  29  30
ENDBRANCH  28  29
ENDBRANCH  27  28
ENDBRANCH  26  27
ENDBRANCH  25  26
ENDBRANCH  23  25
ENDBRANCH  22  23
ENDBRANCH   1  22
TORSDOF 12
ENDMDL
MODEL 9
REMARK VINA RESULT:      -8.0      1.406      1.575
REMARK  Name = 
REMARK  13 active torsions:
REMARK  status: ('A' for Active; 'I' for Inactive)
REMARK    1  A    between atoms: C_1  and  C_2
REMARK    2  A    between atoms: N_4  and  C_5
REMARK    3  A    between atoms: C_5  and  C_6
REMARK    4  A    between atoms: C_6  and  C_7
REMARK    5  A    between atoms: C_7  and  C_8
REMARK    6  A    between atoms: C_8  and  C_9
REMARK    7  A    between atoms: C_9  and  C_10
REMARK    8  A    between atoms: C_10  and  N_11
REMARK    9  A    between atoms: N_11  and  C_12
REMARK   10  A    between atoms: C_12  and  C_13
REMARK   11  A    between atoms: C_22  and  C_23
REMARK   12  A    between atoms: C_29  and  C_30
REMARK   13  A    between atoms: C_30  and  O_32
REMARK                            x       y       z     vdW  Elec       q    Type
REMARK                         _______ _______ _______ _____ _____    ______ ____
ROOT
ATOM      1  C   UNL     1       6.984   6.153  17.241  0.00  0.00    +0.000 A 
ATOM      2  N   UNL     1       7.429   6.058  15.966  0.00  0.00    +0.000 NA
ATOM      3  C   UNL     1       6.844   5.234  15.115  0.00  0.00    +0.000 A 
ATOM      4  C   UNL     1       7.437   5.156  13.865  0.00  0.00    +0.000 A 
ATOM      5  C   UNL     1       6.925   4.341  12.862  0.00  0.00    +0.000 A 
ATOM      6  C   UNL     1       5.763   3.640  13.108  0.00  0.00    +0.000 A 
ATOM      7 CL   UNL     1       5.105   2.621  11.890  0.00  0.00    +0.000 Cl
ATOM      8  C   UNL     1       5.137   3.740  14.351  0.00  0.00    +0.000 A 
ATOM      9  C   UNL     1       5.697   4.482  15.436  0.00  0.00    +0.000 A 
ATOM     10  C   UNL     1       5.213   4.536  16.807  0.00  0.00    +0.000 A 
ATOM     11  C   UNL     1       5.906   5.392  17.716  0.00  0.00    +0.000 A 
ENDROOT
BRANCH  10  12
ATOM     12  C   UNL     1       4.012   3.719  17.210  0.00  0.00    +0.000 A 
ATOM     13  C   UNL     1       2.713   4.273  17.214  0.00  0.00    +0.000 A 
ATOM     14  C   UNL     1       1.626   3.622  17.809  0.00  0.00    +0.000 A 
ATOM     15  C   UNL     1       1.776   2.334  18.299  0.00  0.00    +0.000 A 
ATOM     16  C   UNL     1       3.010   1.703  18.187  0.00  0.00    +0.000 A 
ATOM     17  C   UNL     1       4.119   2.395  17.677  0.00  0.00    +0.000 A 
ENDBRANCH  10  12
BRANCH  11  18
ATOM     18  C   UNL     1       5.601   5.383  19.170  0.00  0.00    +0.000 C 
ATOM     19  O   UNL     1       6.316   4.837  19.988  0.00  0.00    +0.000 OA
BRANCH  18  20
ATOM     20  O   UNL     1       4.464   6.022  19.528  0.00  0.00    +0.000 OA
ATOM     21  H   UNL     1       4.501   6.992  19.613  0.00  0.00    +0.000 HD
ENDBRANCH  18  20
ENDBRANCH  11  18
BRANCH   1  22
ATOM     22  C   UNL     1       7.769   7.170  18.034  0.00  0.00    +0.000 C 
BRANCH  22  23
ATOM     23  N   UNL     1       8.190   8.340  17.269  0.00  0.00    +0.000 NA
ATOM     24  H   UNL     1       9.172   8.269  17.006  0.00  0.00    +0.000 HD
BRANCH  23  25
ATOM     25  C   UNL     1       7.966   9.575  18.024  0.00  0.00    +0.000 C 
BRANCH  25  26
ATOM     26  C   UNL     1       9.181   9.935  18.878  0.00  0.00    +0.000 C 
BRANCH  26  27
ATOM     27  C   UNL     1       9.850  11.225  18.422  0.00  0.00    +0.000 C 
BRANCH  27  28
ATOM     28  C   UNL     1       9.785  12.253  19.550  0.00  0.00    +0.000 C 
BRANCH  28  29
ATOM     29  C   UNL     1       9.833  11.592  20.920  0.00  0.00    +0.000 C 
BRANCH  29  30
ATOM     30  C   UNL     1       9.242  12.519  21.980  0.00  0.00    +0.000 C 
BRANCH  30  34
ATOM     31  C   UNL     1       6.891  15.311  20.987  0.00  0.00    +0.000 C 
ATOM     32  C   UNL     1       7.362  14.095  21.743  0.00  0.00    +0.000 C 
ATOM     33  O   UNL     1       6.683  13.550  22.610  0.00  0.00    +0.000 OA
ATOM     34  N   UNL     1       8.618  13.680  21.381  0.00  0.00    +0.000 N 
ATOM     35  H   UNL     1       9.075  14.118  20.593  0.00  0.00    +0.000 HD
ENDBRANCH  30  34
ENDBRANCH  29  30
ENDBRANCH  28  29
ENDBRANCH  27  28
ENDBRANCH  26  27
ENDBRANCH  25  26
ENDBRANCH  23  25
ENDBRANCH  22  23
ENDBRANCH   1  22
TORSDOF 12
ENDMDL
