MODEL 1
REMARK VINA RESULT:      -8.0      0.000      0.000
REMARK  Name = 
REMARK  9 active torsions:
REMARK  status: ('A' for Active; 'I' for Inactive)
REMARK    1  A    between atoms: C_1  and  C_2
REMARK    2  A    between atoms: C_2  and  C_3
REMARK    3  A    between atoms: C_3  and  C_4
REMARK    4  A    between atoms: C_3  and  C_5
REMARK    5  A    between atoms: C_5  and  C_6
REMARK    6  A    between atoms: C_5  and  N_12
REMARK    7  A    between atoms: C_6  and  N_7
REMARK    8  A    between atoms: C_13  and  C_15
REMARK    9  A    between atoms: C_18  and  C_19
REMARK                            x       y       z     vdW  Elec       q    Type
REMARK                         _______ _______ _______ _____ _____    ______ ____
ROOT
ATOM      1  N   UNL     1       4.317   6.062  18.962  0.00  0.00    +0.000 N 
ATOM      2  C   UNL     1       3.026   6.226  18.511  0.00  0.00    +0.000 C 
ATOM      3  O   UNL     1       2.540   5.571  17.600  0.00  0.00    +0.000 OA
ATOM      4  H   UNL     1       4.612   6.582  19.782  0.00  0.00    +0.000 HD
ENDROOT
BRANCH   2   5
ATOM      5  C   UNL     1       2.239   7.286  19.190  0.00  0.00    +0.000 A 
ATOM      6  C   UNL     1       1.818   7.099  20.507  0.00  0.00    +0.000 A 
ATOM      7  C   UNL     1       1.066   8.096  21.149  0.00  0.00    +0.000 A 
ATOM      8  C   UNL     1       0.723   9.300  20.501  0.00  0.00    +0.000 A 
ATOM      9  C   UNL     1       1.166   9.463  19.179  0.00  0.00    +0.000 A 
ATOM     10  C   UNL     1       1.909   8.475  18.542  0.00  0.00    +0.000 A 
ATOM     11  F   UNL     1       2.296   8.696  17.276  0.00  0.00    +0.000 F 
BRANCH   8  12
ATOM     12  C   UNL     1      -0.074  10.354  21.174  0.00  0.00    +0.000 A 
ATOM     13  C   UNL     1      -0.475  11.522  20.493  0.00  0.00    +0.000 A 
ATOM     14  C   UNL     1      -1.240  12.509  21.119  0.00  0.00    +0.000 A 
ATOM     15  C   UNL     1      -1.616  12.360  22.450  0.00  0.00    +0.000 A 
ATOM     16  C   UNL     1      -1.230  11.222  23.149  0.00  0.00    +0.000 A 
ATOM     17  C   UNL     1      -0.475  10.229  22.516  0.00  0.00    +0.000 A 
ENDBRANCH   8  12
ENDBRANCH   2   5
BRANCH   1  18
ATOM     18  C   UNL     1       5.222   5.020  18.472  0.00  0.00    +0.000 C 
BRANCH  18  19
ATOM     19  C   UNL     1       6.642   5.628  18.270  0.00  0.00    +0.000 C 
ATOM     20  C   UNL     1       7.669   4.624  17.733  0.00  0.00    +0.000 C 
BRANCH  19  22
ATOM     21  C   UNL     1       7.723   7.900  17.629  0.00  0.00    +0.000 C 
ATOM     22  C   UNL     1       6.622   6.882  17.355  0.00  0.00    +0.000 C 
ENDBRANCH  19  22
ENDBRANCH  18  19
BRANCH  18  23
ATOM     23  C   UNL     1       5.147   3.771  19.377  0.00  0.00    +0.000 C 
BRANCH  23  24
ATOM     24  N   UNL     1       3.942   2.971  19.258  0.00  0.00    +0.000 N 
ATOM     25  C   UNL     1       3.518   2.309  18.143  0.00  0.00    +0.000 A 
ATOM     26  C   UNL     1       2.259   1.841  18.453  0.00  0.00    +0.000 A 
ATOM     27  N   UNL     1       1.915   2.195  19.727  0.00  0.00    +0.000 NA
ATOM     28  C   UNL     1       2.944   2.881  20.190  0.00  0.00    +0.000 A 
ENDBRANCH  23  24
ENDBRANCH  18  23
ENDBRANCH   1  18
TORSDOF 7
ENDMDL
MODEL 2
REMARK VINA RESULT:      -8.0      2.172      4.221
REMARK  Name = 
REMARK  9 active torsions:
REMARK  status: ('A' for Active; 'I' for Inactive)
REMARK    1  A    between atoms: C_1  and  C_2
REMARK    2  A    between atoms: C_2  and  C_3
REMARK    3  A    between atoms: C_3  and  C_4
REMARK    4  A    between atoms: C_3  and  C_5
REMARK    5  A    between atoms: C_5  and  C_6
REMARK    6  A    between atoms: C_5  and  N_12
REMARK    7  A    between atoms: C_6  and  N_7
REMARK    8  A    between atoms: C_13  and  C_15
REMARK    9  A    between atoms: C_18  and  C_19
REMARK                            x       y       z     vdW  Elec       q    Type
REMARK                         _______ _______ _______ _____ _____    ______ ____
ROOT
ATOM      1  N   UNL     1       2.734   5.363  17.973  0.00  0.00    +0.000 N 
ATOM      2  C   UNL     1       3.017   6.167  19.055  0.00  0.00    +0.000 C 
ATOM      3  O   UNL     1       3.725   5.820  19.989  0.00  0.00    +0.000 OA
ATOM      4  H   UNL     1       2.212   5.759  17.198  0.00  0.00    +0.000 HD
ENDROOT
BRANCH   2   5
ATOM      5  C   UNL     1       2.379   7.508  19.041  0.00  0.00    +0.000 A 
ATOM      6  C   UNL     1       2.528   8.333  17.926  0.00  0.00    +0.000 A 
ATOM      7  C   UNL     1       1.933   9.605  17.913  0.00  0.00    +0.000 A 
ATOM      8  C   UNL     1       1.174  10.081  19.001  0.00  0.00    +0.000 A 
ATOM      9  C   UNL     1       1.036   9.225  20.106  0.00  0.00    +0.000 A 
ATOM     10  C   UNL     1       1.626   7.966  20.120  0.00  0.00    +0.000 A 
ATOM     11  F   UNL     1       1.456   7.203  21.211  0.00  0.00    +0.000 F 
BRANCH   8  12
ATOM     12  C   UNL     1       0.548  11.425  18.994  0.00  0.00    +0.000 A 
ATOM     13  C   UNL     1      -0.815  11.604  19.307  0.00  0.00    +0.000 A 
ATOM     14  C   UNL     1      -1.404  12.871  19.317  0.00  0.00    +0.000 A 
ATOM     15  C   UNL     1      -0.647  13.994  19.002  0.00  0.00    +0.000 A 
ATOM     16  C   UNL     1       0.698  13.848  18.682  0.00  0.00    +0.000 A 
ATOM     17  C   UNL     1       1.288  12.580  18.685  0.00  0.00    +0.000 A 
ENDBRANCH   8  12
ENDBRANCH   2   5
BRANCH   1  18
ATOM     18  C   UNL     1       3.327   4.039  17.769  0.00  0.00    +0.000 C 
BRANCH  18  19
ATOM     19  C   UNL     1       2.201   2.963  17.792  0.00  0.00    +0.000 C 
ATOM     20  C   UNL     1       2.665   1.599  18.316  0.00  0.00    +0.000 C 
BRANCH  19  22
ATOM     21  C   UNL     1       1.012   3.137  20.094  0.00  0.00    +0.000 C 
ATOM     22  C   UNL     1       0.958   3.428  18.598  0.00  0.00    +0.000 C 
ENDBRANCH  19  22
ENDBRANCH  18  19
BRANCH  18  23
ATOM     23  C   UNL     1       4.231   4.041  16.516  0.00  0.00    +0.000 C 
BRANCH  23  24
ATOM     24  N   UNL     1       5.653   4.202  16.759  0.00  0.00    +0.000 N 
ATOM     25  C   UNL     1       6.243   4.476  17.959  0.00  0.00    +0.000 A 
ATOM     26  C   UNL     1       7.571   4.706  17.667  0.00  0.00    +0.000 A 
ATOM     27  N   UNL     1       7.800   4.568  16.328  0.00  0.00    +0.000 NA
ATOM     28  C   UNL     1       6.627   4.271  15.800  0.00  0.00    +0.000 A 
ENDBRANCH  23  24
ENDBRANCH  18  23
ENDBRANCH   1  18
TORSDOF 7
ENDMDL
MODEL 3
REMARK VINA RESULT:      -7.9      0.487      1.199
REMARK  Name = 
REMARK  9 active torsions:
REMARK  status: ('A' for Active; 'I' for Inactive)
REMARK    1  A    between atoms: C_1  and  C_2
REMARK    2  A    between atoms: C_2  and  C_3
REMARK    3  A    between atoms: C_3  and  C_4
REMARK    4  A    between atoms: C_3  and  C_5
REMARK    5  A    between atoms: C_5  and  C_6
REMARK    6  A    between atoms: C_5  and  N_12
REMARK    7  A    between atoms: C_6  and  N_7
REMARK    8  A    between atoms: C_13  and  C_15
REMARK    9  A    between atoms: C_18  and  C_19
REMARK                            x       y       z     vdW  Elec       q    Type
REMARK                         _______ _______ _______ _____ _____    ______ ____
ROOT
ATOM      1  N   UNL     1       4.197   6.044  18.909  0.00  0.00    +0.000 N 
ATOM      2  C   UNL     1       2.896   6.276  18.523  0.00  0.00    +0.000 C 
ATOM      3  O   UNL     1       2.335   5.657  17.630  0.00  0.00    +0.000 OA
ATOM      4  H   UNL     1       4.557   6.539  19.719  0.00  0.00    +0.000 HD
ENDROOT
BRANCH   2   5
ATOM      5  C   UNL     1       2.195   7.364  19.250  0.00  0.00    +0.000 A 
ATOM      6  C   UNL     1       1.857   7.193  20.593  0.00  0.00    +0.000 A 
ATOM      7  C   UNL     1       1.187   8.216  21.282  0.00  0.00    +0.000 A 
ATOM      8  C   UNL     1       0.845   9.432  20.656  0.00  0.00    +0.000 A 
ATOM      9  C   UNL     1       1.203   9.578  19.306  0.00  0.00    +0.000 A 
ATOM     10  C   UNL     1       1.866   8.564  18.624  0.00  0.00    +0.000 A 
ATOM     11  F   UNL     1       2.174   8.771  17.334  0.00  0.00    +0.000 F 
BRANCH   8  12
ATOM     12  C   UNL     1       0.133  10.514  21.378  0.00  0.00    +0.000 A 
ATOM     13  C   UNL     1      -0.689  10.240  22.490  0.00  0.00    +0.000 A 
ATOM     14  C   UNL     1      -1.348  11.259  23.182  0.00  0.00    +0.000 A 
ATOM     15  C   UNL     1      -1.213  12.581  22.772  0.00  0.00    +0.000 A 
ATOM     16  C   UNL     1      -0.413  12.881  21.675  0.00  0.00    +0.000 A 
ATOM     17  C   UNL     1       0.256  11.860  20.991  0.00  0.00    +0.000 A 
ENDBRANCH   8  12
ENDBRANCH   2   5
BRANCH   1  18
ATOM     18  C   UNL     1       5.026   4.966  18.364  0.00  0.00    +0.000 C 
BRANCH  18  19
ATOM     19  C   UNL     1       6.458   5.512  18.084  0.00  0.00    +0.000 C 
ATOM     20  C   UNL     1       7.346   4.535  17.304  0.00  0.00    +0.000 C 
BRANCH  19  22
ATOM     21  C   UNL     1       7.668   7.751  17.569  0.00  0.00    +0.000 C 
ATOM     22  C   UNL     1       6.435   6.881  17.353  0.00  0.00    +0.000 C 
ENDBRANCH  19  22
ENDBRANCH  18  19
BRANCH  18  23
ATOM     23  C   UNL     1       4.947   3.716  19.268  0.00  0.00    +0.000 C 
BRANCH  23  24
ATOM     24  N   UNL     1       3.625   3.145  19.449  0.00  0.00    +0.000 N 
ATOM     25  C   UNL     1       2.869   3.202  20.584  0.00  0.00    +0.000 A 
ATOM     26  C   UNL     1       1.785   2.386  20.340  0.00  0.00    +0.000 A 
ATOM     27  N   UNL     1       1.861   1.846  19.088  0.00  0.00    +0.000 NA
ATOM     28  C   UNL     1       2.983   2.314  18.573  0.00  0.00    +0.000 A 
ENDBRANCH  23  24
ENDBRANCH  18  23
ENDBRANCH   1  18
TORSDOF 7
ENDMDL
MODEL 4
REMARK VINA RESULT:      -7.9      2.126      4.202
REMARK  Name = 
REMARK  9 active torsions:
REMARK  status: ('A' for Active; 'I' for Inactive)
REMARK    1  A    between atoms: C_1  and  C_2
REMARK    2  A    between atoms: C_2  and  C_3
REMARK    3  A    between atoms: C_3  and  C_4
REMARK    4  A    between atoms: C_3  and  C_5
REMARK    5  A    between atoms: C_5  and  C_6
REMARK    6  A    between atoms: C_5  and  N_12
REMARK    7  A    between atoms: C_6  and  N_7
REMARK    8  A    between atoms: C_13  and  C_15
REMARK    9  A    between atoms: C_18  and  C_19
REMARK                            x       y       z     vdW  Elec       q    Type
REMARK                         _______ _______ _______ _____ _____    ______ ____
ROOT
ATOM      1  N   UNL     1       2.859   5.189  17.949  0.00  0.00    +0.000 N 
ATOM      2  C   UNL     1       3.226   6.057  18.953  0.00  0.00    +0.000 C 
ATOM      3  O   UNL     1       4.069   5.795  19.798  0.00  0.00    +0.000 OA
ATOM      4  H   UNL     1       2.217   5.519  17.234  0.00  0.00    +0.000 HD
ENDROOT
BRANCH   2   5
ATOM      5  C   UNL     1       2.508   7.357  18.972  0.00  0.00    +0.000 A 
ATOM      6  C   UNL     1       2.597   8.213  17.874  0.00  0.00    +0.000 A 
ATOM      7  C   UNL     1       1.927   9.446  17.892  0.00  0.00    +0.000 A 
ATOM      8  C   UNL     1       1.149   9.852  18.995  0.00  0.00    +0.000 A 
ATOM      9  C   UNL     1       1.072   8.967  20.083  0.00  0.00    +0.000 A 
ATOM     10  C   UNL     1       1.738   7.746  20.065  0.00  0.00    +0.000 A 
ATOM     11  F   UNL     1       1.623   6.952  21.141  0.00  0.00    +0.000 F 
BRANCH   8  12
ATOM     12  C   UNL     1       0.442  11.155  19.021  0.00  0.00    +0.000 A 
ATOM     13  C   UNL     1       1.099  12.356  18.678  0.00  0.00    +0.000 A 
ATOM     14  C   UNL     1       0.431  13.583  18.686  0.00  0.00    +0.000 A 
ATOM     15  C   UNL     1      -0.910  13.645  19.049  0.00  0.00    +0.000 A 
ATOM     16  C   UNL     1      -1.582  12.479  19.398  0.00  0.00    +0.000 A 
ATOM     17  C   UNL     1      -0.915  11.250  19.377  0.00  0.00    +0.000 A 
ENDBRANCH   8  12
ENDBRANCH   2   5
BRANCH   1  18
ATOM     18  C   UNL     1       3.503   3.894  17.719  0.00  0.00    +0.000 C 
BRANCH  18  19
ATOM     19  C   UNL     1       2.424   2.772  17.750  0.00  0.00    +0.000 C 
ATOM     20  C   UNL     1       2.874   1.507  18.491  0.00  0.00    +0.000 C 
BRANCH  19  22
ATOM     21  C   UNL     1       0.901   3.012  19.839  0.00  0.00    +0.000 C 
ATOM     22  C   UNL     1       1.077   3.264  18.346  0.00  0.00    +0.000 C 
ENDBRANCH  19  22
ENDBRANCH  18  19
BRANCH  18  23
ATOM     23  C   UNL     1       4.383   3.947  16.450  0.00  0.00    +0.000 C 
BRANCH  23  24
ATOM     24  N   UNL     1       5.679   4.582  16.602  0.00  0.00    +0.000 N 
ATOM     25  C   UNL     1       6.464   4.562  17.718  0.00  0.00    +0.000 A 
ATOM     26  C   UNL     1       7.500   5.431  17.451  0.00  0.00    +0.000 A 
ATOM     27  N   UNL     1       7.368   5.968  16.202  0.00  0.00    +0.000 NA
ATOM     28  C   UNL     1       6.258   5.446  15.712  0.00  0.00    +0.000 A 
ENDBRANCH  23  24
ENDBRANCH  18  23
ENDBRANCH   1  18
TORSDOF 7
ENDMDL
MODEL 5
REMARK VINA RESULT:      -7.8      0.735      1.055
REMARK  Name = 
REMARK  9 active torsions:
REMARK  status: ('A' for Active; 'I' for Inactive)
REMARK    1  A    between atoms: C_1  and  C_2
REMARK    2  A    between atoms: C_2  and  C_3
REMARK    3  A    between atoms: C_3  and  C_4
REMARK    4  A    between atoms: C_3  and  C_5
REMARK    5  A    between atoms: C_5  and  C_6
REMARK    6  A    between atoms: C_5  and  N_12
REMARK    7  A    between atoms: C_6  and  N_7
REMARK    8  A    between atoms: C_13  and  C_15
REMARK    9  A    between atoms: C_18  and  C_19
REMARK                            x       y       z     vdW  Elec       q    Type
REMARK                         _______ _______ _______ _____ _____    ______ ____
ROOT
ATOM      1  N   UNL     1       4.196   6.036  18.710  0.00  0.00    +0.000 N 
ATOM      2  C   UNL     1       2.847   6.182  18.479  0.00  0.00    +0.000 C 
ATOM      3  O   UNL     1       2.209   5.465  17.721  0.00  0.00    +0.000 OA
ATOM      4  H   UNL     1       4.630   6.614  19.423  0.00  0.00    +0.000 HD
ENDROOT
BRANCH   2   5
ATOM      5  C   UNL     1       2.190   7.302  19.200  0.00  0.00    +0.000 A 
ATOM      6  C   UNL     1       1.819   7.142  20.535  0.00  0.00    +0.000 A 
ATOM      7  C   UNL     1       1.189   8.196  21.218  0.00  0.00    +0.000 A 
ATOM      8  C   UNL     1       0.922   9.430  20.592  0.00  0.00    +0.000 A 
ATOM      9  C   UNL     1       1.313   9.564  19.250  0.00  0.00    +0.000 A 
ATOM     10  C   UNL     1       1.934   8.520  18.574  0.00  0.00    +0.000 A 
ATOM     11  F   UNL     1       2.277   8.716  17.291  0.00  0.00    +0.000 F 
BRANCH   8  12
ATOM     12  C   UNL     1       0.254  10.544  21.307  0.00  0.00    +0.000 A 
ATOM     13  C   UNL     1       0.465  11.888  20.937  0.00  0.00    +0.000 A 
ATOM     14  C   UNL     1      -0.176  12.939  21.598  0.00  0.00    +0.000 A 
ATOM     15  C   UNL     1      -1.037  12.675  22.657  0.00  0.00    +0.000 A 
ATOM     16  C   UNL     1      -1.260  11.359  23.049  0.00  0.00    +0.000 A 
ATOM     17  C   UNL     1      -0.627  10.308  22.377  0.00  0.00    +0.000 A 
ENDBRANCH   8  12
ENDBRANCH   2   5
BRANCH   1  18
ATOM     18  C   UNL     1       5.002   4.948  18.152  0.00  0.00    +0.000 C 
BRANCH  18  19
ATOM     19  C   UNL     1       6.376   5.515  17.686  0.00  0.00    +0.000 C 
ATOM     20  C   UNL     1       7.325   5.854  18.843  0.00  0.00    +0.000 C 
BRANCH  19  22
ATOM     21  C   UNL     1       6.830   4.850  15.218  0.00  0.00    +0.000 C 
ATOM     22  C   UNL     1       7.098   4.566  16.691  0.00  0.00    +0.000 C 
ENDBRANCH  19  22
ENDBRANCH  18  19
BRANCH  18  23
ATOM     23  C   UNL     1       5.064   3.762  19.140  0.00  0.00    +0.000 C 
BRANCH  23  24
ATOM     24  N   UNL     1       3.836   3.005  19.302  0.00  0.00    +0.000 N 
ATOM     25  C   UNL     1       3.207   2.269  18.340  0.00  0.00    +0.000 A 
ATOM     26  C   UNL     1       2.010   1.882  18.902  0.00  0.00    +0.000 A 
ATOM     27  N   UNL     1       1.902   2.356  20.179  0.00  0.00    +0.000 NA
ATOM     28  C   UNL     1       3.013   3.036  20.394  0.00  0.00    +0.000 A 
ENDBRANCH  23  24
ENDBRANCH  18  23
ENDBRANCH   1  18
TORSDOF 7
ENDMDL
MODEL 6
REMARK VINA RESULT:      -7.7      1.245      1.918
REMARK  Name = 
REMARK  9 active torsions:
REMARK  status: ('A' for Active; 'I' for Inactive)
REMARK    1  A    between atoms: C_1  and  C_2
REMARK    2  A    between atoms: C_2  and  C_3
REMARK    3  A    between atoms: C_3  and  C_4
REMARK    4  A    between atoms: C_3  and  C_5
REMARK    5  A    between atoms: C_5  and  C_6
REMARK    6  A    between atoms: C_5  and  N_12
REMARK    7  A    between atoms: C_6  and  N_7
REMARK    8  A    between atoms: C_13  and  C_15
REMARK    9  A    between atoms: C_18  and  C_19
REMARK                            x       y       z     vdW  Elec       q    Type
REMARK                         _______ _______ _______ _____ _____    ______ ____
ROOT
ATOM      1  N   UNL     1       4.225   6.197  18.493  0.00  0.00    +0.000 N 
ATOM      2  C   UNL     1       2.855   6.234  18.370  0.00  0.00    +0.000 C 
ATOM      3  O   UNL     1       2.216   5.454  17.678  0.00  0.00    +0.000 OA
ATOM      4  H   UNL     1       4.669   6.823  19.159  0.00  0.00    +0.000 HD
ENDROOT
BRANCH   2   5
ATOM      5  C   UNL     1       2.172   7.317  19.123  0.00  0.00    +0.000 A 
ATOM      6  C   UNL     1       1.953   8.553  18.512  0.00  0.00    +0.000 A 
ATOM      7  C   UNL     1       1.316   9.582  19.224  0.00  0.00    +0.000 A 
ATOM      8  C   UNL     1       0.877   9.405  20.551  0.00  0.00    +0.000 A 
ATOM      9  C   UNL     1       1.106   8.149  21.138  0.00  0.00    +0.000 A 
ATOM     10  C   UNL     1       1.738   7.131  20.433  0.00  0.00    +0.000 A 
ATOM     11  F   UNL     1       1.927   5.957  21.057  0.00  0.00    +0.000 F 
BRANCH   8  12
ATOM     12  C   UNL     1       0.208  10.490  21.308  0.00  0.00    +0.000 A 
ATOM     13  C   UNL     1      -0.621  10.212  22.415  0.00  0.00    +0.000 A 
ATOM     14  C   UNL     1      -1.240  11.234  23.140  0.00  0.00    +0.000 A 
ATOM     15  C   UNL     1      -1.056  12.562  22.771  0.00  0.00    +0.000 A 
ATOM     16  C   UNL     1      -0.249  12.865  21.680  0.00  0.00    +0.000 A 
ATOM     17  C   UNL     1       0.380  11.842  20.963  0.00  0.00    +0.000 A 
ENDBRANCH   8  12
ENDBRANCH   2   5
BRANCH   1  18
ATOM     18  C   UNL     1       5.067   5.160  17.890  0.00  0.00    +0.000 C 
BRANCH  18  19
ATOM     19  C   UNL     1       6.370   5.813  17.341  0.00  0.00    +0.000 C 
ATOM     20  C   UNL     1       7.482   5.940  18.389  0.00  0.00    +0.000 C 
BRANCH  19  22
ATOM     21  C   UNL     1       5.862   4.470  15.177  0.00  0.00    +0.000 C 
ATOM     22  C   UNL     1       6.922   5.069  16.095  0.00  0.00    +0.000 C 
ENDBRANCH  19  22
ENDBRANCH  18  19
BRANCH  18  23
ATOM     23  C   UNL     1       5.265   3.987  18.875  0.00  0.00    +0.000 C 
BRANCH  23  24
ATOM     24  N   UNL     1       4.124   3.107  19.054  0.00  0.00    +0.000 N 
ATOM     25  C   UNL     1       3.578   2.289  18.108  0.00  0.00    +0.000 A 
ATOM     26  C   UNL     1       2.428   1.789  18.680  0.00  0.00    +0.000 A 
ATOM     27  N   UNL     1       2.270   2.273  19.948  0.00  0.00    +0.000 NA
ATOM     28  C   UNL     1       3.302   3.072  20.147  0.00  0.00    +0.000 A 
ENDBRANCH  23  24
ENDBRANCH  18  23
ENDBRANCH   1  18
TORSDOF 7
ENDMDL
MODEL 7
REMARK VINA RESULT:      -7.7      1.025      1.521
REMARK  Name = 
REMARK  9 active torsions:
REMARK  status: ('A' for Active; 'I' for Inactive)
REMARK    1  A    between atoms: C_1  and  C_2
REMARK    2  A    between atoms: C_2  and  C_3
REMARK    3  A    between atoms: C_3  and  C_4
REMARK    4  A    between atoms: C_3  and  C_5
REMARK    5  A    between atoms: C_5  and  C_6
REMARK    6  A    between atoms: C_5  and  N_12
REMARK    7  A    between atoms: C_6  and  N_7
REMARK    8  A    between atoms: C_13  and  C_15
REMARK    9  A    between atoms: C_18  and  C_19
REMARK                            x       y       z     vdW  Elec       q    Type
REMARK                         _______ _______ _______ _____ _____    ______ ____
ROOT
ATOM      1  N   UNL     1       4.219   6.052  18.886  0.00  0.00    +0.000 N 
ATOM      2  C   UNL     1       2.924   6.285  18.481  0.00  0.00    +0.000 C 
ATOM      3  O   UNL     1       2.383   5.680  17.567  0.00  0.00    +0.000 OA
ATOM      4  H   UNL     1       4.563   6.534  19.712  0.00  0.00    +0.000 HD
ENDROOT
BRANCH   2   5
ATOM      5  C   UNL     1       2.205   7.357  19.216  0.00  0.00    +0.000 A 
ATOM      6  C   UNL     1       1.975   8.586  18.597  0.00  0.00    +0.000 A 
ATOM      7  C   UNL     1       1.303   9.604  19.292  0.00  0.00    +0.000 A 
ATOM      8  C   UNL     1       0.840   9.422  20.610  0.00  0.00    +0.000 A 
ATOM      9  C   UNL     1       1.080   8.173  21.205  0.00  0.00    +0.000 A 
ATOM     10  C   UNL     1       1.747   7.165  20.517  0.00  0.00    +0.000 A 
ATOM     11  F   UNL     1       1.945   5.997  21.149  0.00  0.00    +0.000 F 
BRANCH   8  12
ATOM     12  C   UNL     1       0.133  10.496  21.349  0.00  0.00    +0.000 A 
ATOM     13  C   UNL     1       0.236  11.848  20.962  0.00  0.00    +0.000 A 
ATOM     14  C   UNL     1      -0.441  12.860  21.647  0.00  0.00    +0.000 A 
ATOM     15  C   UNL     1      -1.232  12.548  22.748  0.00  0.00    +0.000 A 
ATOM     16  C   UNL     1      -1.347  11.224  23.158  0.00  0.00    +0.000 A 
ATOM     17  C   UNL     1      -0.678  10.212  22.462  0.00  0.00    +0.000 A 
ENDBRANCH   8  12
ENDBRANCH   2   5
BRANCH   1  18
ATOM     18  C   UNL     1       5.063   4.988  18.337  0.00  0.00    +0.000 C 
BRANCH  18  19
ATOM     19  C   UNL     1       6.499   5.543  18.102  0.00  0.00    +0.000 C 
ATOM     20  C   UNL     1       7.429   4.557  17.383  0.00  0.00    +0.000 C 
BRANCH  19  22
ATOM     21  C   UNL     1       7.708   7.780  17.576  0.00  0.00    +0.000 C 
ATOM     22  C   UNL     1       6.492   6.893  17.335  0.00  0.00    +0.000 C 
ENDBRANCH  19  22
ENDBRANCH  18  19
BRANCH  18  23
ATOM     23  C   UNL     1       4.967   3.718  19.211  0.00  0.00    +0.000 C 
BRANCH  23  24
ATOM     24  N   UNL     1       3.645   3.132  19.338  0.00  0.00    +0.000 N 
ATOM     25  C   UNL     1       2.897   3.064  20.477  0.00  0.00    +0.000 A 
ATOM     26  C   UNL     1       1.810   2.281  20.152  0.00  0.00    +0.000 A 
ATOM     27  N   UNL     1       1.877   1.883  18.847  0.00  0.00    +0.000 NA
ATOM     28  C   UNL     1       2.996   2.403  18.379  0.00  0.00    +0.000 A 
ENDBRANCH  23  24
ENDBRANCH  18  23
ENDBRANCH   1  18
TORSDOF 7
ENDMDL
MODEL 8
REMARK VINA RESULT:      -7.7      0.852      1.411
REMARK  Name = 
REMARK  9 active torsions:
REMARK  status: ('A' for Active; 'I' for Inactive)
REMARK    1  A    between atoms: C_1  and  C_2
REMARK    2  A    between atoms: C_2  and  C_3
REMARK    3  A    between atoms: C_3  and  C_4
REMARK    4  A    between atoms: C_3  and  C_5
REMARK    5  A    between atoms: C_5  and  C_6
REMARK    6  A    between atoms: C_5  and  N_12
REMARK    7  A    between atoms: C_6  and  N_7
REMARK    8  A    between atoms: C_13  and  C_15
REMARK    9  A    between atoms: C_18  and  C_19
REMARK                            x       y       z     vdW  Elec       q    Type
REMARK                         _______ _______ _______ _____ _____    ______ ____
ROOT
ATOM      1  N   UNL     1       4.172   6.251  18.554  0.00  0.00    +0.000 N 
ATOM      2  C   UNL     1       2.801   6.306  18.434  0.00  0.00    +0.000 C 
ATOM      3  O   UNL     1       2.150   5.523  17.758  0.00  0.00    +0.000 OA
ATOM      4  H   UNL     1       4.626   6.881  19.207  0.00  0.00    +0.000 HD
ENDROOT
BRANCH   2   5
ATOM      5  C   UNL     1       2.137   7.411  19.171  0.00  0.00    +0.000 A 
ATOM      6  C   UNL     1       1.807   7.246  20.516  0.00  0.00    +0.000 A 
ATOM      7  C   UNL     1       1.171   8.285  21.213  0.00  0.00    +0.000 A 
ATOM      8  C   UNL     1       0.856   9.511  20.593  0.00  0.00    +0.000 A 
ATOM      9  C   UNL     1       1.206   9.651  19.240  0.00  0.00    +0.000 A 
ATOM     10  C   UNL     1       1.834   8.621  18.550  0.00  0.00    +0.000 A 
ATOM     11  F   UNL     1       2.136   8.822  17.257  0.00  0.00    +0.000 F 
BRANCH   8  12
ATOM     12  C   UNL     1       0.180  10.610  21.324  0.00  0.00    +0.000 A 
ATOM     13  C   UNL     1      -0.669  10.353  22.420  0.00  0.00    +0.000 A 
ATOM     14  C   UNL     1      -1.294  11.388  23.120  0.00  0.00    +0.000 A 
ATOM     15  C   UNL     1      -1.096  12.710  22.736  0.00  0.00    +0.000 A 
ATOM     16  C   UNL     1      -0.268  12.994  21.655  0.00  0.00    +0.000 A 
ATOM     17  C   UNL     1       0.366  11.957  20.963  0.00  0.00    +0.000 A 
ENDBRANCH   8  12
ENDBRANCH   2   5
BRANCH   1  18
ATOM     18  C   UNL     1       4.996   5.192  17.965  0.00  0.00    +0.000 C 
BRANCH  18  19
ATOM     19  C   UNL     1       6.301   5.819  17.390  0.00  0.00    +0.000 C 
ATOM     20  C   UNL     1       7.552   5.502  18.219  0.00  0.00    +0.000 C 
BRANCH  19  22
ATOM     21  C   UNL     1       5.897   4.103  15.484  0.00  0.00    +0.000 C 
ATOM     22  C   UNL     1       6.548   5.414  15.912  0.00  0.00    +0.000 C 
ENDBRANCH  19  22
ENDBRANCH  18  19
BRANCH  18  23
ATOM     23  C   UNL     1       5.191   4.038  18.974  0.00  0.00    +0.000 C 
BRANCH  23  24
ATOM     24  N   UNL     1       4.059   3.146  19.145  0.00  0.00    +0.000 N 
ATOM     25  C   UNL     1       3.517   2.336  18.191  0.00  0.00    +0.000 A 
ATOM     26  C   UNL     1       2.374   1.817  18.761  0.00  0.00    +0.000 A 
ATOM     27  N   UNL     1       2.217   2.284  20.035  0.00  0.00    +0.000 NA
ATOM     28  C   UNL     1       3.242   3.089  20.241  0.00  0.00    +0.000 A 
ENDBRANCH  23  24
ENDBRANCH  18  23
ENDBRANCH   1  18
TORSDOF 7
ENDMDL
MODEL 9
REMARK VINA RESULT:      -7.7      1.311      1.742
REMARK  Name = 
REMARK  9 active torsions:
REMARK  status: ('A' for Active; 'I' for Inactive)
REMARK    1  A    between atoms: C_1  and  C_2
REMARK    2  A    between atoms: C_2  and  C_3
REMARK    3  A    between atoms: C_3  and  C_4
REMARK    4  A    between atoms: C_3  and  C_5
REMARK    5  A    between atoms: C_5  and  C_6
REMARK    6  A    between atoms: C_5  and  N_12
REMARK    7  A    between atoms: C_6  and  N_7
REMARK    8  A    between atoms: C_13  and  C_15
REMARK    9  A    between atoms: C_18  and  C_19
REMARK                            x       y       z     vdW  Elec       q    Type
REMARK                         _______ _______ _______ _____ _____    ______ ____
ROOT
ATOM      1  N   UNL     1       4.054   6.030  18.448  0.00  0.00    +0.000 N 
ATOM      2  C   UNL     1       2.690   6.166  18.321  0.00  0.00    +0.000 C 
ATOM      3  O   UNL     1       1.996   5.418  17.647  0.00  0.00    +0.000 OA
ATOM      4  H   UNL     1       4.542   6.638  19.099  0.00  0.00    +0.000 HD
ENDROOT
BRANCH   2   5
ATOM      5  C   UNL     1       2.089   7.314  19.045  0.00  0.00    +0.000 A 
ATOM      6  C   UNL     1       1.901   8.528  18.383  0.00  0.00    +0.000 A 
ATOM      7  C   UNL     1       1.341   9.619  19.067  0.00  0.00    +0.000 A 
ATOM      8  C   UNL     1       0.949   9.526  20.418  0.00  0.00    +0.000 A 
ATOM      9  C   UNL     1       1.144   8.290  21.056  0.00  0.00    +0.000 A 
ATOM     10  C   UNL     1       1.700   7.211  20.379  0.00  0.00    +0.000 A 
ATOM     11  F   UNL     1       1.861   6.061  21.052  0.00  0.00    +0.000 F 
BRANCH   8  12
ATOM     12  C   UNL     1       0.361  10.676  21.146  0.00  0.00    +0.000 A 
ATOM     13  C   UNL     1       0.676  12.006  20.799  0.00  0.00    +0.000 A 
ATOM     14  C   UNL     1       0.111  13.092  21.473  0.00  0.00    +0.000 A 
ATOM     15  C   UNL     1      -0.776  12.877  22.522  0.00  0.00    +0.000 A 
ATOM     16  C   UNL     1      -1.100  11.576  22.891  0.00  0.00    +0.000 A 
ATOM     17  C   UNL     1      -0.544  10.491  22.207  0.00  0.00    +0.000 A 
ENDBRANCH   8  12
ENDBRANCH   2   5
BRANCH   1  18
ATOM     18  C   UNL     1       4.817   4.920  17.873  0.00  0.00    +0.000 C 
BRANCH  18  19
ATOM     19  C   UNL     1       6.124   5.473  17.232  0.00  0.00    +0.000 C 
ATOM     20  C   UNL     1       7.376   4.667  17.598  0.00  0.00    +0.000 C 
BRANCH  19  22
ATOM     21  C   UNL     1       6.255   4.289  14.925  0.00  0.00    +0.000 C 
ATOM     22  C   UNL     1       6.020   5.588  15.687  0.00  0.00    +0.000 C 
ENDBRANCH  19  22
ENDBRANCH  18  19
BRANCH  18  23
ATOM     23  C   UNL     1       5.002   3.796  18.916  0.00  0.00    +0.000 C 
BRANCH  23  24
ATOM     24  N   UNL     1       3.816   3.022  19.235  0.00  0.00    +0.000 N 
ATOM     25  C   UNL     1       3.126   2.211  18.382  0.00  0.00    +0.000 A 
ATOM     26  C   UNL     1       1.995   1.833  19.074  0.00  0.00    +0.000 A 
ATOM     27  N   UNL     1       1.987   2.386  20.323  0.00  0.00    +0.000 NA
ATOM     28  C   UNL     1       3.092   3.105  20.394  0.00  0.00    +0.000 A 
ENDBRANCH  23  24
ENDBRANCH  18  23
ENDBRANCH   1  18
TORSDOF 7
ENDMDL
