MODEL 1
REMARK VINA RESULT:      -8.4      0.000      0.000
REMARK  Name = 
REMARK  5 active torsions:
REMARK  status: ('A' for Active; 'I' for Inactive)
REMARK    1  A    between atoms: C_11  and  O_12
REMARK    2  A    between atoms: O_12  and  C_13
REMARK    3  A    between atoms: C_13  and  C_14
REMARK    4  A    between atoms: C_14  and  C_17
REMARK    5  A    between atoms: N_15  and  O_16
REMARK                            x       y       z     vdW  Elec       q    Type
REMARK                         _______ _______ _______ _____ _____    ______ ____
ROOT
ATOM      1  O   UNL     1       4.866   6.022  16.346  0.00  0.00    +0.000 OA
ENDROOT
BRANCH   1  12
ATOM      2  O   UNL     1       3.257   7.956  17.828  0.00  0.00    +0.000 OA
ATOM      3  C   UNL     1       3.191   6.762  18.107  0.00  0.00    +0.000 A 
ATOM      4  O   UNL     1       2.360   6.320  19.136  0.00  0.00    +0.000 OA
ATOM      5  C   UNL     1       2.179   4.953  19.412  0.00  0.00    +0.000 A 
ATOM      6  C   UNL     1       1.280   4.608  20.420  0.00  0.00    +0.000 A 
ATOM      7  C   UNL     1       1.061   3.260  20.700  0.00  0.00    +0.000 A 
ATOM      8  C   UNL     1       1.740   2.278  19.977  0.00  0.00    +0.000 A 
ATOM      9  C   UNL     1       2.644   2.640  18.973  0.00  0.00    +0.000 A 
ATOM     10  C   UNL     1       2.868   3.989  18.686  0.00  0.00    +0.000 A 
ATOM     11  C   UNL     1       3.794   4.419  17.655  0.00  0.00    +0.000 A 
ATOM     12  C   UNL     1       3.976   5.716  17.371  0.00  0.00    +0.000 A 
ENDBRANCH   1  12
BRANCH   1  13
ATOM     13  C   UNL     1       6.232   6.226  16.712  0.00  0.00    +0.000 C 
BRANCH  13  14
ATOM     14  C   UNL     1       7.047   5.042  16.173  0.00  0.00    +0.000 C 
ATOM     15  N   UNL     1       7.810   4.278  16.908  0.00  0.00    +0.000 NA
BRANCH  14  16
ATOM     16  C   UNL     1       6.949   4.730  14.711  0.00  0.00    +0.000 A 
ATOM     17  C   UNL     1       6.045   3.780  14.223  0.00  0.00    +0.000 A 
ATOM     18  C   UNL     1       5.992   3.501  12.854  0.00  0.00    +0.000 A 
ATOM     19  C   UNL     1       6.839   4.167  11.969  0.00  0.00    +0.000 A 
ATOM     20  C   UNL     1       7.730   5.125  12.446  0.00  0.00    +0.000 A 
ATOM     21  C   UNL     1       7.781   5.411  13.812  0.00  0.00    +0.000 A 
ENDBRANCH  14  16
BRANCH  15  22
ATOM     22  O   UNL     1       7.824   4.669  18.247  0.00  0.00    +0.000 OA
ATOM     23  H   UNL     1       8.088   5.607  18.189  0.00  0.00    +0.000 HD
ENDBRANCH  15  22
ENDBRANCH  13  14
ENDBRANCH   1  13
TORSDOF 5
ENDMDL
MODEL 2
REMARK VINA RESULT:      -8.4      0.062      1.032
REMARK  Name = 
REMARK  5 active torsions:
REMARK  status: ('A' for Active; 'I' for Inactive)
REMARK    1  A    between atoms: C_11  and  O_12
REMARK    2  A    between atoms: O_12  and  C_13
REMARK    3  A    between atoms: C_13  and  C_14
REMARK    4  A    between atoms: C_14  and  C_17
REMARK    5  A    between atoms: N_15  and  O_16
REMARK                            x       y       z     vdW  Elec       q    Type
REMARK                         _______ _______ _______ _____ _____    ______ ____
ROOT
ATOM      1  O   UNL     1       4.874   6.032  16.319  0.00  0.00    +0.000 OA
ENDROOT
BRANCH   1  12
ATOM      2  O   UNL     1       3.278   7.937  17.851  0.00  0.00    +0.000 OA
ATOM      3  C   UNL     1       3.209   6.738  18.103  0.00  0.00    +0.000 A 
ATOM      4  O   UNL     1       2.380   6.275  19.125  0.00  0.00    +0.000 OA
ATOM      5  C   UNL     1       2.195   4.902  19.370  0.00  0.00    +0.000 A 
ATOM      6  C   UNL     1       1.299   4.538  20.373  0.00  0.00    +0.000 A 
ATOM      7  C   UNL     1       1.075   3.185  20.623  0.00  0.00    +0.000 A 
ATOM      8  C   UNL     1       1.748   2.217  19.875  0.00  0.00    +0.000 A 
ATOM      9  C   UNL     1       2.650   2.599  18.876  0.00  0.00    +0.000 A 
ATOM     10  C   UNL     1       2.877   3.953  18.620  0.00  0.00    +0.000 A 
ATOM     11  C   UNL     1       3.801   4.403  17.595  0.00  0.00    +0.000 A 
ATOM     12  C   UNL     1       3.987   5.706  17.340  0.00  0.00    +0.000 A 
ENDBRANCH   1  12
BRANCH   1  13
ATOM     13  C   UNL     1       6.239   6.241  16.688  0.00  0.00    +0.000 C 
BRANCH  13  14
ATOM     14  C   UNL     1       7.057   5.051  16.165  0.00  0.00    +0.000 C 
ATOM     15  N   UNL     1       7.798   4.282  16.916  0.00  0.00    +0.000 NA
BRANCH  14  16
ATOM     16  C   UNL     1       6.989   4.742  14.700  0.00  0.00    +0.000 A 
ATOM     17  C   UNL     1       7.801   5.405  13.772  0.00  0.00    +0.000 A 
ATOM     18  C   UNL     1       7.698   5.103  12.411  0.00  0.00    +0.000 A 
ATOM     19  C   UNL     1       6.787   4.144  11.971  0.00  0.00    +0.000 A 
ATOM     20  C   UNL     1       5.987   3.469  12.891  0.00  0.00    +0.000 A 
ATOM     21  C   UNL     1       6.092   3.763  14.253  0.00  0.00    +0.000 A 
ENDBRANCH  14  16
BRANCH  15  22
ATOM     22  O   UNL     1       7.785   4.671  18.255  0.00  0.00    +0.000 OA
ATOM     23  H   UNL     1       7.879   5.640  18.192  0.00  0.00    +0.000 HD
ENDBRANCH  15  22
ENDBRANCH  13  14
ENDBRANCH   1  13
TORSDOF 5
ENDMDL
MODEL 3
REMARK VINA RESULT:      -8.4      1.733      6.750
REMARK  Name = 
REMARK  5 active torsions:
REMARK  status: ('A' for Active; 'I' for Inactive)
REMARK    1  A    between atoms: C_11  and  O_12
REMARK    2  A    between atoms: O_12  and  C_13
REMARK    3  A    between atoms: C_13  and  C_14
REMARK    4  A    between atoms: C_14  and  C_17
REMARK    5  A    between atoms: N_15  and  O_16
REMARK                            x       y       z     vdW  Elec       q    Type
REMARK                         _______ _______ _______ _____ _____    ______ ____
ROOT
ATOM      1  O   UNL     1       5.499   4.363  18.245  0.00  0.00    +0.000 OA
ENDROOT
BRANCH   1  12
ATOM      2  O   UNL     1       7.810   6.054  17.676  0.00  0.00    +0.000 OA
ATOM      3  C   UNL     1       7.230   5.481  16.759  0.00  0.00    +0.000 A 
ATOM      4  O   UNL     1       7.659   5.639  15.441  0.00  0.00    +0.000 OA
ATOM      5  C   UNL     1       7.087   4.916  14.379  0.00  0.00    +0.000 A 
ATOM      6  C   UNL     1       7.626   5.097  13.107  0.00  0.00    +0.000 A 
ATOM      7  C   UNL     1       7.096   4.376  12.038  0.00  0.00    +0.000 A 
ATOM      8  C   UNL     1       6.038   3.489  12.250  0.00  0.00    +0.000 A 
ATOM      9  C   UNL     1       5.504   3.324  13.533  0.00  0.00    +0.000 A 
ATOM     10  C   UNL     1       6.031   4.044  14.608  0.00  0.00    +0.000 A 
ATOM     11  C   UNL     1       5.514   3.909  15.958  0.00  0.00    +0.000 A 
ATOM     12  C   UNL     1       6.049   4.582  16.985  0.00  0.00    +0.000 A 
ENDBRANCH   1  12
BRANCH   1  13
ATOM     13  C   UNL     1       4.965   5.500  18.926  0.00  0.00    +0.000 C 
BRANCH  13  14
ATOM     14  C   UNL     1       3.487   5.637  18.532  0.00  0.00    +0.000 C 
ATOM     15  N   UNL     1       3.008   6.611  17.805  0.00  0.00    +0.000 NA
BRANCH  14  16
ATOM     16  C   UNL     1       2.536   4.576  18.995  0.00  0.00    +0.000 A 
ATOM     17  C   UNL     1       1.943   3.681  18.097  0.00  0.00    +0.000 A 
ATOM     18  C   UNL     1       1.047   2.714  18.562  0.00  0.00    +0.000 A 
ATOM     19  C   UNL     1       0.737   2.638  19.919  0.00  0.00    +0.000 A 
ATOM     20  C   UNL     1       1.336   3.516  20.820  0.00  0.00    +0.000 A 
ATOM     21  C   UNL     1       2.238   4.479  20.360  0.00  0.00    +0.000 A 
ENDBRANCH  14  16
BRANCH  15  22
ATOM     22  O   UNL     1       3.985   7.535  17.440  0.00  0.00    +0.000 OA
ATOM     23  H   UNL     1       3.461   8.236  17.010  0.00  0.00    +0.000 HD
ENDBRANCH  15  22
ENDBRANCH  13  14
ENDBRANCH   1  13
TORSDOF 5
ENDMDL
MODEL 4
REMARK VINA RESULT:      -8.3      1.816      6.797
REMARK  Name = 
REMARK  5 active torsions:
REMARK  status: ('A' for Active; 'I' for Inactive)
REMARK    1  A    between atoms: C_11  and  O_12
REMARK    2  A    between atoms: O_12  and  C_13
REMARK    3  A    between atoms: C_13  and  C_14
REMARK    4  A    between atoms: C_14  and  C_17
REMARK    5  A    between atoms: N_15  and  O_16
REMARK                            x       y       z     vdW  Elec       q    Type
REMARK                         _______ _______ _______ _____ _____    ______ ____
ROOT
ATOM      1  O   UNL     1       5.054   4.900  18.110  0.00  0.00    +0.000 OA
ENDROOT
BRANCH   1  12
ATOM      2  O   UNL     1       7.669   6.108  17.634  0.00  0.00    +0.000 OA
ATOM      3  C   UNL     1       7.058   5.584  16.707  0.00  0.00    +0.000 A 
ATOM      4  O   UNL     1       7.598   5.571  15.421  0.00  0.00    +0.000 OA
ATOM      5  C   UNL     1       6.977   4.889  14.360  0.00  0.00    +0.000 A 
ATOM      6  C   UNL     1       7.625   4.881  13.126  0.00  0.00    +0.000 A 
ATOM      7  C   UNL     1       7.047   4.192  12.061  0.00  0.00    +0.000 A 
ATOM      8  C   UNL     1       5.833   3.526  12.238  0.00  0.00    +0.000 A 
ATOM      9  C   UNL     1       5.191   3.550  13.481  0.00  0.00    +0.000 A 
ATOM     10  C   UNL     1       5.765   4.237  14.552  0.00  0.00    +0.000 A 
ATOM     11  C   UNL     1       5.142   4.291  15.862  0.00  0.00    +0.000 A 
ATOM     12  C   UNL     1       5.720   4.929  16.889  0.00  0.00    +0.000 A 
ENDBRANCH   1  12
BRANCH   1  13
ATOM     13  C   UNL     1       4.582   6.149  18.622  0.00  0.00    +0.000 C 
BRANCH  13  14
ATOM     14  C   UNL     1       3.051   6.159  18.506  0.00  0.00    +0.000 C 
ATOM     15  N   UNL     1       2.361   7.131  17.972  0.00  0.00    +0.000 NA
BRANCH  14  16
ATOM     16  C   UNL     1       2.300   4.970  19.023  0.00  0.00    +0.000 A 
ATOM     17  C   UNL     1       2.146   4.740  20.395  0.00  0.00    +0.000 A 
ATOM     18  C   UNL     1       1.453   3.611  20.842  0.00  0.00    +0.000 A 
ATOM     19  C   UNL     1       0.915   2.708  19.925  0.00  0.00    +0.000 A 
ATOM     20  C   UNL     1       1.052   2.940  18.558  0.00  0.00    +0.000 A 
ATOM     21  C   UNL     1       1.737   4.071  18.107  0.00  0.00    +0.000 A 
ENDBRANCH  14  16
BRANCH  15  22
ATOM     22  O   UNL     1       3.167   8.180  17.534  0.00  0.00    +0.000 OA
ATOM     23  H   UNL     1       3.805   7.725  16.952  0.00  0.00    +0.000 HD
ENDBRANCH  15  22
ENDBRANCH  13  14
ENDBRANCH   1  13
TORSDOF 5
ENDMDL
MODEL 5
REMARK VINA RESULT:      -8.2      1.870      3.371
REMARK  Name = 
REMARK  5 active torsions:
REMARK  status: ('A' for Active; 'I' for Inactive)
REMARK    1  A    between atoms: C_11  and  O_12
REMARK    2  A    between atoms: O_12  and  C_13
REMARK    3  A    between atoms: C_13  and  C_14
REMARK    4  A    between atoms: C_14  and  C_17
REMARK    5  A    between atoms: N_15  and  O_16
REMARK                            x       y       z     vdW  Elec       q    Type
REMARK                         _______ _______ _______ _____ _____    ______ ____
ROOT
ATOM      1  O   UNL     1       4.593   4.253  15.767  0.00  0.00    +0.000 OA
ENDROOT
BRANCH   1  12
ATOM      2  O   UNL     1       4.133   6.804  17.112  0.00  0.00    +0.000 OA
ATOM      3  C   UNL     1       3.776   5.757  17.645  0.00  0.00    +0.000 A 
ATOM      4  O   UNL     1       3.161   5.773  18.896  0.00  0.00    +0.000 OA
ATOM      5  C   UNL     1       2.644   4.606  19.488  0.00  0.00    +0.000 A 
ATOM      6  C   UNL     1       1.991   4.734  20.712  0.00  0.00    +0.000 A 
ATOM      7  C   UNL     1       1.446   3.600  21.312  0.00  0.00    +0.000 A 
ATOM      8  C   UNL     1       1.562   2.357  20.686  0.00  0.00    +0.000 A 
ATOM      9  C   UNL     1       2.226   2.244  19.460  0.00  0.00    +0.000 A 
ATOM     10  C   UNL     1       2.773   3.377  18.854  0.00  0.00    +0.000 A 
ATOM     11  C   UNL     1       3.471   3.315  17.583  0.00  0.00    +0.000 A 
ATOM     12  C   UNL     1       3.965   4.415  16.998  0.00  0.00    +0.000 A 
ENDBRANCH   1  12
BRANCH   1  13
ATOM     13  C   UNL     1       5.921   3.726  15.782  0.00  0.00    +0.000 C 
BRANCH  13  14
ATOM     14  C   UNL     1       6.896   4.896  15.586  0.00  0.00    +0.000 C 
ATOM     15  N   UNL     1       7.358   5.282  14.427  0.00  0.00    +0.000 NA
BRANCH  14  16
ATOM     16  C   UNL     1       7.332   5.657  16.801  0.00  0.00    +0.000 A 
ATOM     17  C   UNL     1       7.498   7.046  16.776  0.00  0.00    +0.000 A 
ATOM     18  C   UNL     1       7.923   7.722  17.924  0.00  0.00    +0.000 A 
ATOM     19  C   UNL     1       8.185   7.016  19.097  0.00  0.00    +0.000 A 
ATOM     20  C   UNL     1       8.006   5.635  19.134  0.00  0.00    +0.000 A 
ATOM     21  C   UNL     1       7.575   4.957  17.991  0.00  0.00    +0.000 A 
ENDBRANCH  14  16
BRANCH  15  22
ATOM     22  O   UNL     1       6.886   4.497  13.376  0.00  0.00    +0.000 OA
ATOM     23  H   UNL     1       6.160   5.041  13.017  0.00  0.00    +0.000 HD
ENDBRANCH  15  22
ENDBRANCH  13  14
ENDBRANCH   1  13
TORSDOF 5
ENDMDL
MODEL 6
REMARK VINA RESULT:      -8.2      2.137      6.831
REMARK  Name = 
REMARK  5 active torsions:
REMARK  status: ('A' for Active; 'I' for Inactive)
REMARK    1  A    between atoms: C_11  and  O_12
REMARK    2  A    between atoms: O_12  and  C_13
REMARK    3  A    between atoms: C_13  and  C_14
REMARK    4  A    between atoms: C_14  and  C_17
REMARK    5  A    between atoms: N_15  and  O_16
REMARK                            x       y       z     vdW  Elec       q    Type
REMARK                         _______ _______ _______ _____ _____    ______ ____
ROOT
ATOM      1  O   UNL     1       5.064   4.620  18.068  0.00  0.00    +0.000 OA
ENDROOT
BRANCH   1  12
ATOM      2  O   UNL     1       7.524   6.154  17.714  0.00  0.00    +0.000 OA
ATOM      3  C   UNL     1       7.006   5.595  16.751  0.00  0.00    +0.000 A 
ATOM      4  O   UNL     1       7.577   5.696  15.483  0.00  0.00    +0.000 OA
ATOM      5  C   UNL     1       7.072   4.984  14.380  0.00  0.00    +0.000 A 
ATOM      6  C   UNL     1       7.749   5.101  13.167  0.00  0.00    +0.000 A 
ATOM      7  C   UNL     1       7.288   4.388  12.062  0.00  0.00    +0.000 A 
ATOM      8  C   UNL     1       6.160   3.573  12.178  0.00  0.00    +0.000 A 
ATOM      9  C   UNL     1       5.487   3.472  13.401  0.00  0.00    +0.000 A 
ATOM     10  C   UNL     1       5.945   4.183  14.513  0.00  0.00    +0.000 A 
ATOM     11  C   UNL     1       5.286   4.112  15.804  0.00  0.00    +0.000 A 
ATOM     12  C   UNL     1       5.754   4.776  16.869  0.00  0.00    +0.000 A 
ENDBRANCH   1  12
BRANCH   1  13
ATOM     13  C   UNL     1       4.238   3.461  18.195  0.00  0.00    +0.000 C 
BRANCH  13  14
ATOM     14  C   UNL     1       2.774   3.923  18.208  0.00  0.00    +0.000 C 
ATOM     15  N   UNL     1       1.771   3.198  17.792  0.00  0.00    +0.000 NA
BRANCH  14  16
ATOM     16  C   UNL     1       2.473   5.287  18.750  0.00  0.00    +0.000 A 
ATOM     17  C   UNL     1       2.556   6.430  17.946  0.00  0.00    +0.000 A 
ATOM     18  C   UNL     1       2.284   7.689  18.489  0.00  0.00    +0.000 A 
ATOM     19  C   UNL     1       1.933   7.814  19.832  0.00  0.00    +0.000 A 
ATOM     20  C   UNL     1       1.833   6.679  20.634  0.00  0.00    +0.000 A 
ATOM     21  C   UNL     1       2.096   5.418  20.093  0.00  0.00    +0.000 A 
ENDBRANCH  14  16
BRANCH  15  22
ATOM     22  O   UNL     1       2.176   1.955  17.308  0.00  0.00    +0.000 OA
ATOM     23  H   UNL     1       1.375   1.411  17.430  0.00  0.00    +0.000 HD
ENDBRANCH  15  22
ENDBRANCH  13  14
ENDBRANCH   1  13
TORSDOF 5
ENDMDL
MODEL 7
REMARK VINA RESULT:      -8.1      1.516      2.277
REMARK  Name = 
REMARK  5 active torsions:
REMARK  status: ('A' for Active; 'I' for Inactive)
REMARK    1  A    between atoms: C_11  and  O_12
REMARK    2  A    between atoms: O_12  and  C_13
REMARK    3  A    between atoms: C_13  and  C_14
REMARK    4  A    between atoms: C_14  and  C_17
REMARK    5  A    between atoms: N_15  and  O_16
REMARK                            x       y       z     vdW  Elec       q    Type
REMARK                         _______ _______ _______ _____ _____    ______ ____
ROOT
ATOM      1  O   UNL     1       5.238   6.651  17.313  0.00  0.00    +0.000 OA
ENDROOT
BRANCH   1  12
ATOM      2  O   UNL     1       6.643   4.994  19.265  0.00  0.00    +0.000 OA
ATOM      3  C   UNL     1       5.496   4.710  18.933  0.00  0.00    +0.000 A 
ATOM      4  O   UNL     1       4.858   3.593  19.472  0.00  0.00    +0.000 OA
ATOM      5  C   UNL     1       3.511   3.298  19.197  0.00  0.00    +0.000 A 
ATOM      6  C   UNL     1       2.946   2.195  19.833  0.00  0.00    +0.000 A 
ATOM      7  C   UNL     1       1.605   1.892  19.599  0.00  0.00    +0.000 A 
ATOM      8  C   UNL     1       0.850   2.687  18.736  0.00  0.00    +0.000 A 
ATOM      9  C   UNL     1       1.435   3.788  18.100  0.00  0.00    +0.000 A 
ATOM     10  C   UNL     1       2.777   4.098  18.330  0.00  0.00    +0.000 A 
ATOM     11  C   UNL     1       3.431   5.228  17.697  0.00  0.00    +0.000 A 
ATOM     12  C   UNL     1       4.712   5.531  17.951  0.00  0.00    +0.000 A 
ENDBRANCH   1  12
BRANCH   1  13
ATOM     13  C   UNL     1       5.224   6.650  15.885  0.00  0.00    +0.000 C 
BRANCH  13  14
ATOM     14  C   UNL     1       6.476   5.905  15.400  0.00  0.00    +0.000 C 
ATOM     15  N   UNL     1       7.656   6.016  15.949  0.00  0.00    +0.000 NA
BRANCH  14  16
ATOM     16  C   UNL     1       6.332   4.976  14.233  0.00  0.00    +0.000 A 
ATOM     17  C   UNL     1       7.332   4.862  13.260  0.00  0.00    +0.000 A 
ATOM     18  C   UNL     1       7.157   3.997  12.175  0.00  0.00    +0.000 A 
ATOM     19  C   UNL     1       5.987   3.247  12.056  0.00  0.00    +0.000 A 
ATOM     20  C   UNL     1       4.996   3.344  13.030  0.00  0.00    +0.000 A 
ATOM     21  C   UNL     1       5.170   4.201  14.119  0.00  0.00    +0.000 A 
ENDBRANCH  14  16
BRANCH  15  22
ATOM     22  O   UNL     1       7.665   6.910  17.019  0.00  0.00    +0.000 OA
ATOM     23  H   UNL     1       7.788   6.319  17.785  0.00  0.00    +0.000 HD
ENDBRANCH  15  22
ENDBRANCH  13  14
ENDBRANCH   1  13
TORSDOF 5
ENDMDL
MODEL 8
REMARK VINA RESULT:      -8.1      1.841      3.208
REMARK  Name = 
REMARK  5 active torsions:
REMARK  status: ('A' for Active; 'I' for Inactive)
REMARK    1  A    between atoms: C_11  and  O_12
REMARK    2  A    between atoms: O_12  and  C_13
REMARK    3  A    between atoms: C_13  and  C_14
REMARK    4  A    between atoms: C_14  and  C_17
REMARK    5  A    between atoms: N_15  and  O_16
REMARK                            x       y       z     vdW  Elec       q    Type
REMARK                         _______ _______ _______ _____ _____    ______ ____
ROOT
ATOM      1  O   UNL     1       4.436   4.893  15.860  0.00  0.00    +0.000 OA
ENDROOT
BRANCH   1  12
ATOM      2  O   UNL     1       4.097   7.227  17.581  0.00  0.00    +0.000 OA
ATOM      3  C   UNL     1       3.768   6.116  17.984  0.00  0.00    +0.000 A 
ATOM      4  O   UNL     1       3.242   5.954  19.266  0.00  0.00    +0.000 OA
ATOM      5  C   UNL     1       2.756   4.715  19.722  0.00  0.00    +0.000 A 
ATOM      6  C   UNL     1       2.193   4.668  20.995  0.00  0.00    +0.000 A 
ATOM      7  C   UNL     1       1.680   3.460  21.465  0.00  0.00    +0.000 A 
ATOM      8  C   UNL     1       1.739   2.318  20.664  0.00  0.00    +0.000 A 
ATOM      9  C   UNL     1       2.315   2.381  19.390  0.00  0.00    +0.000 A 
ATOM     10  C   UNL     1       2.829   3.588  18.913  0.00  0.00    +0.000 A 
ATOM     11  C   UNL     1       3.435   3.708  17.599  0.00  0.00    +0.000 A 
ATOM     12  C   UNL     1       3.897   4.880  17.143  0.00  0.00    +0.000 A 
ENDBRANCH   1  12
BRANCH   1  13
ATOM     13  C   UNL     1       5.560   4.044  15.619  0.00  0.00    +0.000 C 
BRANCH  13  14
ATOM     14  C   UNL     1       6.811   4.929  15.527  0.00  0.00    +0.000 C 
ATOM     15  N   UNL     1       7.476   5.150  14.426  0.00  0.00    +0.000 NA
BRANCH  14  16
ATOM     16  C   UNL     1       7.290   5.599  16.779  0.00  0.00    +0.000 A 
ATOM     17  C   UNL     1       7.585   4.867  17.935  0.00  0.00    +0.000 A 
ATOM     18  C   UNL     1       8.014   5.526  19.091  0.00  0.00    +0.000 A 
ATOM     19  C   UNL     1       8.148   6.914  19.099  0.00  0.00    +0.000 A 
ATOM     20  C   UNL     1       7.872   7.647  17.947  0.00  0.00    +0.000 A 
ATOM     21  C   UNL     1       7.450   6.991  16.788  0.00  0.00    +0.000 A 
ENDBRANCH  14  16
BRANCH  15  22
ATOM     22  O   UNL     1       6.939   4.471  13.333  0.00  0.00    +0.000 OA
ATOM     23  H   UNL     1       7.499   3.673  13.285  0.00  0.00    +0.000 HD
ENDBRANCH  15  22
ENDBRANCH  13  14
ENDBRANCH   1  13
TORSDOF 5
ENDMDL
MODEL 9
REMARK VINA RESULT:      -8.0      2.335      6.990
REMARK  Name = 
REMARK  5 active torsions:
REMARK  status: ('A' for Active; 'I' for Inactive)
REMARK    1  A    between atoms: C_11  and  O_12
REMARK    2  A    between atoms: O_12  and  C_13
REMARK    3  A    between atoms: C_13  and  C_14
REMARK    4  A    between atoms: C_14  and  C_17
REMARK    5  A    between atoms: N_15  and  O_16
REMARK                            x       y       z     vdW  Elec       q    Type
REMARK                         _______ _______ _______ _____ _____    ______ ____
ROOT
ATOM      1  O   UNL     1       4.876   5.371  17.890  0.00  0.00    +0.000 OA
ENDROOT
BRANCH   1  12
ATOM      2  O   UNL     1       7.515   6.544  17.460  0.00  0.00    +0.000 OA
ATOM      3  C   UNL     1       6.959   5.936  16.550  0.00  0.00    +0.000 A 
ATOM      4  O   UNL     1       7.572   5.810  15.304  0.00  0.00    +0.000 OA
ATOM      5  C   UNL     1       7.014   5.033  14.274  0.00  0.00    +0.000 A 
ATOM      6  C   UNL     1       7.733   4.917  13.086  0.00  0.00    +0.000 A 
ATOM      7  C   UNL     1       7.217   4.133  12.055  0.00  0.00    +0.000 A 
ATOM      8  C   UNL     1       5.995   3.479  12.220  0.00  0.00    +0.000 A 
ATOM      9  C   UNL     1       5.282   3.611  13.417  0.00  0.00    +0.000 A 
ATOM     10  C   UNL     1       5.794   4.394  14.454  0.00  0.00    +0.000 A 
ATOM     11  C   UNL     1       5.095   4.563  15.715  0.00  0.00    +0.000 A 
ATOM     12  C   UNL     1       5.612   5.293  16.712  0.00  0.00    +0.000 A 
ENDBRANCH   1  12
BRANCH   1  13
ATOM     13  C   UNL     1       3.453   5.402  17.765  0.00  0.00    +0.000 C 
BRANCH  13  14
ATOM     14  C   UNL     1       2.872   5.896  19.098  0.00  0.00    +0.000 C 
ATOM     15  N   UNL     1       2.882   5.205  20.205  0.00  0.00    +0.000 NA
BRANCH  14  16
ATOM     16  C   UNL     1       2.269   7.267  19.135  0.00  0.00    +0.000 A 
ATOM     17  C   UNL     1       1.698   7.785  20.304  0.00  0.00    +0.000 A 
ATOM     18  C   UNL     1       1.129   9.062  20.298  0.00  0.00    +0.000 A 
ATOM     19  C   UNL     1       1.125   9.824  19.131  0.00  0.00    +0.000 A 
ATOM     20  C   UNL     1       1.706   9.321  17.969  0.00  0.00    +0.000 A 
ATOM     21  C   UNL     1       2.282   8.048  17.972  0.00  0.00    +0.000 A 
ENDBRANCH  14  16
BRANCH  15  22
ATOM     22  O   UNL     1       3.463   3.947  20.044  0.00  0.00    +0.000 OA
ATOM     23  H   UNL     1       3.519   3.622  20.962  0.00  0.00    +0.000 HD
ENDBRANCH  15  22
ENDBRANCH  13  14
ENDBRANCH   1  13
TORSDOF 5
ENDMDL
