MODEL 1
REMARK VINA RESULT:      -6.2      0.000      0.000
REMARK  Name = 
REMARK  1 active torsions:
REMARK  status: ('A' for Active; 'I' for Inactive)
REMARK    1  A    between atoms: N_1  and  N_2
REMARK                            x       y       z     vdW  Elec       q    Type
REMARK                         _______ _______ _______ _____ _____    ______ ____
ROOT
ATOM      1  N   UNL     1       4.001   1.989  19.415  0.00  0.00    +0.000 N 
ATOM      2  C   UNL     1       4.093   3.246  18.873  0.00  0.00    +0.000 C 
ATOM      3  N   UNL     1       4.825   4.190  19.365  0.00  0.00    +0.000 NA
ATOM      4  C   UNL     1       4.987   5.291  18.408  0.00  0.00    +0.000 C 
ATOM      5  C   UNL     1       6.455   5.688  18.460  0.00  0.00    +0.000 C 
ATOM      6  S   UNL     1       7.203   5.098  16.959  0.00  0.00    +0.000 S 
ATOM      7  O   UNL     1       7.369   6.225  16.064  0.00  0.00    +0.000 OA
ATOM      8  O   UNL     1       8.294   4.194  17.284  0.00  0.00    +0.000 OA
ATOM      9  C   UNL     1       5.832   4.136  16.379  0.00  0.00    +0.000 C 
ATOM     10  C   UNL     1       4.616   4.801  16.999  0.00  0.00    +0.000 C 
ATOM     11  S   UNL     1       3.344   3.548  17.330  0.00  0.00    +0.000 S 
ATOM     12  H   UNL     1       3.626   1.286  18.777  0.00  0.00    +0.000 HD
ENDROOT
BRANCH   1  13
ATOM     13  N   UNL     1       5.174   1.605  20.148  0.00  0.00    +0.000 NA
ATOM     14  H   UNL     1       4.944   1.527  21.146  0.00  0.00    +0.000 HD
ATOM     15  H   UNL     1       5.381   0.626  19.897  0.00  0.00    +0.000 HD
ENDBRANCH   1  13
TORSDOF 1
ENDMDL
MODEL 2
REMARK VINA RESULT:      -5.8      1.325      1.365
REMARK  Name = 
REMARK  1 active torsions:
REMARK  status: ('A' for Active; 'I' for Inactive)
REMARK    1  A    between atoms: N_1  and  N_2
REMARK                            x       y       z     vdW  Elec       q    Type
REMARK                         _______ _______ _______ _____ _____    ______ ____
ROOT
ATOM      1  N   UNL     1       3.277   2.544  18.449  0.00  0.00    +0.000 N 
ATOM      2  C   UNL     1       3.928   3.723  18.708  0.00  0.00    +0.000 C 
ATOM      3  N   UNL     1       5.152   3.796  19.116  0.00  0.00    +0.000 NA
ATOM      4  C   UNL     1       5.677   5.160  18.986  0.00  0.00    +0.000 C 
ATOM      5  C   UNL     1       7.081   5.025  18.415  0.00  0.00    +0.000 C 
ATOM      6  S   UNL     1       7.002   5.558  16.721  0.00  0.00    +0.000 S 
ATOM      7  O   UNL     1       7.559   6.894  16.643  0.00  0.00    +0.000 OA
ATOM      8  O   UNL     1       7.442   4.479  15.852  0.00  0.00    +0.000 OA
ATOM      9  C   UNL     1       5.240   5.692  16.600  0.00  0.00    +0.000 C 
ATOM     10  C   UNL     1       4.784   5.960  18.024  0.00  0.00    +0.000 C 
ATOM     11  S   UNL     1       3.146   5.221  18.284  0.00  0.00    +0.000 S 
ATOM     12  H   UNL     1       2.439   2.647  17.875  0.00  0.00    +0.000 HD
ENDROOT
BRANCH   1  13
ATOM     13  N   UNL     1       4.166   1.481  18.071  0.00  0.00    +0.000 NA
ATOM     14  H   UNL     1       3.817   0.593  18.450  0.00  0.00    +0.000 HD
ATOM     15  H   UNL     1       4.056   1.341  17.055  0.00  0.00    +0.000 HD
ENDBRANCH   1  13
TORSDOF 1
ENDMDL
MODEL 3
REMARK VINA RESULT:      -5.8      3.081      4.166
REMARK  Name = 
REMARK  1 active torsions:
REMARK  status: ('A' for Active; 'I' for Inactive)
REMARK    1  A    between atoms: N_1  and  N_2
REMARK                            x       y       z     vdW  Elec       q    Type
REMARK                         _______ _______ _______ _____ _____    ______ ____
ROOT
ATOM      1  N   UNL     1       8.154   6.090  19.315  0.00  0.00    +0.000 N 
ATOM      2  C   UNL     1       7.254   5.649  18.377  0.00  0.00    +0.000 C 
ATOM      3  N   UNL     1       6.734   4.467  18.379  0.00  0.00    +0.000 NA
ATOM      4  C   UNL     1       5.577   4.393  17.478  0.00  0.00    +0.000 C 
ATOM      5  C   UNL     1       4.501   3.621  18.227  0.00  0.00    +0.000 C 
ATOM      6  S   UNL     1       3.263   4.801  18.711  0.00  0.00    +0.000 S 
ATOM      7  O   UNL     1       2.135   4.666  17.812  0.00  0.00    +0.000 OA
ATOM      8  O   UNL     1       3.113   4.780  20.157  0.00  0.00    +0.000 OA
ATOM      9  C   UNL     1       4.149   6.267  18.260  0.00  0.00    +0.000 C 
ATOM     10  C   UNL     1       5.090   5.815  17.157  0.00  0.00    +0.000 C 
ATOM     11  S   UNL     1       6.619   6.792  17.227  0.00  0.00    +0.000 S 
ATOM     12  H   UNL     1       8.254   7.105  19.352  0.00  0.00    +0.000 HD
ENDROOT
BRANCH   1  13
ATOM     13  N   UNL     1       8.017   5.428  20.581  0.00  0.00    +0.000 NA
ATOM     14  H   UNL     1       7.962   6.130  21.330  0.00  0.00    +0.000 HD
ATOM     15  H   UNL     1       7.073   5.013  20.605  0.00  0.00    +0.000 HD
ENDBRANCH   1  13
TORSDOF 1
ENDMDL
MODEL 4
REMARK VINA RESULT:      -5.7      2.748      3.094
REMARK  Name = 
REMARK  1 active torsions:
REMARK  status: ('A' for Active; 'I' for Inactive)
REMARK    1  A    between atoms: N_1  and  N_2
REMARK                            x       y       z     vdW  Elec       q    Type
REMARK                         _______ _______ _______ _____ _____    ______ ____
ROOT
ATOM      1  N   UNL     1       1.188   2.740  21.342  0.00  0.00    +0.000 N 
ATOM      2  C   UNL     1       1.331   3.399  20.147  0.00  0.00    +0.000 C 
ATOM      3  N   UNL     1       1.869   4.568  20.029  0.00  0.00    +0.000 NA
ATOM      4  C   UNL     1       2.187   4.868  18.628  0.00  0.00    +0.000 C 
ATOM      5  C   UNL     1       3.575   5.491  18.629  0.00  0.00    +0.000 C 
ATOM      6  S   UNL     1       4.688   4.271  17.972  0.00  0.00    +0.000 S 
ATOM      7  O   UNL     1       4.992   4.630  16.601  0.00  0.00    +0.000 OA
ATOM      8  O   UNL     1       5.724   3.982  18.950  0.00  0.00    +0.000 OA
ATOM      9  C   UNL     1       3.552   2.912  17.941  0.00  0.00    +0.000 C 
ATOM     10  C   UNL     1       2.187   3.565  17.814  0.00  0.00    +0.000 C 
ATOM     11  S   UNL     1       0.948   2.552  18.674  0.00  0.00    +0.000 S 
ATOM     12  H   UNL     1       1.016   1.738  21.247  0.00  0.00    +0.000 HD
ENDROOT
BRANCH   1  13
ATOM     13  N   UNL     1       2.177   3.115  22.313  0.00  0.00    +0.000 NA
ATOM     14  H   UNL     1       2.236   2.391  23.038  0.00  0.00    +0.000 HD
ATOM     15  H   UNL     1       3.097   3.038  21.854  0.00  0.00    +0.000 HD
ENDBRANCH   1  13
TORSDOF 1
ENDMDL
MODEL 5
REMARK VINA RESULT:      -5.7      1.363      1.459
REMARK  Name = 
REMARK  1 active torsions:
REMARK  status: ('A' for Active; 'I' for Inactive)
REMARK    1  A    between atoms: N_1  and  N_2
REMARK                            x       y       z     vdW  Elec       q    Type
REMARK                         _______ _______ _______ _____ _____    ______ ____
ROOT
ATOM      1  N   UNL     1       2.874   1.596  18.305  0.00  0.00    +0.000 N 
ATOM      2  C   UNL     1       3.112   2.915  18.599  0.00  0.00    +0.000 C 
ATOM      3  N   UNL     1       4.073   3.321  19.360  0.00  0.00    +0.000 NA
ATOM      4  C   UNL     1       4.286   4.768  19.223  0.00  0.00    +0.000 C 
ATOM      5  C   UNL     1       5.791   4.973  19.150  0.00  0.00    +0.000 C 
ATOM      6  S   UNL     1       6.174   5.385  17.463  0.00  0.00    +0.000 S 
ATOM      7  O   UNL     1       6.403   6.814  17.389  0.00  0.00    +0.000 OA
ATOM      8  O   UNL     1       7.116   4.416  16.929  0.00  0.00    +0.000 OA
ATOM      9  C   UNL     1       4.575   5.052  16.774  0.00  0.00    +0.000 C 
ATOM     10  C   UNL     1       3.615   5.261  17.932  0.00  0.00    +0.000 C 
ATOM     11  S   UNL     1       2.200   4.136  17.756  0.00  0.00    +0.000 S 
ATOM     12  H   UNL     1       2.281   1.451  17.488  0.00  0.00    +0.000 HD
ENDROOT
BRANCH   1  13
ATOM     13  N   UNL     1       4.056   0.783  18.372  0.00  0.00    +0.000 NA
ATOM     14  H   UNL     1       4.809   1.230  17.835  0.00  0.00    +0.000 HD
ATOM     15  H   UNL     1       4.412   0.845  19.338  0.00  0.00    +0.000 HD
ENDBRANCH   1  13
TORSDOF 1
ENDMDL
MODEL 6
REMARK VINA RESULT:      -5.6      3.301      4.308
REMARK  Name = 
REMARK  1 active torsions:
REMARK  status: ('A' for Active; 'I' for Inactive)
REMARK    1  A    between atoms: N_1  and  N_2
REMARK                            x       y       z     vdW  Elec       q    Type
REMARK                         _______ _______ _______ _____ _____    ______ ____
ROOT
ATOM      1  N   UNL     1       6.926   5.339  16.658  0.00  0.00    +0.000 N 
ATOM      2  C   UNL     1       5.600   5.008  16.789  0.00  0.00    +0.000 C 
ATOM      3  N   UNL     1       5.136   3.815  16.620  0.00  0.00    +0.000 NA
ATOM      4  C   UNL     1       3.771   3.695  17.146  0.00  0.00    +0.000 C 
ATOM      5  C   UNL     1       3.717   2.374  17.897  0.00  0.00    +0.000 C 
ATOM      6  S   UNL     1       3.685   2.768  19.631  0.00  0.00    +0.000 S 
ATOM      7  O   UNL     1       2.326   2.605  20.105  0.00  0.00    +0.000 OA
ATOM      8  O   UNL     1       4.820   2.144  20.291  0.00  0.00    +0.000 OA
ATOM      9  C   UNL     1       4.008   4.504  19.481  0.00  0.00    +0.000 C 
ATOM     10  C   UNL     1       3.488   4.865  18.101  0.00  0.00    +0.000 C 
ATOM     11  S   UNL     1       4.497   6.206  17.406  0.00  0.00    +0.000 S 
ATOM     12  H   UNL     1       7.178   6.228  17.091  0.00  0.00    +0.000 HD
ENDROOT
BRANCH   1  13
ATOM     13  N   UNL     1       7.809   4.240  16.926  0.00  0.00    +0.000 NA
ATOM     14  H   UNL     1       8.578   4.558  17.529  0.00  0.00    +0.000 HD
ATOM     15  H   UNL     1       7.303   3.589  17.546  0.00  0.00    +0.000 HD
ENDBRANCH   1  13
TORSDOF 1
ENDMDL
MODEL 7
REMARK VINA RESULT:      -5.5      1.497      1.605
REMARK  Name = 
REMARK  1 active torsions:
REMARK  status: ('A' for Active; 'I' for Inactive)
REMARK    1  A    between atoms: N_1  and  N_2
REMARK                            x       y       z     vdW  Elec       q    Type
REMARK                         _______ _______ _______ _____ _____    ______ ____
ROOT
ATOM      1  N   UNL     1       4.144   2.730  20.057  0.00  0.00    +0.000 N 
ATOM      2  C   UNL     1       4.658   3.898  19.554  0.00  0.00    +0.000 C 
ATOM      3  N   UNL     1       5.902   4.063  19.245  0.00  0.00    +0.000 NA
ATOM      4  C   UNL     1       6.093   5.271  18.433  0.00  0.00    +0.000 C 
ATOM      5  C   UNL     1       7.052   4.887  17.317  0.00  0.00    +0.000 C 
ATOM      6  S   UNL     1       6.093   4.787  15.824  0.00  0.00    +0.000 S 
ATOM      7  O   UNL     1       6.340   5.985  15.047  0.00  0.00    +0.000 OA
ATOM      8  O   UNL     1       6.214   3.453  15.258  0.00  0.00    +0.000 OA
ATOM      9  C   UNL     1       4.491   4.938  16.566  0.00  0.00    +0.000 C 
ATOM     10  C   UNL     1       4.741   5.711  17.848  0.00  0.00    +0.000 C 
ATOM     11  S   UNL     1       3.558   5.176  19.119  0.00  0.00    +0.000 S 
ATOM     12  H   UNL     1       3.128   2.655  19.983  0.00  0.00    +0.000 HD
ENDROOT
BRANCH   1  13
ATOM     13  N   UNL     1       4.886   1.569  19.655  0.00  0.00    +0.000 NA
ATOM     14  H   UNL     1       4.281   0.741  19.708  0.00  0.00    +0.000 HD
ATOM     15  H   UNL     1       5.052   1.652  18.640  0.00  0.00    +0.000 HD
ENDBRANCH   1  13
TORSDOF 1
ENDMDL
MODEL 8
REMARK VINA RESULT:      -5.4      1.677      1.814
REMARK  Name = 
REMARK  1 active torsions:
REMARK  status: ('A' for Active; 'I' for Inactive)
REMARK    1  A    between atoms: N_1  and  N_2
REMARK                            x       y       z     vdW  Elec       q    Type
REMARK                         _______ _______ _______ _____ _____    ______ ____
ROOT
ATOM      1  N   UNL     1       3.448   2.193  19.505  0.00  0.00    +0.000 N 
ATOM      2  C   UNL     1       4.105   3.398  19.532  0.00  0.00    +0.000 C 
ATOM      3  N   UNL     1       5.367   3.535  19.295  0.00  0.00    +0.000 NA
ATOM      4  C   UNL     1       5.715   4.943  19.065  0.00  0.00    +0.000 C 
ATOM      5  C   UNL     1       6.657   4.960  17.870  0.00  0.00    +0.000 C 
ATOM      6  S   UNL     1       5.734   5.610  16.496  0.00  0.00    +0.000 S 
ATOM      7  O   UNL     1       6.136   6.987  16.294  0.00  0.00    +0.000 OA
ATOM      8  O   UNL     1       5.721   4.636  15.418  0.00  0.00    +0.000 OA
ATOM      9  C   UNL     1       4.139   5.614  17.268  0.00  0.00    +0.000 C 
ATOM     10  C   UNL     1       4.438   5.739  18.752  0.00  0.00    +0.000 C 
ATOM     11  S   UNL     1       3.168   4.856  19.703  0.00  0.00    +0.000 S 
ATOM     12  H   UNL     1       2.433   2.273  19.429  0.00  0.00    +0.000 HD
ENDROOT
BRANCH   1  13
ATOM     13  N   UNL     1       4.067   1.234  18.633  0.00  0.00    +0.000 NA
ATOM     14  H   UNL     1       3.582   1.232  17.728  0.00  0.00    +0.000 HD
ATOM     15  H   UNL     1       4.994   1.609  18.381  0.00  0.00    +0.000 HD
ENDBRANCH   1  13
TORSDOF 1
ENDMDL
MODEL 9
REMARK VINA RESULT:      -5.4      3.629      4.602
REMARK  Name = 
REMARK  1 active torsions:
REMARK  status: ('A' for Active; 'I' for Inactive)
REMARK    1  A    between atoms: N_1  and  N_2
REMARK                            x       y       z     vdW  Elec       q    Type
REMARK                         _______ _______ _______ _____ _____    ______ ____
ROOT
ATOM      1  N   UNL     1       6.632   4.868  18.486  0.00  0.00    +0.000 N 
ATOM      2  C   UNL     1       5.563   4.011  18.416  0.00  0.00    +0.000 C 
ATOM      3  N   UNL     1       5.155   3.287  19.405  0.00  0.00    +0.000 NA
ATOM      4  C   UNL     1       3.818   2.738  19.146  0.00  0.00    +0.000 C 
ATOM      5  C   UNL     1       3.030   2.908  20.436  0.00  0.00    +0.000 C 
ATOM      6  S   UNL     1       1.864   4.221  20.159  0.00  0.00    +0.000 S 
ATOM      7  O   UNL     1       0.560   3.628  19.940  0.00  0.00    +0.000 OA
ATOM      8  O   UNL     1       2.085   5.279  21.131  0.00  0.00    +0.000 OA
ATOM      9  C   UNL     1       2.490   4.760  18.591  0.00  0.00    +0.000 C 
ATOM     10  C   UNL     1       3.155   3.527  18.007  0.00  0.00    +0.000 C 
ATOM     11  S   UNL     1       4.571   4.028  16.985  0.00  0.00    +0.000 S 
ATOM     12  H   UNL     1       6.657   5.565  17.741  0.00  0.00    +0.000 HD
ENDROOT
BRANCH   1  13
ATOM     13  N   UNL     1       6.871   5.363  19.813  0.00  0.00    +0.000 NA
ATOM     14  H   UNL     1       7.658   4.854  20.232  0.00  0.00    +0.000 HD
ATOM     15  H   UNL     1       7.255   6.315  19.716  0.00  0.00    +0.000 HD
ENDBRANCH   1  13
TORSDOF 1
ENDMDL
