MODEL 1
REMARK VINA RESULT:      -6.9      0.000      0.000
REMARK  Name = 
REMARK  6 active torsions:
REMARK  status: ('A' for Active; 'I' for Inactive)
REMARK    1  A    between atoms: C_2  and  C_16
REMARK    2  A    between atoms: N_3  and  C_4
REMARK    3  A    between atoms: C_13  and  C_14
REMARK    4  A    between atoms: C_14  and  O_15
REMARK    5  A    between atoms: C_16  and  O_17
REMARK    6  A    between atoms: C_16  and  C_18
REMARK                            x       y       z     vdW  Elec       q    Type
REMARK                         _______ _______ _______ _____ _____    ______ ____
ROOT
ATOM      1  O   UNL     1       4.830   4.694  15.859  0.00  0.00    +0.000 OA
ATOM      2  C   UNL     1       5.312   4.754  16.989  0.00  0.00    +0.000 C 
ATOM      3  N   UNL     1       4.539   4.764  18.127  0.00  0.00    +0.000 N 
ATOM      4  H   UNL     1       5.026   4.623  19.009  0.00  0.00    +0.000 HD
ENDROOT
BRANCH   3   5
ATOM      5  C   UNL     1       3.082   4.738  18.110  0.00  0.00    +0.000 C 
ATOM      6  C   UNL     1       2.577   6.025  18.712  0.00  0.00    +0.000 A 
ATOM      7  C   UNL     1       2.569   7.208  17.954  0.00  0.00    +0.000 A 
ATOM      8  C   UNL     1       2.120   8.406  18.516  0.00  0.00    +0.000 A 
ATOM      9  C   UNL     1       1.682   8.435  19.837  0.00  0.00    +0.000 A 
ATOM     10  C   UNL     1       1.682   7.264  20.593  0.00  0.00    +0.000 A 
ATOM     11  C   UNL     1       2.130   6.064  20.035  0.00  0.00    +0.000 A 
ATOM     12  O   UNL     1       2.059   4.968  20.851  0.00  0.00    +0.000 OA
ATOM     13  C   UNL     1       2.708   3.787  20.372  0.00  0.00    +0.000 C 
ATOM     14  C   UNL     1       2.492   3.547  18.881  0.00  0.00    +0.000 C 
BRANCH  14  15
ATOM     15  C   UNL     1       3.036   2.181  18.464  0.00  0.00    +0.000 C 
BRANCH  15  16
ATOM     16  O   UNL     1       4.313   1.941  19.037  0.00  0.00    +0.000 OA
ATOM     17  H   UNL     1       4.940   1.765  18.301  0.00  0.00    +0.000 HD
ENDBRANCH  15  16
ENDBRANCH  14  15
ENDBRANCH   3   5
BRANCH   2  18
ATOM     18  C   UNL     1       6.832   4.833  17.269  0.00  0.00    +0.000 C 
BRANCH  18  19
ATOM     19  C   UNL     1       7.241   6.247  17.638  0.00  0.00    +0.000 A 
ATOM     20  C   UNL     1       8.154   6.465  18.679  0.00  0.00    +0.000 A 
ATOM     21  C   UNL     1       8.594   7.756  18.979  0.00  0.00    +0.000 A 
ATOM     22  C   UNL     1       8.120   8.843  18.248  0.00  0.00    +0.000 A 
ATOM     23  C   UNL     1       7.200   8.644  17.222  0.00  0.00    +0.000 A 
ATOM     24  C   UNL     1       6.762   7.355  16.918  0.00  0.00    +0.000 A 
ENDBRANCH  18  19
BRANCH  18  25
ATOM     25  O   UNL     1       7.209   3.907  18.292  0.00  0.00    +0.000 OA
ATOM     26  H   UNL     1       6.390   3.602  18.719  0.00  0.00    +0.000 HD
ENDBRANCH  18  25
ENDBRANCH   2  18
TORSDOF 6
ENDMDL
MODEL 2
REMARK VINA RESULT:      -6.8      2.881      5.036
REMARK  Name = 
REMARK  6 active torsions:
REMARK  status: ('A' for Active; 'I' for Inactive)
REMARK    1  A    between atoms: C_2  and  C_16
REMARK    2  A    between atoms: N_3  and  C_4
REMARK    3  A    between atoms: C_13  and  C_14
REMARK    4  A    between atoms: C_14  and  O_15
REMARK    5  A    between atoms: C_16  and  O_17
REMARK    6  A    between atoms: C_16  and  C_18
REMARK                            x       y       z     vdW  Elec       q    Type
REMARK                         _______ _______ _______ _____ _____    ______ ____
ROOT
ATOM      1  O   UNL     1       7.749   4.023  16.493  0.00  0.00    +0.000 OA
ATOM      2  C   UNL     1       6.748   4.643  16.136  0.00  0.00    +0.000 C 
ATOM      3  N   UNL     1       5.615   4.732  16.910  0.00  0.00    +0.000 N 
ATOM      4  H   UNL     1       4.919   5.416  16.621  0.00  0.00    +0.000 HD
ENDROOT
BRANCH   3   5
ATOM      5  C   UNL     1       5.473   4.083  18.206  0.00  0.00    +0.000 C 
ATOM      6  C   UNL     1       4.059   3.572  18.330  0.00  0.00    +0.000 A 
ATOM      7  C   UNL     1       3.675   2.384  17.686  0.00  0.00    +0.000 A 
ATOM      8  C   UNL     1       2.360   1.920  17.781  0.00  0.00    +0.000 A 
ATOM      9  C   UNL     1       1.418   2.638  18.513  0.00  0.00    +0.000 A 
ATOM     10  C   UNL     1       1.794   3.816  19.158  0.00  0.00    +0.000 A 
ATOM     11  C   UNL     1       3.107   4.283  19.066  0.00  0.00    +0.000 A 
ATOM     12  O   UNL     1       3.379   5.429  19.761  0.00  0.00    +0.000 OA
ATOM     13  C   UNL     1       4.650   6.032  19.505  0.00  0.00    +0.000 C 
ATOM     14  C   UNL     1       5.783   5.016  19.387  0.00  0.00    +0.000 C 
BRANCH  14  15
ATOM     15  C   UNL     1       7.138   5.718  19.309  0.00  0.00    +0.000 C 
BRANCH  15  16
ATOM     16  O   UNL     1       7.927   5.440  20.456  0.00  0.00    +0.000 OA
ATOM     17  H   UNL     1       7.376   5.627  21.247  0.00  0.00    +0.000 HD
ENDBRANCH  15  16
ENDBRANCH  14  15
ENDBRANCH   3   5
BRANCH   2  18
ATOM     18  C   UNL     1       6.637   5.383  14.782  0.00  0.00    +0.000 C 
BRANCH  18  19
ATOM     19  C   UNL     1       6.334   4.411  13.656  0.00  0.00    +0.000 A 
ATOM     20  C   UNL     1       5.023   3.958  13.454  0.00  0.00    +0.000 A 
ATOM     21  C   UNL     1       4.720   3.122  12.377  0.00  0.00    +0.000 A 
ATOM     22  C   UNL     1       5.724   2.724  11.497  0.00  0.00    +0.000 A 
ATOM     23  C   UNL     1       7.034   3.152  11.696  0.00  0.00    +0.000 A 
ATOM     24  C   UNL     1       7.339   3.990  12.769  0.00  0.00    +0.000 A 
ENDBRANCH  18  19
BRANCH  18  25
ATOM     25  O   UNL     1       5.648   6.416  14.848  0.00  0.00    +0.000 OA
ATOM     26  H   UNL     1       6.116   7.252  15.009  0.00  0.00    +0.000 HD
ENDBRANCH  18  25
ENDBRANCH   2  18
TORSDOF 6
ENDMDL
MODEL 3
REMARK VINA RESULT:      -6.8      0.968      1.017
REMARK  Name = 
REMARK  6 active torsions:
REMARK  status: ('A' for Active; 'I' for Inactive)
REMARK    1  A    between atoms: C_2  and  C_16
REMARK    2  A    between atoms: N_3  and  C_4
REMARK    3  A    between atoms: C_13  and  C_14
REMARK    4  A    between atoms: C_14  and  O_15
REMARK    5  A    between atoms: C_16  and  O_17
REMARK    6  A    between atoms: C_16  and  C_18
REMARK                            x       y       z     vdW  Elec       q    Type
REMARK                         _______ _______ _______ _____ _____    ______ ____
ROOT
ATOM      1  O   UNL     1       4.217   4.500  16.279  0.00  0.00    +0.000 OA
ATOM      2  C   UNL     1       4.688   4.627  17.407  0.00  0.00    +0.000 C 
ATOM      3  N   UNL     1       3.913   4.910  18.508  0.00  0.00    +0.000 N 
ATOM      4  H   UNL     1       4.359   4.808  19.417  0.00  0.00    +0.000 HD
ENDROOT
BRANCH   3   5
ATOM      5  C   UNL     1       2.472   5.116  18.446  0.00  0.00    +0.000 C 
ATOM      6  C   UNL     1       2.189   6.575  18.706  0.00  0.00    +0.000 A 
ATOM      7  C   UNL     1       2.375   7.527  17.689  0.00  0.00    +0.000 A 
ATOM      8  C   UNL     1       2.133   8.881  17.935  0.00  0.00    +0.000 A 
ATOM      9  C   UNL     1       1.711   9.297  19.194  0.00  0.00    +0.000 A 
ATOM     10  C   UNL     1       1.521   8.358  20.206  0.00  0.00    +0.000 A 
ATOM     11  C   UNL     1       1.761   7.003  19.966  0.00  0.00    +0.000 A 
ATOM     12  O   UNL     1       1.513   6.161  21.015  0.00  0.00    +0.000 OA
ATOM     13  C   UNL     1       1.955   4.810  20.855  0.00  0.00    +0.000 C 
ATOM     14  C   UNL     1       1.696   4.257  19.456  0.00  0.00    +0.000 C 
BRANCH  14  15
ATOM     15  C   UNL     1       2.005   2.762  19.395  0.00  0.00    +0.000 C 
BRANCH  15  16
ATOM     16  O   UNL     1       2.129   2.317  18.053  0.00  0.00    +0.000 OA
ATOM     17  H   UNL     1       2.685   1.507  18.060  0.00  0.00    +0.000 HD
ENDBRANCH  15  16
ENDBRANCH  14  15
ENDBRANCH   3   5
BRANCH   2  18
ATOM     18  C   UNL     1       6.197   4.497  17.725  0.00  0.00    +0.000 C 
BRANCH  18  19
ATOM     19  C   UNL     1       6.836   5.864  17.889  0.00  0.00    +0.000 A 
ATOM     20  C   UNL     1       7.825   6.064  18.861  0.00  0.00    +0.000 A 
ATOM     21  C   UNL     1       8.472   7.297  18.971  0.00  0.00    +0.000 A 
ATOM     22  C   UNL     1       8.131   8.344  18.117  0.00  0.00    +0.000 A 
ATOM     23  C   UNL     1       7.139   8.164  17.158  0.00  0.00    +0.000 A 
ATOM     24  C   UNL     1       6.493   6.932  17.043  0.00  0.00    +0.000 A 
ENDBRANCH  18  19
BRANCH  18  25
ATOM     25  O   UNL     1       6.402   3.692  18.891  0.00  0.00    +0.000 OA
ATOM     26  H   UNL     1       7.251   3.232  18.777  0.00  0.00    +0.000 HD
ENDBRANCH  18  25
ENDBRANCH   2  18
TORSDOF 6
ENDMDL
MODEL 4
REMARK VINA RESULT:      -6.7      2.868      4.981
REMARK  Name = 
REMARK  6 active torsions:
REMARK  status: ('A' for Active; 'I' for Inactive)
REMARK    1  A    between atoms: C_2  and  C_16
REMARK    2  A    between atoms: N_3  and  C_4
REMARK    3  A    between atoms: C_13  and  C_14
REMARK    4  A    between atoms: C_14  and  O_15
REMARK    5  A    between atoms: C_16  and  O_17
REMARK    6  A    between atoms: C_16  and  C_18
REMARK                            x       y       z     vdW  Elec       q    Type
REMARK                         _______ _______ _______ _____ _____    ______ ____
ROOT
ATOM      1  O   UNL     1       7.705   4.047  16.449  0.00  0.00    +0.000 OA
ATOM      2  C   UNL     1       6.710   4.694  16.125  0.00  0.00    +0.000 C 
ATOM      3  N   UNL     1       5.591   4.782  16.920  0.00  0.00    +0.000 N 
ATOM      4  H   UNL     1       4.903   5.485  16.660  0.00  0.00    +0.000 HD
ENDROOT
BRANCH   3   5
ATOM      5  C   UNL     1       5.457   4.100  18.200  0.00  0.00    +0.000 C 
ATOM      6  C   UNL     1       4.048   3.576  18.316  0.00  0.00    +0.000 A 
ATOM      7  C   UNL     1       3.670   2.401  17.645  0.00  0.00    +0.000 A 
ATOM      8  C   UNL     1       2.359   1.925  17.733  0.00  0.00    +0.000 A 
ATOM      9  C   UNL     1       1.415   2.618  18.485  0.00  0.00    +0.000 A 
ATOM     10  C   UNL     1       1.784   3.783  19.157  0.00  0.00    +0.000 A 
ATOM     11  C   UNL     1       3.093   4.262  19.072  0.00  0.00    +0.000 A 
ATOM     12  O   UNL     1       3.359   5.393  19.794  0.00  0.00    +0.000 OA
ATOM     13  C   UNL     1       4.625   6.012  19.548  0.00  0.00    +0.000 C 
ATOM     14  C   UNL     1       5.765   5.008  19.402  0.00  0.00    +0.000 C 
BRANCH  14  15
ATOM     15  C   UNL     1       7.114   5.721  19.337  0.00  0.00    +0.000 C 
BRANCH  15  16
ATOM     16  O   UNL     1       7.921   5.399  20.460  0.00  0.00    +0.000 OA
ATOM     17  H   UNL     1       7.948   4.420  20.534  0.00  0.00    +0.000 HD
ENDBRANCH  15  16
ENDBRANCH  14  15
ENDBRANCH   3   5
BRANCH   2  18
ATOM     18  C   UNL     1       6.591   5.472  14.793  0.00  0.00    +0.000 C 
BRANCH  18  19
ATOM     19  C   UNL     1       6.300   4.530  13.639  0.00  0.00    +0.000 A 
ATOM     20  C   UNL     1       7.327   4.154  12.764  0.00  0.00    +0.000 A 
ATOM     21  C   UNL     1       7.088   3.230  11.744  0.00  0.00    +0.000 A 
ATOM     22  C   UNL     1       5.818   2.679  11.584  0.00  0.00    +0.000 A 
ATOM     23  C   UNL     1       4.784   3.057  12.435  0.00  0.00    +0.000 A 
ATOM     24  C   UNL     1       5.021   3.976  13.458  0.00  0.00    +0.000 A 
ENDBRANCH  18  19
BRANCH  18  25
ATOM     25  O   UNL     1       5.589   6.490  14.888  0.00  0.00    +0.000 OA
ATOM     26  H   UNL     1       6.036   7.345  14.775  0.00  0.00    +0.000 HD
ENDBRANCH  18  25
ENDBRANCH   2  18
TORSDOF 6
ENDMDL
MODEL 5
REMARK VINA RESULT:      -6.7      2.826      6.782
REMARK  Name = 
REMARK  6 active torsions:
REMARK  status: ('A' for Active; 'I' for Inactive)
REMARK    1  A    between atoms: C_2  and  C_16
REMARK    2  A    between atoms: N_3  and  C_4
REMARK    3  A    between atoms: C_13  and  C_14
REMARK    4  A    between atoms: C_14  and  O_15
REMARK    5  A    between atoms: C_16  and  O_17
REMARK    6  A    between atoms: C_16  and  C_18
REMARK                            x       y       z     vdW  Elec       q    Type
REMARK                         _______ _______ _______ _____ _____    ______ ____
ROOT
ATOM      1  O   UNL     1       2.902   4.530  17.340  0.00  0.00    +0.000 OA
ATOM      2  C   UNL     1       3.909   3.825  17.362  0.00  0.00    +0.000 C 
ATOM      3  N   UNL     1       4.996   4.057  16.551  0.00  0.00    +0.000 N 
ATOM      4  H   UNL     1       5.847   3.545  16.773  0.00  0.00    +0.000 HD
ENDROOT
BRANCH   3   5
ATOM      5  C   UNL     1       5.053   5.134  15.571  0.00  0.00    +0.000 C 
ATOM      6  C   UNL     1       5.674   4.593  14.308  0.00  0.00    +0.000 A 
ATOM      7  C   UNL     1       4.912   3.817  13.418  0.00  0.00    +0.000 A 
ATOM      8  C   UNL     1       5.491   3.297  12.257  0.00  0.00    +0.000 A 
ATOM      9  C   UNL     1       6.832   3.543  11.976  0.00  0.00    +0.000 A 
ATOM     10  C   UNL     1       7.593   4.316  12.852  0.00  0.00    +0.000 A 
ATOM     11  C   UNL     1       7.019   4.838  14.014  0.00  0.00    +0.000 A 
ATOM     12  O   UNL     1       7.841   5.609  14.788  0.00  0.00    +0.000 OA
ATOM     13  C   UNL     1       7.336   5.968  16.077  0.00  0.00    +0.000 C 
ATOM     14  C   UNL     1       5.858   6.349  16.056  0.00  0.00    +0.000 C 
BRANCH  14  15
ATOM     15  C   UNL     1       5.421   6.908  17.409  0.00  0.00    +0.000 C 
BRANCH  15  16
ATOM     16  O   UNL     1       4.027   7.175  17.429  0.00  0.00    +0.000 OA
ATOM     17  H   UNL     1       3.705   7.137  16.501  0.00  0.00    +0.000 HD
ENDBRANCH  15  16
ENDBRANCH  14  15
ENDBRANCH   3   5
BRANCH   2  18
ATOM     18  C   UNL     1       4.074   2.595  18.287  0.00  0.00    +0.000 C 
BRANCH  18  19
ATOM     19  C   UNL     1       3.036   2.608  19.394  0.00  0.00    +0.000 A 
ATOM     20  C   UNL     1       3.437   2.732  20.731  0.00  0.00    +0.000 A 
ATOM     21  C   UNL     1       2.487   2.819  21.751  0.00  0.00    +0.000 A 
ATOM     22  C   UNL     1       1.129   2.774  21.447  0.00  0.00    +0.000 A 
ATOM     23  C   UNL     1       0.716   2.634  20.125  0.00  0.00    +0.000 A 
ATOM     24  C   UNL     1       1.662   2.551  19.103  0.00  0.00    +0.000 A 
ENDBRANCH  18  19
BRANCH  18  25
ATOM     25  O   UNL     1       4.005   1.380  17.533  0.00  0.00    +0.000 OA
ATOM     26  H   UNL     1       4.123   0.647  18.159  0.00  0.00    +0.000 HD
ENDBRANCH  18  25
ENDBRANCH   2  18
TORSDOF 6
ENDMDL
MODEL 6
REMARK VINA RESULT:      -6.7      0.871      1.329
REMARK  Name = 
REMARK  6 active torsions:
REMARK  status: ('A' for Active; 'I' for Inactive)
REMARK    1  A    between atoms: C_2  and  C_16
REMARK    2  A    between atoms: N_3  and  C_4
REMARK    3  A    between atoms: C_13  and  C_14
REMARK    4  A    between atoms: C_14  and  O_15
REMARK    5  A    between atoms: C_16  and  O_17
REMARK    6  A    between atoms: C_16  and  C_18
REMARK                            x       y       z     vdW  Elec       q    Type
REMARK                         _______ _______ _______ _____ _____    ______ ____
ROOT
ATOM      1  O   UNL     1       4.368   4.802  16.111  0.00  0.00    +0.000 OA
ATOM      2  C   UNL     1       4.786   4.672  17.261  0.00  0.00    +0.000 C 
ATOM      3  N   UNL     1       3.960   4.704  18.359  0.00  0.00    +0.000 N 
ATOM      4  H   UNL     1       4.365   4.400  19.242  0.00  0.00    +0.000 HD
ENDROOT
BRANCH   3   5
ATOM      5  C   UNL     1       2.522   4.923  18.279  0.00  0.00    +0.000 C 
ATOM      6  C   UNL     1       2.233   6.343  18.695  0.00  0.00    +0.000 A 
ATOM      7  C   UNL     1       2.450   7.404  17.799  0.00  0.00    +0.000 A 
ATOM      8  C   UNL     1       2.203   8.723  18.190  0.00  0.00    +0.000 A 
ATOM      9  C   UNL     1       1.744   8.995  19.475  0.00  0.00    +0.000 A 
ATOM     10  C   UNL     1       1.522   7.947  20.368  0.00  0.00    +0.000 A 
ATOM     11  C   UNL     1       1.767   6.627  19.982  0.00  0.00    +0.000 A 
ATOM     12  O   UNL     1       1.487   5.673  20.920  0.00  0.00    +0.000 OA
ATOM     13  C   UNL     1       1.932   4.347  20.620  0.00  0.00    +0.000 C 
ATOM     14  C   UNL     1       1.714   3.958  19.160  0.00  0.00    +0.000 C 
BRANCH  14  15
ATOM     15  C   UNL     1       2.022   2.478  18.939  0.00  0.00    +0.000 C 
BRANCH  15  16
ATOM     16  O   UNL     1       2.143   2.180  17.556  0.00  0.00    +0.000 OA
ATOM     17  H   UNL     1       3.091   2.272  17.315  0.00  0.00    +0.000 HD
ENDBRANCH  15  16
ENDBRANCH  14  15
ENDBRANCH   3   5
BRANCH   2  18
ATOM     18  C   UNL     1       6.280   4.470  17.611  0.00  0.00    +0.000 C 
BRANCH  18  19
ATOM     19  C   UNL     1       6.977   5.804  17.800  0.00  0.00    +0.000 A 
ATOM     20  C   UNL     1       6.690   6.874  16.942  0.00  0.00    +0.000 A 
ATOM     21  C   UNL     1       7.270   8.128  17.152  0.00  0.00    +0.000 A 
ATOM     22  C   UNL     1       8.149   8.322  18.216  0.00  0.00    +0.000 A 
ATOM     23  C   UNL     1       8.457   7.263  19.066  0.00  0.00    +0.000 A 
ATOM     24  C   UNL     1       7.876   6.011  18.861  0.00  0.00    +0.000 A 
ENDBRANCH  18  19
BRANCH  18  25
ATOM     25  O   UNL     1       6.421   3.648  18.774  0.00  0.00    +0.000 OA
ATOM     26  H   UNL     1       5.616   3.762  19.306  0.00  0.00    +0.000 HD
ENDBRANCH  18  25
ENDBRANCH   2  18
TORSDOF 6
ENDMDL
MODEL 7
REMARK VINA RESULT:      -6.5      2.619      6.667
REMARK  Name = 
REMARK  6 active torsions:
REMARK  status: ('A' for Active; 'I' for Inactive)
REMARK    1  A    between atoms: C_2  and  C_16
REMARK    2  A    between atoms: N_3  and  C_4
REMARK    3  A    between atoms: C_13  and  C_14
REMARK    4  A    between atoms: C_14  and  O_15
REMARK    5  A    between atoms: C_16  and  O_17
REMARK    6  A    between atoms: C_16  and  C_18
REMARK                            x       y       z     vdW  Elec       q    Type
REMARK                         _______ _______ _______ _____ _____    ______ ____
ROOT
ATOM      1  O   UNL     1       2.710   3.553  16.392  0.00  0.00    +0.000 OA
ATOM      2  C   UNL     1       3.727   3.429  17.072  0.00  0.00    +0.000 C 
ATOM      3  N   UNL     1       4.826   4.242  16.921  0.00  0.00    +0.000 N 
ATOM      4  H   UNL     1       5.535   4.189  17.649  0.00  0.00    +0.000 HD
ENDROOT
BRANCH   3   5
ATOM      5  C   UNL     1       4.910   5.305  15.928  0.00  0.00    +0.000 C 
ATOM      6  C   UNL     1       5.658   4.777  14.730  0.00  0.00    +0.000 A 
ATOM      7  C   UNL     1       5.012   3.949  13.797  0.00  0.00    +0.000 A 
ATOM      8  C   UNL     1       5.710   3.441  12.697  0.00  0.00    +0.000 A 
ATOM      9  C   UNL     1       7.055   3.751  12.522  0.00  0.00    +0.000 A 
ATOM     10  C   UNL     1       7.702   4.576  13.441  0.00  0.00    +0.000 A 
ATOM     11  C   UNL     1       7.009   5.086  14.542  0.00  0.00    +0.000 A 
ATOM     12  O   UNL     1       7.725   5.910  15.365  0.00  0.00    +0.000 OA
ATOM     13  C   UNL     1       7.098   6.263  16.601  0.00  0.00    +0.000 C 
ATOM     14  C   UNL     1       5.610   6.567  16.453  0.00  0.00    +0.000 C 
BRANCH  14  15
ATOM     15  C   UNL     1       5.036   7.124  17.754  0.00  0.00    +0.000 C 
BRANCH  15  16
ATOM     16  O   UNL     1       3.641   6.877  17.847  0.00  0.00    +0.000 OA
ATOM     17  H   UNL     1       3.410   6.835  18.801  0.00  0.00    +0.000 HD
ENDBRANCH  15  16
ENDBRANCH  14  15
ENDBRANCH   3   5
BRANCH   2  18
ATOM     18  C   UNL     1       3.899   2.347  18.166  0.00  0.00    +0.000 C 
BRANCH  18  19
ATOM     19  C   UNL     1       2.957   2.598  19.329  0.00  0.00    +0.000 A 
ATOM     20  C   UNL     1       1.606   2.883  19.089  0.00  0.00    +0.000 A 
ATOM     21  C   UNL     1       0.715   3.043  20.153  0.00  0.00    +0.000 A 
ATOM     22  C   UNL     1       1.166   2.928  21.466  0.00  0.00    +0.000 A 
ATOM     23  C   UNL     1       2.509   2.663  21.719  0.00  0.00    +0.000 A 
ATOM     24  C   UNL     1       3.401   2.498  20.658  0.00  0.00    +0.000 A 
ENDBRANCH  18  19
BRANCH  18  25
ATOM     25  O   UNL     1       3.702   1.038  17.620  0.00  0.00    +0.000 OA
ATOM     26  H   UNL     1       2.794   1.005  17.274  0.00  0.00    +0.000 HD
ENDBRANCH  18  25
ENDBRANCH   2  18
TORSDOF 6
ENDMDL
MODEL 8
REMARK VINA RESULT:      -6.4      2.459      6.029
REMARK  Name = 
REMARK  6 active torsions:
REMARK  status: ('A' for Active; 'I' for Inactive)
REMARK    1  A    between atoms: C_2  and  C_16
REMARK    2  A    between atoms: N_3  and  C_4
REMARK    3  A    between atoms: C_13  and  C_14
REMARK    4  A    between atoms: C_14  and  O_15
REMARK    5  A    between atoms: C_16  and  O_17
REMARK    6  A    between atoms: C_16  and  C_18
REMARK                            x       y       z     vdW  Elec       q    Type
REMARK                         _______ _______ _______ _____ _____    ______ ____
ROOT
ATOM      1  O   UNL     1       1.720   8.093  17.495  0.00  0.00    +0.000 OA
ATOM      2  C   UNL     1       2.151   7.871  18.625  0.00  0.00    +0.000 C 
ATOM      3  N   UNL     1       2.980   6.810  18.908  0.00  0.00    +0.000 N 
ATOM      4  H   UNL     1       3.434   6.818  19.818  0.00  0.00    +0.000 HD
ENDROOT
BRANCH   3   5
ATOM      5  C   UNL     1       3.405   5.834  17.914  0.00  0.00    +0.000 C 
ATOM      6  C   UNL     1       2.910   4.475  18.341  0.00  0.00    +0.000 A 
ATOM      7  C   UNL     1       1.568   4.110  18.134  0.00  0.00    +0.000 A 
ATOM      8  C   UNL     1       1.102   2.860  18.548  0.00  0.00    +0.000 A 
ATOM      9  C   UNL     1       1.966   1.966  19.175  0.00  0.00    +0.000 A 
ATOM     10  C   UNL     1       3.299   2.320  19.380  0.00  0.00    +0.000 A 
ATOM     11  C   UNL     1       3.769   3.568  18.967  0.00  0.00    +0.000 A 
ATOM     12  O   UNL     1       5.099   3.803  19.186  0.00  0.00    +0.000 OA
ATOM     13  C   UNL     1       5.544   5.145  18.968  0.00  0.00    +0.000 C 
ATOM     14  C   UNL     1       4.929   5.786  17.727  0.00  0.00    +0.000 C 
BRANCH  14  15
ATOM     15  C   UNL     1       5.580   7.136  17.433  0.00  0.00    +0.000 C 
BRANCH  15  16
ATOM     16  O   UNL     1       6.773   6.978  16.679  0.00  0.00    +0.000 OA
ATOM     17  H   UNL     1       7.504   6.811  17.313  0.00  0.00    +0.000 HD
ENDBRANCH  15  16
ENDBRANCH  14  15
ENDBRANCH   3   5
BRANCH   2  18
ATOM     18  C   UNL     1       1.809   8.740  19.859  0.00  0.00    +0.000 C 
BRANCH  18  19
ATOM     19  C   UNL     1       0.938   9.919  19.465  0.00  0.00    +0.000 A 
ATOM     20  C   UNL     1      -0.449   9.860  19.655  0.00  0.00    +0.000 A 
ATOM     21  C   UNL     1      -1.252  10.966  19.366  0.00  0.00    +0.000 A 
ATOM     22  C   UNL     1      -0.679  12.138  18.877  0.00  0.00    +0.000 A 
ATOM     23  C   UNL     1       0.696  12.204  18.668  0.00  0.00    +0.000 A 
ATOM     24  C   UNL     1       1.501  11.103  18.959  0.00  0.00    +0.000 A 
ENDBRANCH  18  19
BRANCH  18  25
ATOM     25  O   UNL     1       1.180   7.954  20.875  0.00  0.00    +0.000 OA
ATOM     26  H   UNL     1       0.266   7.791  20.587  0.00  0.00    +0.000 HD
ENDBRANCH  18  25
ENDBRANCH   2  18
TORSDOF 6
ENDMDL
MODEL 9
REMARK VINA RESULT:      -6.4      2.470      6.040
REMARK  Name = 
REMARK  6 active torsions:
REMARK  status: ('A' for Active; 'I' for Inactive)
REMARK    1  A    between atoms: C_2  and  C_16
REMARK    2  A    between atoms: N_3  and  C_4
REMARK    3  A    between atoms: C_13  and  C_14
REMARK    4  A    between atoms: C_14  and  O_15
REMARK    5  A    between atoms: C_16  and  O_17
REMARK    6  A    between atoms: C_16  and  C_18
REMARK                            x       y       z     vdW  Elec       q    Type
REMARK                         _______ _______ _______ _____ _____    ______ ____
ROOT
ATOM      1  O   UNL     1       1.783   8.192  17.522  0.00  0.00    +0.000 OA
ATOM      2  C   UNL     1       2.142   7.906  18.663  0.00  0.00    +0.000 C 
ATOM      3  N   UNL     1       2.900   6.794  18.946  0.00  0.00    +0.000 N 
ATOM      4  H   UNL     1       3.305   6.745  19.878  0.00  0.00    +0.000 HD
ENDROOT
BRANCH   3   5
ATOM      5  C   UNL     1       3.326   5.833  17.937  0.00  0.00    +0.000 C 
ATOM      6  C   UNL     1       2.862   4.462  18.362  0.00  0.00    +0.000 A 
ATOM      7  C   UNL     1       1.525   4.075  18.174  0.00  0.00    +0.000 A 
ATOM      8  C   UNL     1       1.088   2.813  18.586  0.00  0.00    +0.000 A 
ATOM      9  C   UNL     1       1.978   1.930  19.191  0.00  0.00    +0.000 A 
ATOM     10  C   UNL     1       3.307   2.306  19.377  0.00  0.00    +0.000 A 
ATOM     11  C   UNL     1       3.749   3.567  18.967  0.00  0.00    +0.000 A 
ATOM     12  O   UNL     1       5.077   3.824  19.165  0.00  0.00    +0.000 OA
ATOM     13  C   UNL     1       5.494   5.175  18.951  0.00  0.00    +0.000 C 
ATOM     14  C   UNL     1       4.848   5.815  17.725  0.00  0.00    +0.000 C 
BRANCH  14  15
ATOM     15  C   UNL     1       5.469   7.179  17.431  0.00  0.00    +0.000 C 
BRANCH  15  16
ATOM     16  O   UNL     1       6.706   7.043  16.748  0.00  0.00    +0.000 OA
ATOM     17  H   UNL     1       7.370   6.725  17.398  0.00  0.00    +0.000 HD
ENDBRANCH  15  16
ENDBRANCH  14  15
ENDBRANCH   3   5
BRANCH   2  18
ATOM     18  C   UNL     1       1.781   8.748  19.911  0.00  0.00    +0.000 C 
BRANCH  18  19
ATOM     19  C   UNL     1       0.894   9.920  19.535  0.00  0.00    +0.000 A 
ATOM     20  C   UNL     1       1.467  11.125  19.107  0.00  0.00    +0.000 A 
ATOM     21  C   UNL     1       0.659  12.185  18.688  0.00  0.00    +0.000 A 
ATOM     22  C   UNL     1      -0.728  12.055  18.702  0.00  0.00    +0.000 A 
ATOM     23  C   UNL     1      -1.311  10.870  19.141  0.00  0.00    +0.000 A 
ATOM     24  C   UNL     1      -0.507   9.808  19.556  0.00  0.00    +0.000 A 
ENDBRANCH  18  19
BRANCH  18  25
ATOM     25  O   UNL     1       1.158   7.933  20.909  0.00  0.00    +0.000 OA
ATOM     26  H   UNL     1       1.434   8.278  21.775  0.00  0.00    +0.000 HD
ENDBRANCH  18  25
ENDBRANCH   2  18
TORSDOF 6
ENDMDL
