MODEL 1
REMARK VINA RESULT:      -7.3      0.000      0.000
REMARK  Name = 
REMARK  8 active torsions:
REMARK  status: ('A' for Active; 'I' for Inactive)
REMARK    1  A    between atoms: C_1  and  C_2
REMARK    2  A    between atoms: C_2  and  C_3
REMARK    3  A    between atoms: C_5  and  C_6
REMARK    4  A    between atoms: C_8  and  C_9
REMARK    5  A    between atoms: C_9  and  N_10
REMARK    6  A    between atoms: N_10  and  C_11
REMARK    7  A    between atoms: N_14  and  C_15
REMARK    8  A    between atoms: C_18  and  C_19
REMARK                            x       y       z     vdW  Elec       q    Type
REMARK                         _______ _______ _______ _____ _____    ______ ____
ROOT
ATOM      1  C   UNL     1       2.880   5.637  19.199  0.00  0.00    +0.000 C 
ATOM      2  C   UNL     1       2.659   6.545  17.970  0.00  0.00    +0.000 C 
ATOM      3  C   UNL     1       2.694   8.036  18.315  0.00  0.00    +0.000 C 
ATOM      4  N   UNL     1       1.783   8.313  19.427  0.00  0.00    +0.000 N 
ATOM      5  C   UNL     1       2.034   7.546  20.646  0.00  0.00    +0.000 C 
ATOM      6  C   UNL     1       1.910   6.061  20.314  0.00  0.00    +0.000 C 
ENDROOT
BRANCH   4   7
ATOM      7  C   UNL     1       0.782   9.263  19.365  0.00  0.00    +0.000 A 
ATOM      8  C   UNL     1       0.162   9.610  18.156  0.00  0.00    +0.000 A 
ATOM      9  C   UNL     1      -0.896  10.531  18.101  0.00  0.00    +0.000 A 
ATOM     10  C   UNL     1      -1.367  11.142  19.263  0.00  0.00    +0.000 A 
ATOM     11  C   UNL     1      -2.513  12.106  19.229  0.00  0.00    +0.000 C 
ATOM     12  C   UNL     1      -0.747  10.834  20.473  0.00  0.00    +0.000 A 
ATOM     13  C   UNL     1       0.307   9.912  20.515  0.00  0.00    +0.000 A 
ENDBRANCH   4   7
BRANCH   1  14
ATOM     14  N   UNL     1       4.301   5.652  19.608  0.00  0.00    +0.000 NA
ATOM     15  H   UNL     1       4.759   6.453  19.169  0.00  0.00    +0.000 HD
BRANCH  14  16
ATOM     16  C   UNL     1       5.018   4.441  19.191  0.00  0.00    +0.000 C 
BRANCH  16  22
ATOM     17  C   UNL     1       6.880   5.382  17.620  0.00  0.00    +0.000 A 
ATOM     18  N   UNL     1       7.298   5.335  16.299  0.00  0.00    +0.000 NA
ATOM     19  C   UNL     1       6.469   4.606  15.586  0.00  0.00    +0.000 A 
ATOM     20  C   UNL     1       6.593   4.378  14.122  0.00  0.00    +0.000 C 
ATOM     21  S   UNL     1       5.160   3.916  16.453  0.00  0.00    +0.000 S 
ATOM     22  C   UNL     1       5.731   4.654  17.894  0.00  0.00    +0.000 A 
BRANCH  17  24
ATOM     23  C   UNL     1       7.967   7.592  18.047  0.00  0.00    +0.000 C 
ATOM     24  C   UNL     1       7.682   6.199  18.585  0.00  0.00    +0.000 C 
ENDBRANCH  17  24
ENDBRANCH  16  22
ENDBRANCH  14  16
ENDBRANCH   1  14
TORSDOF 5
ENDMDL
MODEL 2
REMARK VINA RESULT:      -7.3      1.566      2.817
REMARK  Name = 
REMARK  8 active torsions:
REMARK  status: ('A' for Active; 'I' for Inactive)
REMARK    1  A    between atoms: C_1  and  C_2
REMARK    2  A    between atoms: C_2  and  C_3
REMARK    3  A    between atoms: C_5  and  C_6
REMARK    4  A    between atoms: C_8  and  C_9
REMARK    5  A    between atoms: C_9  and  N_10
REMARK    6  A    between atoms: N_10  and  C_11
REMARK    7  A    between atoms: N_14  and  C_15
REMARK    8  A    between atoms: C_18  and  C_19
REMARK                            x       y       z     vdW  Elec       q    Type
REMARK                         _______ _______ _______ _____ _____    ______ ____
ROOT
ATOM      1  C   UNL     1       2.167   4.248  18.729  0.00  0.00    +0.000 C 
ATOM      2  C   UNL     1       2.154   5.533  17.873  0.00  0.00    +0.000 C 
ATOM      3  C   UNL     1       2.738   6.744  18.605  0.00  0.00    +0.000 C 
ATOM      4  N   UNL     1       2.092   6.896  19.911  0.00  0.00    +0.000 N 
ATOM      5  C   UNL     1       2.180   5.732  20.790  0.00  0.00    +0.000 C 
ATOM      6  C   UNL     1       1.518   4.549  20.089  0.00  0.00    +0.000 C 
ENDROOT
BRANCH   4   7
ATOM      7  C   UNL     1       1.481   8.066  20.320  0.00  0.00    +0.000 A 
ATOM      8  C   UNL     1       1.068   8.264  21.645  0.00  0.00    +0.000 A 
ATOM      9  C   UNL     1       0.503   9.474  22.075  0.00  0.00    +0.000 A 
ATOM     10  C   UNL     1       0.326  10.531  21.183  0.00  0.00    +0.000 A 
ATOM     11  C   UNL     1      -0.250  11.842  21.627  0.00  0.00    +0.000 C 
ATOM     12  C   UNL     1       0.703  10.348  19.853  0.00  0.00    +0.000 A 
ATOM     13  C   UNL     1       1.268   9.136  19.437  0.00  0.00    +0.000 A 
ENDBRANCH   4   7
BRANCH   1  14
ATOM     14  N   UNL     1       3.538   3.704  18.830  0.00  0.00    +0.000 NA
ATOM     15  H   UNL     1       4.095   4.326  19.418  0.00  0.00    +0.000 HD
BRANCH  14  16
ATOM     16  C   UNL     1       4.201   3.606  17.524  0.00  0.00    +0.000 C 
BRANCH  16  22
ATOM     17  C   UNL     1       5.811   5.229  16.261  0.00  0.00    +0.000 A 
ATOM     18  N   UNL     1       6.805   6.164  16.505  0.00  0.00    +0.000 NA
ATOM     19  C   UNL     1       7.050   6.240  17.794  0.00  0.00    +0.000 A 
ATOM     20  C   UNL     1       8.087   7.114  18.404  0.00  0.00    +0.000 C 
ATOM     21  S   UNL     1       6.093   5.222  18.789  0.00  0.00    +0.000 S 
ATOM     22  C   UNL     1       5.294   4.619  17.395  0.00  0.00    +0.000 A 
BRANCH  17  24
ATOM     23  C   UNL     1       6.359   3.995  14.158  0.00  0.00    +0.000 C 
ATOM     24  C   UNL     1       5.417   4.974  14.840  0.00  0.00    +0.000 C 
ENDBRANCH  17  24
ENDBRANCH  16  22
ENDBRANCH  14  16
ENDBRANCH   1  14
TORSDOF 5
ENDMDL
MODEL 3
REMARK VINA RESULT:      -7.3      1.585      2.640
REMARK  Name = 
REMARK  8 active torsions:
REMARK  status: ('A' for Active; 'I' for Inactive)
REMARK    1  A    between atoms: C_1  and  C_2
REMARK    2  A    between atoms: C_2  and  C_3
REMARK    3  A    between atoms: C_5  and  C_6
REMARK    4  A    between atoms: C_8  and  C_9
REMARK    5  A    between atoms: C_9  and  N_10
REMARK    6  A    between atoms: N_10  and  C_11
REMARK    7  A    between atoms: N_14  and  C_15
REMARK    8  A    between atoms: C_18  and  C_19
REMARK                            x       y       z     vdW  Elec       q    Type
REMARK                         _______ _______ _______ _____ _____    ______ ____
ROOT
ATOM      1  C   UNL     1       1.870   4.098  18.777  0.00  0.00    +0.000 C 
ATOM      2  C   UNL     1       1.879   5.336  17.855  0.00  0.00    +0.000 C 
ATOM      3  C   UNL     1       2.593   6.539  18.477  0.00  0.00    +0.000 C 
ATOM      4  N   UNL     1       2.056   6.801  19.814  0.00  0.00    +0.000 N 
ATOM      5  C   UNL     1       2.131   5.679  20.748  0.00  0.00    +0.000 C 
ATOM      6  C   UNL     1       1.343   4.511  20.161  0.00  0.00    +0.000 C 
ENDROOT
BRANCH   4   7
ATOM      7  C   UNL     1       1.554   8.029  20.200  0.00  0.00    +0.000 A 
ATOM      8  C   UNL     1       1.383   9.080  19.288  0.00  0.00    +0.000 A 
ATOM      9  C   UNL     1       0.817  10.307  19.666  0.00  0.00    +0.000 A 
ATOM     10  C   UNL     1       0.408  10.525  20.981  0.00  0.00    +0.000 A 
ATOM     11  C   UNL     1      -0.224  11.818  21.399  0.00  0.00    +0.000 C 
ATOM     12  C   UNL     1       0.594   9.505  21.912  0.00  0.00    +0.000 A 
ATOM     13  C   UNL     1       1.159   8.283  21.522  0.00  0.00    +0.000 A 
ENDBRANCH   4   7
BRANCH   1  14
ATOM     14  N   UNL     1       3.206   3.465  18.812  0.00  0.00    +0.000 NA
ATOM     15  H   UNL     1       3.794   3.977  19.472  0.00  0.00    +0.000 HD
BRANCH  14  16
ATOM     16  C   UNL     1       3.873   3.489  17.505  0.00  0.00    +0.000 C 
BRANCH  16  22
ATOM     17  C   UNL     1       6.192   4.306  16.625  0.00  0.00    +0.000 A 
ATOM     18  N   UNL     1       7.300   5.036  17.028  0.00  0.00    +0.000 NA
ATOM     19  C   UNL     1       7.161   5.418  18.278  0.00  0.00    +0.000 A 
ATOM     20  C   UNL     1       8.180   6.185  19.042  0.00  0.00    +0.000 C 
ATOM     21  S   UNL     1       5.694   4.951  19.035  0.00  0.00    +0.000 S 
ATOM     22  C   UNL     1       5.204   4.166  17.589  0.00  0.00    +0.000 A 
BRANCH  17  24
ATOM     23  C   UNL     1       6.645   4.779  14.213  0.00  0.00    +0.000 C 
ATOM     24  C   UNL     1       6.181   3.753  15.234  0.00  0.00    +0.000 C 
ENDBRANCH  17  24
ENDBRANCH  16  22
ENDBRANCH  14  16
ENDBRANCH   1  14
TORSDOF 5
ENDMDL
MODEL 4
REMARK VINA RESULT:      -7.3      1.503      2.197
REMARK  Name = 
REMARK  8 active torsions:
REMARK  status: ('A' for Active; 'I' for Inactive)
REMARK    1  A    between atoms: C_1  and  C_2
REMARK    2  A    between atoms: C_2  and  C_3
REMARK    3  A    between atoms: C_5  and  C_6
REMARK    4  A    between atoms: C_8  and  C_9
REMARK    5  A    between atoms: C_9  and  N_10
REMARK    6  A    between atoms: N_10  and  C_11
REMARK    7  A    between atoms: N_14  and  C_15
REMARK    8  A    between atoms: C_18  and  C_19
REMARK                            x       y       z     vdW  Elec       q    Type
REMARK                         _______ _______ _______ _____ _____    ______ ____
ROOT
ATOM      1  C   UNL     1       4.173   6.045  18.221  0.00  0.00    +0.000 C 
ATOM      2  C   UNL     1       3.652   5.760  19.646  0.00  0.00    +0.000 C 
ATOM      3  C   UNL     1       2.172   6.110  19.824  0.00  0.00    +0.000 C 
ATOM      4  N   UNL     1       1.926   7.479  19.367  0.00  0.00    +0.000 N 
ATOM      5  C   UNL     1       2.309   7.754  17.983  0.00  0.00    +0.000 C 
ATOM      6  C   UNL     1       3.804   7.487  17.835  0.00  0.00    +0.000 C 
ENDROOT
BRANCH   4   7
ATOM      7  C   UNL     1       1.330   8.443  20.156  0.00  0.00    +0.000 A 
ATOM      8  C   UNL     1       0.791   9.618  19.613  0.00  0.00    +0.000 A 
ATOM      9  C   UNL     1       0.131  10.569  20.407  0.00  0.00    +0.000 A 
ATOM     10  C   UNL     1      -0.006  10.375  21.781  0.00  0.00    +0.000 A 
ATOM     11  C   UNL     1      -0.731  11.364  22.642  0.00  0.00    +0.000 C 
ATOM     12  C   UNL     1       0.546   9.228  22.348  0.00  0.00    +0.000 A 
ATOM     13  C   UNL     1       1.201   8.285  21.545  0.00  0.00    +0.000 A 
ENDBRANCH   4   7
BRANCH   1  14
ATOM     14  N   UNL     1       3.674   5.028  17.272  0.00  0.00    +0.000 NA
ATOM     15  H   UNL     1       2.846   4.583  17.673  0.00  0.00    +0.000 HD
BRANCH  14  16
ATOM     16  C   UNL     1       4.662   3.977  17.005  0.00  0.00    +0.000 C 
BRANCH  16  22
ATOM     17  C   UNL     1       6.876   5.148  16.263  0.00  0.00    +0.000 A 
ATOM     18  N   UNL     1       7.640   5.388  15.132  0.00  0.00    +0.000 NA
ATOM     19  C   UNL     1       7.042   4.897  14.069  0.00  0.00    +0.000 A 
ATOM     20  C   UNL     1       7.564   5.011  12.681  0.00  0.00    +0.000 C 
ATOM     21  S   UNL     1       5.551   4.101  14.361  0.00  0.00    +0.000 S 
ATOM     22  C   UNL     1       5.701   4.445  16.036  0.00  0.00    +0.000 A 
BRANCH  17  24
ATOM     23  C   UNL     1       7.593   7.171  17.544  0.00  0.00    +0.000 C 
ATOM     24  C   UNL     1       7.377   5.666  17.575  0.00  0.00    +0.000 C 
ENDBRANCH  17  24
ENDBRANCH  16  22
ENDBRANCH  14  16
ENDBRANCH   1  14
TORSDOF 5
ENDMDL
MODEL 5
REMARK VINA RESULT:      -7.3      0.252      1.024
REMARK  Name = 
REMARK  8 active torsions:
REMARK  status: ('A' for Active; 'I' for Inactive)
REMARK    1  A    between atoms: C_1  and  C_2
REMARK    2  A    between atoms: C_2  and  C_3
REMARK    3  A    between atoms: C_5  and  C_6
REMARK    4  A    between atoms: C_8  and  C_9
REMARK    5  A    between atoms: C_9  and  N_10
REMARK    6  A    between atoms: N_10  and  C_11
REMARK    7  A    between atoms: N_14  and  C_15
REMARK    8  A    between atoms: C_18  and  C_19
REMARK                            x       y       z     vdW  Elec       q    Type
REMARK                         _______ _______ _______ _____ _____    ______ ____
ROOT
ATOM      1  C   UNL     1       2.950   5.620  19.029  0.00  0.00    +0.000 C 
ATOM      2  C   UNL     1       2.679   6.573  17.846  0.00  0.00    +0.000 C 
ATOM      3  C   UNL     1       2.696   8.049  18.250  0.00  0.00    +0.000 C 
ATOM      4  N   UNL     1       1.811   8.262  19.397  0.00  0.00    +0.000 N 
ATOM      5  C   UNL     1       2.109   7.451  20.576  0.00  0.00    +0.000 C 
ATOM      6  C   UNL     1       2.004   5.979  20.186  0.00  0.00    +0.000 C 
ENDROOT
BRANCH   4   7
ATOM      7  C   UNL     1       0.791   9.195  19.401  0.00  0.00    +0.000 A 
ATOM      8  C   UNL     1       0.271   9.720  20.592  0.00  0.00    +0.000 A 
ATOM      9  C   UNL     1      -0.722  10.712  20.596  0.00  0.00    +0.000 A 
ATOM     10  C   UNL     1      -1.234  11.208  19.398  0.00  0.00    +0.000 A 
ATOM     11  C   UNL     1      -2.274  12.287  19.379  0.00  0.00    +0.000 C 
ATOM     12  C   UNL     1      -0.752  10.681  18.201  0.00  0.00    +0.000 A 
ATOM     13  C   UNL     1       0.241   9.693  18.211  0.00  0.00    +0.000 A 
ENDBRANCH   4   7
BRANCH   1  14
ATOM     14  N   UNL     1       4.381   5.646  19.400  0.00  0.00    +0.000 NA
ATOM     15  H   UNL     1       4.813   6.471  18.980  0.00  0.00    +0.000 HD
BRANCH  14  16
ATOM     16  C   UNL     1       5.107   4.465  18.919  0.00  0.00    +0.000 C 
BRANCH  16  22
ATOM     17  C   UNL     1       6.893   5.582  17.376  0.00  0.00    +0.000 A 
ATOM     18  N   UNL     1       7.330   5.583  16.060  0.00  0.00    +0.000 NA
ATOM     19  C   UNL     1       6.578   4.786  15.333  0.00  0.00    +0.000 A 
ATOM     20  C   UNL     1       6.740   4.581  13.869  0.00  0.00    +0.000 C 
ATOM     21  S   UNL     1       5.328   3.973  16.180  0.00  0.00    +0.000 S 
ATOM     22  C   UNL     1       5.813   4.750  17.632  0.00  0.00    +0.000 A 
BRANCH  17  24
ATOM     23  C   UNL     1       7.843   7.856  17.796  0.00  0.00    +0.000 C 
ATOM     24  C   UNL     1       7.606   6.462  18.355  0.00  0.00    +0.000 C 
ENDBRANCH  17  24
ENDBRANCH  16  22
ENDBRANCH  14  16
ENDBRANCH   1  14
TORSDOF 5
ENDMDL
MODEL 6
REMARK VINA RESULT:      -7.0      1.350      1.876
REMARK  Name = 
REMARK  8 active torsions:
REMARK  status: ('A' for Active; 'I' for Inactive)
REMARK    1  A    between atoms: C_1  and  C_2
REMARK    2  A    between atoms: C_2  and  C_3
REMARK    3  A    between atoms: C_5  and  C_6
REMARK    4  A    between atoms: C_8  and  C_9
REMARK    5  A    between atoms: C_9  and  N_10
REMARK    6  A    between atoms: N_10  and  C_11
REMARK    7  A    between atoms: N_14  and  C_15
REMARK    8  A    between atoms: C_18  and  C_19
REMARK                            x       y       z     vdW  Elec       q    Type
REMARK                         _______ _______ _______ _____ _____    ______ ____
ROOT
ATOM      1  C   UNL     1       3.123   3.739  19.018  0.00  0.00    +0.000 C 
ATOM      2  C   UNL     1       1.878   4.303  18.301  0.00  0.00    +0.000 C 
ATOM      3  C   UNL     1       2.094   5.716  17.750  0.00  0.00    +0.000 C 
ATOM      4  N   UNL     1       2.616   6.587  18.806  0.00  0.00    +0.000 N 
ATOM      5  C   UNL     1       3.857   6.135  19.432  0.00  0.00    +0.000 C 
ATOM      6  C   UNL     1       3.609   4.764  20.055  0.00  0.00    +0.000 C 
ENDROOT
BRANCH   4   7
ATOM      7  C   UNL     1       2.020   7.781  19.163  0.00  0.00    +0.000 A 
ATOM      8  C   UNL     1       1.786   8.802  18.231  0.00  0.00    +0.000 A 
ATOM      9  C   UNL     1       1.125   9.990  18.580  0.00  0.00    +0.000 A 
ATOM     10  C   UNL     1       0.679  10.197  19.885  0.00  0.00    +0.000 A 
ATOM     11  C   UNL     1      -0.053  11.446  20.272  0.00  0.00    +0.000 C 
ATOM     12  C   UNL     1       0.926   9.208  20.836  0.00  0.00    +0.000 A 
ATOM     13  C   UNL     1       1.585   8.026  20.475  0.00  0.00    +0.000 A 
ENDBRANCH   4   7
BRANCH   1  14
ATOM     14  N   UNL     1       4.157   3.349  18.035  0.00  0.00    +0.000 NA
ATOM     15  H   UNL     1       4.236   2.330  18.029  0.00  0.00    +0.000 HD
BRANCH  14  16
ATOM     16  C   UNL     1       5.478   3.900  18.361  0.00  0.00    +0.000 C 
BRANCH  16  22
ATOM     17  C   UNL     1       7.020   5.535  17.031  0.00  0.00    +0.000 A 
ATOM     18  N   UNL     1       7.486   5.768  15.746  0.00  0.00    +0.000 NA
ATOM     19  C   UNL     1       6.954   4.908  14.907  0.00  0.00    +0.000 A 
ATOM     20  C   UNL     1       7.203   4.898  13.441  0.00  0.00    +0.000 C 
ATOM     21  S   UNL     1       5.888   3.759  15.603  0.00  0.00    +0.000 S 
ATOM     22  C   UNL     1       6.143   4.466  17.147  0.00  0.00    +0.000 A 
BRANCH  17  24
ATOM     23  C   UNL     1       7.739   7.854  17.625  0.00  0.00    +0.000 C 
ATOM     24  C   UNL     1       7.489   6.440  18.126  0.00  0.00    +0.000 C 
ENDBRANCH  17  24
ENDBRANCH  16  22
ENDBRANCH  14  16
ENDBRANCH   1  14
TORSDOF 5
ENDMDL
MODEL 7
REMARK VINA RESULT:      -6.8      1.339      2.062
REMARK  Name = 
REMARK  8 active torsions:
REMARK  status: ('A' for Active; 'I' for Inactive)
REMARK    1  A    between atoms: C_1  and  C_2
REMARK    2  A    between atoms: C_2  and  C_3
REMARK    3  A    between atoms: C_5  and  C_6
REMARK    4  A    between atoms: C_8  and  C_9
REMARK    5  A    between atoms: C_9  and  N_10
REMARK    6  A    between atoms: N_10  and  C_11
REMARK    7  A    between atoms: N_14  and  C_15
REMARK    8  A    between atoms: C_18  and  C_19
REMARK                            x       y       z     vdW  Elec       q    Type
REMARK                         _______ _______ _______ _____ _____    ______ ____
ROOT
ATOM      1  C   UNL     1       2.652   3.591  19.212  0.00  0.00    +0.000 C 
ATOM      2  C   UNL     1       1.747   4.259  18.155  0.00  0.00    +0.000 C 
ATOM      3  C   UNL     1       2.259   5.632  17.712  0.00  0.00    +0.000 C 
ATOM      4  N   UNL     1       2.517   6.470  18.885  0.00  0.00    +0.000 N 
ATOM      5  C   UNL     1       3.457   5.912  19.856  0.00  0.00    +0.000 C 
ATOM      6  C   UNL     1       2.897   4.585  20.359  0.00  0.00    +0.000 C 
ENDROOT
BRANCH   4   7
ATOM      7  C   UNL     1       1.961   7.723  19.056  0.00  0.00    +0.000 A 
ATOM      8  C   UNL     1       1.507   8.170  20.304  0.00  0.00    +0.000 A 
ATOM      9  C   UNL     1       0.998   9.464  20.491  0.00  0.00    +0.000 A 
ATOM     10  C   UNL     1       0.921  10.357  19.423  0.00  0.00    +0.000 A 
ATOM     11  C   UNL     1       0.407  11.753  19.607  0.00  0.00    +0.000 C 
ATOM     12  C   UNL     1       1.340   9.927  18.166  0.00  0.00    +0.000 A 
ATOM     13  C   UNL     1       1.848   8.632  17.993  0.00  0.00    +0.000 A 
ENDBRANCH   4   7
BRANCH   1  14
ATOM     14  N   UNL     1       3.892   3.083  18.588  0.00  0.00    +0.000 NA
ATOM     15  H   UNL     1       4.063   2.133  18.924  0.00  0.00    +0.000 HD
BRANCH  14  16
ATOM     16  C   UNL     1       5.065   3.897  18.926  0.00  0.00    +0.000 C 
BRANCH  16  22
ATOM     17  C   UNL     1       7.045   4.941  17.579  0.00  0.00    +0.000 A 
ATOM     18  N   UNL     1       7.501   5.091  16.279  0.00  0.00    +0.000 NA
ATOM     19  C   UNL     1       6.640   4.569  15.433  0.00  0.00    +0.000 A 
ATOM     20  C   UNL     1       6.794   4.590  13.955  0.00  0.00    +0.000 C 
ATOM     21  S   UNL     1       5.254   3.848  16.141  0.00  0.00    +0.000 S 
ATOM     22  C   UNL     1       5.834   4.274  17.699  0.00  0.00    +0.000 A 
BRANCH  17  24
ATOM     23  C   UNL     1       8.030   7.016  18.566  0.00  0.00    +0.000 C 
ATOM     24  C   UNL     1       7.876   5.507  18.687  0.00  0.00    +0.000 C 
ENDBRANCH  17  24
ENDBRANCH  16  22
ENDBRANCH  14  16
ENDBRANCH   1  14
TORSDOF 5
ENDMDL
MODEL 8
REMARK VINA RESULT:      -6.8      1.538      2.407
REMARK  Name = 
REMARK  8 active torsions:
REMARK  status: ('A' for Active; 'I' for Inactive)
REMARK    1  A    between atoms: C_1  and  C_2
REMARK    2  A    between atoms: C_2  and  C_3
REMARK    3  A    between atoms: C_5  and  C_6
REMARK    4  A    between atoms: C_8  and  C_9
REMARK    5  A    between atoms: C_9  and  N_10
REMARK    6  A    between atoms: N_10  and  C_11
REMARK    7  A    between atoms: N_14  and  C_15
REMARK    8  A    between atoms: C_18  and  C_19
REMARK                            x       y       z     vdW  Elec       q    Type
REMARK                         _______ _______ _______ _____ _____    ______ ____
ROOT
ATOM      1  C   UNL     1       4.231   6.157  18.171  0.00  0.00    +0.000 C 
ATOM      2  C   UNL     1       3.714   5.863  19.596  0.00  0.00    +0.000 C 
ATOM      3  C   UNL     1       2.218   6.145  19.759  0.00  0.00    +0.000 C 
ATOM      4  N   UNL     1       1.911   7.496  19.284  0.00  0.00    +0.000 N 
ATOM      5  C   UNL     1       2.290   7.772  17.900  0.00  0.00    +0.000 C 
ATOM      6  C   UNL     1       3.797   7.574  17.766  0.00  0.00    +0.000 C 
ENDROOT
BRANCH   4   7
ATOM      7  C   UNL     1       1.264   8.439  20.059  0.00  0.00    +0.000 A 
ATOM      8  C   UNL     1       1.086   8.271  21.439  0.00  0.00    +0.000 A 
ATOM      9  C   UNL     1       0.483   9.256  22.236  0.00  0.00    +0.000 A 
ATOM     10  C   UNL     1       0.030  10.447  21.671  0.00  0.00    +0.000 A 
ATOM     11  C   UNL     1      -0.591  11.524  22.509  0.00  0.00    +0.000 C 
ATOM     12  C   UNL     1       0.169  10.625  20.296  0.00  0.00    +0.000 A 
ATOM     13  C   UNL     1       0.775   9.635  19.511  0.00  0.00    +0.000 A 
ENDBRANCH   4   7
BRANCH   1  14
ATOM     14  N   UNL     1       3.788   5.106  17.230  0.00  0.00    +0.000 NA
ATOM     15  H   UNL     1       2.971   4.636  17.625  0.00  0.00    +0.000 HD
BRANCH  14  16
ATOM     16  C   UNL     1       4.821   4.090  16.995  0.00  0.00    +0.000 C 
BRANCH  16  22
ATOM     17  C   UNL     1       6.903   5.400  16.117  0.00  0.00    +0.000 A 
ATOM     18  N   UNL     1       7.647   5.589  14.963  0.00  0.00    +0.000 NA
ATOM     19  C   UNL     1       7.115   4.919  13.965  0.00  0.00    +0.000 A 
ATOM     20  C   UNL     1       7.634   4.929  12.572  0.00  0.00    +0.000 C 
ATOM     21  S   UNL     1       5.715   4.006  14.352  0.00  0.00    +0.000 S 
ATOM     22  C   UNL     1       5.812   4.554  15.975  0.00  0.00    +0.000 A 
BRANCH  17  24
ATOM     23  C   UNL     1       7.801   5.149  18.436  0.00  0.00    +0.000 C 
ATOM     24  C   UNL     1       7.334   6.115  17.359  0.00  0.00    +0.000 C 
ENDBRANCH  17  24
ENDBRANCH  16  22
ENDBRANCH  14  16
ENDBRANCH   1  14
TORSDOF 5
ENDMDL
MODEL 9
REMARK VINA RESULT:      -6.7      1.138      1.322
REMARK  Name = 
REMARK  8 active torsions:
REMARK  status: ('A' for Active; 'I' for Inactive)
REMARK    1  A    between atoms: C_1  and  C_2
REMARK    2  A    between atoms: C_2  and  C_3
REMARK    3  A    between atoms: C_5  and  C_6
REMARK    4  A    between atoms: C_8  and  C_9
REMARK    5  A    between atoms: C_9  and  N_10
REMARK    6  A    between atoms: N_10  and  C_11
REMARK    7  A    between atoms: N_14  and  C_15
REMARK    8  A    between atoms: C_18  and  C_19
REMARK                            x       y       z     vdW  Elec       q    Type
REMARK                         _______ _______ _______ _____ _____    ______ ____
ROOT
ATOM      1  C   UNL     1       3.191   5.072  17.957  0.00  0.00    +0.000 C 
ATOM      2  C   UNL     1       3.312   6.466  17.305  0.00  0.00    +0.000 C 
ATOM      3  C   UNL     1       3.448   7.595  18.330  0.00  0.00    +0.000 C 
ATOM      4  N   UNL     1       2.377   7.497  19.324  0.00  0.00    +0.000 N 
ATOM      5  C   UNL     1       2.303   6.224  20.039  0.00  0.00    +0.000 C 
ATOM      6  C   UNL     1       2.080   5.112  19.018  0.00  0.00    +0.000 C 
ENDROOT
BRANCH   4   7
ATOM      7  C   UNL     1       1.519   8.540  19.615  0.00  0.00    +0.000 A 
ATOM      8  C   UNL     1       1.138   9.480  18.647  0.00  0.00    +0.000 A 
ATOM      9  C   UNL     1       0.219  10.504  18.926  0.00  0.00    +0.000 A 
ATOM     10  C   UNL     1      -0.346  10.623  20.195  0.00  0.00    +0.000 A 
ATOM     11  C   UNL     1      -1.350  11.692  20.506  0.00  0.00    +0.000 C 
ATOM     12  C   UNL     1       0.039   9.718  21.182  0.00  0.00    +0.000 A 
ATOM     13  C   UNL     1       0.956   8.699  20.891  0.00  0.00    +0.000 A 
ENDBRANCH   4   7
BRANCH   1  14
ATOM     14  N   UNL     1       4.500   4.628  18.482  0.00  0.00    +0.000 NA
ATOM     15  H   UNL     1       5.121   5.437  18.541  0.00  0.00    +0.000 HD
BRANCH  14  16
ATOM     16  C   UNL     1       5.143   3.630  17.618  0.00  0.00    +0.000 C 
BRANCH  16  22
ATOM     17  C   UNL     1       6.954   5.268  16.692  0.00  0.00    +0.000 A 
ATOM     18  N   UNL     1       7.578   5.624  15.506  0.00  0.00    +0.000 NA
ATOM     19  C   UNL     1       7.071   4.941  14.504  0.00  0.00    +0.000 A 
ATOM     20  C   UNL     1       7.479   5.102  13.083  0.00  0.00    +0.000 C 
ATOM     21  S   UNL     1       5.842   3.819  14.922  0.00  0.00    +0.000 S 
ATOM     22  C   UNL     1       5.983   4.285  16.568  0.00  0.00    +0.000 A 
BRANCH  17  24
ATOM     23  C   UNL     1       7.632   7.448  17.710  0.00  0.00    +0.000 C 
ATOM     24  C   UNL     1       7.374   5.968  17.947  0.00  0.00    +0.000 C 
ENDBRANCH  17  24
ENDBRANCH  16  22
ENDBRANCH  14  16
ENDBRANCH   1  14
TORSDOF 5
ENDMDL
