MODEL 1
REMARK VINA RESULT:      -9.4      0.000      0.000
REMARK  Name = 
REMARK  8 active torsions:
REMARK  status: ('A' for Active; 'I' for Inactive)
REMARK    1  A    between atoms: C_1  and  C_2
REMARK    2  A    between atoms: C_7  and  S_8
REMARK    3  A    between atoms: S_8  and  N_11
REMARK    4  A    between atoms: C_15  and  C_16
REMARK    5  A    between atoms: N_18  and  C_19
REMARK    6  A    between atoms: C_19  and  C_20
REMARK    7  A    between atoms: C_19  and  C_21
REMARK    8  A    between atoms: C_19  and  C_22
REMARK                            x       y       z     vdW  Elec       q    Type
REMARK                         _______ _______ _______ _____ _____    ______ ____
ROOT
ATOM      1  S   UNL     1       3.065   4.245  18.064  0.00  0.00    +0.000 S 
ATOM      2  O   UNL     1       3.620   3.308  19.020  0.00  0.00    +0.000 OA
ATOM      3  O   UNL     1       1.992   3.841  17.177  0.00  0.00    +0.000 OA
ENDROOT
BRANCH   1  10
ATOM      4  C   UNL     1       2.015   4.508  21.210  0.00  0.00    +0.000 C 
ATOM      5  C   UNL     1       2.040   5.706  20.305  0.00  0.00    +0.000 A 
ATOM      6  C   UNL     1       1.579   6.925  20.859  0.00  0.00    +0.000 A 
ATOM      7  C   UNL     1       1.512   8.088  20.096  0.00  0.00    +0.000 A 
ATOM      8  C   UNL     1       1.865   8.059  18.750  0.00  0.00    +0.000 A 
ATOM      9  C   UNL     1       2.342   6.878  18.188  0.00  0.00    +0.000 A 
ATOM     10  C   UNL     1       2.474   5.704  18.958  0.00  0.00    +0.000 A 
ATOM     11  O   UNL     1       1.833   9.161  17.939  0.00  0.00    +0.000 OA
ATOM     12  C   UNL     1       1.042  10.226  18.449  0.00  0.00    +0.000 C 
ATOM     13  C   UNL     1       1.035  10.446  19.961  0.00  0.00    +0.000 C 
ATOM     14  O   UNL     1       0.858  11.539  20.490  0.00  0.00    +0.000 OA
ATOM     15  N   UNL     1       1.145   9.295  20.695  0.00  0.00    +0.000 N 
ATOM     16  H   UNL     1       1.040   9.376  21.698  0.00  0.00    +0.000 HD
ENDBRANCH   1  10
BRANCH   1  17
ATOM     17  N   UNL     1       4.359   4.800  17.053  0.00  0.00    +0.000 NA
ATOM     18  C   UNL     1       4.888   6.145  17.376  0.00  0.00    +0.000 C 
ATOM     19  C   UNL     1       6.185   6.516  16.679  0.00  0.00    +0.000 C 
ATOM     20  C   UNL     1       7.172   5.369  16.657  0.00  0.00    +0.000 C 
ATOM     21  C   UNL     1       6.577   4.160  15.958  0.00  0.00    +0.000 C 
ATOM     22  C   UNL     1       5.242   3.729  16.531  0.00  0.00    +0.000 C 
BRANCH  21  23
ATOM     23  C   UNL     1       6.645   4.285  14.440  0.00  0.00    +0.000 C 
ATOM     24  O   UNL     1       7.070   5.339  13.950  0.00  0.00    +0.000 OA
ATOM     25  N   UNL     1       6.150   3.254  13.669  0.00  0.00    +0.000 N 
ATOM     26  H   UNL     1       5.830   2.414  14.132  0.00  0.00    +0.000 HD
BRANCH  25  27
ATOM     27  C   UNL     1       6.109   3.302  12.191  0.00  0.00    +0.000 C 
ATOM     28  C   UNL     1       7.155   4.289  11.639  0.00  0.00    +0.000 C 
ATOM     29  C   UNL     1       6.432   1.908  11.622  0.00  0.00    +0.000 C 
ATOM     30  C   UNL     1       4.703   3.691  11.696  0.00  0.00    +0.000 C 
ENDBRANCH  25  27
ENDBRANCH  21  23
ENDBRANCH   1  17
TORSDOF 4
ENDMDL
MODEL 2
REMARK VINA RESULT:      -8.7      1.330      1.985
REMARK  Name = 
REMARK  8 active torsions:
REMARK  status: ('A' for Active; 'I' for Inactive)
REMARK    1  A    between atoms: C_1  and  C_2
REMARK    2  A    between atoms: C_7  and  S_8
REMARK    3  A    between atoms: S_8  and  N_11
REMARK    4  A    between atoms: C_15  and  C_16
REMARK    5  A    between atoms: N_18  and  C_19
REMARK    6  A    between atoms: C_19  and  C_20
REMARK    7  A    between atoms: C_19  and  C_21
REMARK    8  A    between atoms: C_19  and  C_22
REMARK                            x       y       z     vdW  Elec       q    Type
REMARK                         _______ _______ _______ _____ _____    ______ ____
ROOT
ATOM      1  S   UNL     1       3.367   4.995  18.909  0.00  0.00    +0.000 S 
ATOM      2  O   UNL     1       3.935   4.663  20.200  0.00  0.00    +0.000 OA
ATOM      3  O   UNL     1       2.375   4.133  18.298  0.00  0.00    +0.000 OA
ENDROOT
BRANCH   1  10
ATOM      4  C   UNL     1       3.433   7.474  16.689  0.00  0.00    +0.000 C 
ATOM      5  C   UNL     1       2.721   7.635  18.002  0.00  0.00    +0.000 A 
ATOM      6  C   UNL     1       2.109   8.890  18.238  0.00  0.00    +0.000 A 
ATOM      7  C   UNL     1       1.463   9.167  19.440  0.00  0.00    +0.000 A 
ATOM      8  C   UNL     1       1.445   8.215  20.456  0.00  0.00    +0.000 A 
ATOM      9  C   UNL     1       2.020   6.966  20.239  0.00  0.00    +0.000 A 
ATOM     10  C   UNL     1       2.627   6.644  19.008  0.00  0.00    +0.000 A 
ATOM     11  O   UNL     1       0.825   8.411  21.659  0.00  0.00    +0.000 OA
ATOM     12  C   UNL     1       0.559   9.777  21.953  0.00  0.00    +0.000 C 
ATOM     13  C   UNL     1       0.176  10.692  20.791  0.00  0.00    +0.000 C 
ATOM     14  O   UNL     1      -0.543  11.679  20.908  0.00  0.00    +0.000 OA
ATOM     15  N   UNL     1       0.787  10.378  19.606  0.00  0.00    +0.000 N 
ATOM     16  H   UNL     1       0.650  11.016  18.833  0.00  0.00    +0.000 HD
ENDBRANCH   1  10
BRANCH   1  17
ATOM     17  N   UNL     1       4.671   5.129  17.775  0.00  0.00    +0.000 NA
ATOM     18  C   UNL     1       5.794   5.999  18.193  0.00  0.00    +0.000 C 
ATOM     19  C   UNL     1       7.044   5.902  17.336  0.00  0.00    +0.000 C 
ATOM     20  C   UNL     1       7.375   4.473  16.965  0.00  0.00    +0.000 C 
ATOM     21  C   UNL     1       6.222   3.832  16.213  0.00  0.00    +0.000 C 
ATOM     22  C   UNL     1       4.900   3.919  16.948  0.00  0.00    +0.000 C 
BRANCH  21  23
ATOM     23  C   UNL     1       6.200   4.238  14.744  0.00  0.00    +0.000 C 
ATOM     24  O   UNL     1       5.913   5.408  14.456  0.00  0.00    +0.000 OA
ATOM     25  N   UNL     1       6.414   3.269  13.785  0.00  0.00    +0.000 N 
ATOM     26  H   UNL     1       6.656   2.335  14.088  0.00  0.00    +0.000 HD
BRANCH  25  27
ATOM     27  C   UNL     1       6.349   3.544  12.333  0.00  0.00    +0.000 C 
ATOM     28  C   UNL     1       7.223   4.757  11.960  0.00  0.00    +0.000 C 
ATOM     29  C   UNL     1       6.879   2.326  11.555  0.00  0.00    +0.000 C 
ATOM     30  C   UNL     1       4.894   3.783  11.887  0.00  0.00    +0.000 C 
ENDBRANCH  25  27
ENDBRANCH  21  23
ENDBRANCH   1  17
TORSDOF 4
ENDMDL
MODEL 3
REMARK VINA RESULT:      -8.3      1.864      7.772
REMARK  Name = 
REMARK  8 active torsions:
REMARK  status: ('A' for Active; 'I' for Inactive)
REMARK    1  A    between atoms: C_1  and  C_2
REMARK    2  A    between atoms: C_7  and  S_8
REMARK    3  A    between atoms: S_8  and  N_11
REMARK    4  A    between atoms: C_15  and  C_16
REMARK    5  A    between atoms: N_18  and  C_19
REMARK    6  A    between atoms: C_19  and  C_20
REMARK    7  A    between atoms: C_19  and  C_21
REMARK    8  A    between atoms: C_19  and  C_22
REMARK                            x       y       z     vdW  Elec       q    Type
REMARK                         _______ _______ _______ _____ _____    ______ ____
ROOT
ATOM      1  S   UNL     1       4.319   3.147  18.821  0.00  0.00    +0.000 S 
ATOM      2  O   UNL     1       3.703   1.986  18.211  0.00  0.00    +0.000 OA
ATOM      3  O   UNL     1       5.068   3.019  20.055  0.00  0.00    +0.000 OA
ENDROOT
BRANCH   1  10
ATOM      4  C   UNL     1       6.729   5.391  19.306  0.00  0.00    +0.000 C 
ATOM      5  C   UNL     1       6.430   4.868  17.930  0.00  0.00    +0.000 A 
ATOM      6  C   UNL     1       7.210   5.395  16.872  0.00  0.00    +0.000 A 
ATOM      7  C   UNL     1       6.986   5.018  15.549  0.00  0.00    +0.000 A 
ATOM      8  C   UNL     1       5.954   4.137  15.242  0.00  0.00    +0.000 A 
ATOM      9  C   UNL     1       5.188   3.589  16.267  0.00  0.00    +0.000 A 
ATOM     10  C   UNL     1       5.436   3.911  17.617  0.00  0.00    +0.000 A 
ATOM     11  O   UNL     1       5.678   3.715  13.970  0.00  0.00    +0.000 OA
ATOM     12  C   UNL     1       6.244   4.537  12.957  0.00  0.00    +0.000 C 
ATOM     13  C   UNL     1       7.614   5.156  13.227  0.00  0.00    +0.000 C 
ATOM     14  O   UNL     1       8.425   5.429  12.348  0.00  0.00    +0.000 OA
ATOM     15  N   UNL     1       7.834   5.480  14.540  0.00  0.00    +0.000 N 
ATOM     16  H   UNL     1       8.681   5.989  14.754  0.00  0.00    +0.000 HD
ENDBRANCH   1  10
BRANCH   1  17
ATOM     17  N   UNL     1       3.073   4.315  19.118  0.00  0.00    +0.000 NA
ATOM     18  C   UNL     1       1.777   3.763  19.572  0.00  0.00    +0.000 C 
ATOM     19  C   UNL     1       0.781   4.786  20.090  0.00  0.00    +0.000 C 
ATOM     20  C   UNL     1       1.437   5.829  20.970  0.00  0.00    +0.000 C 
ATOM     21  C   UNL     1       2.532   6.559  20.213  0.00  0.00    +0.000 C 
ATOM     22  C   UNL     1       3.560   5.633  19.596  0.00  0.00    +0.000 C 
BRANCH  21  23
ATOM     23  C   UNL     1       1.972   7.643  19.299  0.00  0.00    +0.000 C 
ATOM     24  O   UNL     1       2.048   7.482  18.073  0.00  0.00    +0.000 OA
ATOM     25  N   UNL     1       1.481   8.800  19.867  0.00  0.00    +0.000 N 
ATOM     26  H   UNL     1       1.436   8.862  20.875  0.00  0.00    +0.000 HD
BRANCH  25  27
ATOM     27  C   UNL     1       0.976   9.938  19.068  0.00  0.00    +0.000 C 
ATOM     28  C   UNL     1      -0.382   9.602  18.422  0.00  0.00    +0.000 C 
ATOM     29  C   UNL     1       0.771  11.159  19.984  0.00  0.00    +0.000 C 
ATOM     30  C   UNL     1       1.994  10.337  17.982  0.00  0.00    +0.000 C 
ENDBRANCH  25  27
ENDBRANCH  21  23
ENDBRANCH   1  17
TORSDOF 4
ENDMDL
MODEL 4
REMARK VINA RESULT:      -8.2      4.621     10.019
REMARK  Name = 
REMARK  8 active torsions:
REMARK  status: ('A' for Active; 'I' for Inactive)
REMARK    1  A    between atoms: C_1  and  C_2
REMARK    2  A    between atoms: C_7  and  S_8
REMARK    3  A    between atoms: S_8  and  N_11
REMARK    4  A    between atoms: C_15  and  C_16
REMARK    5  A    between atoms: N_18  and  C_19
REMARK    6  A    between atoms: C_19  and  C_20
REMARK    7  A    between atoms: C_19  and  C_21
REMARK    8  A    between atoms: C_19  and  C_22
REMARK                            x       y       z     vdW  Elec       q    Type
REMARK                         _______ _______ _______ _____ _____    ______ ____
ROOT
ATOM      1  S   UNL     1      -0.805  11.756  19.499  0.00  0.00    +0.000 S 
ATOM      2  O   UNL     1      -1.247  11.753  18.119  0.00  0.00    +0.000 OA
ATOM      3  O   UNL     1      -1.767  11.856  20.578  0.00  0.00    +0.000 OA
ENDROOT
BRANCH   1  10
ATOM      4  C   UNL     1      -0.339  10.089  22.341  0.00  0.00    +0.000 C 
ATOM      5  C   UNL     1       0.297   9.623  21.062  0.00  0.00    +0.000 A 
ATOM      6  C   UNL     1       1.108   8.465  21.146  0.00  0.00    +0.000 A 
ATOM      7  C   UNL     1       1.785   7.972  20.033  0.00  0.00    +0.000 A 
ATOM      8  C   UNL     1       1.706   8.644  18.817  0.00  0.00    +0.000 A 
ATOM      9  C   UNL     1       0.898   9.772  18.704  0.00  0.00    +0.000 A 
ATOM     10  C   UNL     1       0.157  10.253  19.803  0.00  0.00    +0.000 A 
ATOM     11  O   UNL     1       2.336   8.218  17.680  0.00  0.00    +0.000 OA
ATOM     12  C   UNL     1       3.387   7.290  17.919  0.00  0.00    +0.000 C 
ATOM     13  C   UNL     1       3.204   6.288  19.057  0.00  0.00    +0.000 C 
ATOM     14  O   UNL     1       3.714   5.171  19.071  0.00  0.00    +0.000 OA
ATOM     15  N   UNL     1       2.498   6.775  20.125  0.00  0.00    +0.000 N 
ATOM     16  H   UNL     1       2.441   6.188  20.947  0.00  0.00    +0.000 HD
ENDBRANCH   1  10
BRANCH   1  17
ATOM     17  N   UNL     1       0.301  13.075  19.699  0.00  0.00    +0.000 NA
ATOM     18  C   UNL     1       0.888  13.216  21.051  0.00  0.00    +0.000 C 
ATOM     19  C   UNL     1       2.050  14.188  21.156  0.00  0.00    +0.000 C 
ATOM     20  C   UNL     1       3.010  14.061  19.993  0.00  0.00    +0.000 C 
ATOM     21  C   UNL     1       2.294  14.303  18.676  0.00  0.00    +0.000 C 
ATOM     22  C   UNL     1       1.073  13.426  18.482  0.00  0.00    +0.000 C 
BRANCH  21  23
ATOM     23  C   UNL     1       2.103  15.789  18.393  0.00  0.00    +0.000 C 
ATOM     24  O   UNL     1       3.106  16.492  18.209  0.00  0.00    +0.000 OA
ATOM     25  N   UNL     1       0.828  16.313  18.438  0.00  0.00    +0.000 N 
ATOM     26  H   UNL     1       0.051  15.681  18.580  0.00  0.00    +0.000 HD
BRANCH  25  27
ATOM     27  C   UNL     1       0.540  17.751  18.243  0.00  0.00    +0.000 C 
ATOM     28  C   UNL     1      -0.977  18.017  18.241  0.00  0.00    +0.000 C 
ATOM     29  C   UNL     1       1.158  18.560  19.398  0.00  0.00    +0.000 C 
ATOM     30  C   UNL     1       1.168  18.260  16.931  0.00  0.00    +0.000 C 
ENDBRANCH  25  27
ENDBRANCH  21  23
ENDBRANCH   1  17
TORSDOF 4
ENDMDL
MODEL 5
REMARK VINA RESULT:      -8.0      8.617     10.600
REMARK  Name = 
REMARK  8 active torsions:
REMARK  status: ('A' for Active; 'I' for Inactive)
REMARK    1  A    between atoms: C_1  and  C_2
REMARK    2  A    between atoms: C_7  and  S_8
REMARK    3  A    between atoms: S_8  and  N_11
REMARK    4  A    between atoms: C_15  and  C_16
REMARK    5  A    between atoms: N_18  and  C_19
REMARK    6  A    between atoms: C_19  and  C_20
REMARK    7  A    between atoms: C_19  and  C_21
REMARK    8  A    between atoms: C_19  and  C_22
REMARK                            x       y       z     vdW  Elec       q    Type
REMARK                         _______ _______ _______ _____ _____    ______ ____
ROOT
ATOM      1  S   UNL     1       0.931  11.678  20.020  0.00  0.00    +0.000 S 
ATOM      2  O   UNL     1       1.105  11.205  21.379  0.00  0.00    +0.000 OA
ATOM      3  O   UNL     1       1.403  10.888  18.901  0.00  0.00    +0.000 OA
ENDROOT
BRANCH   1  10
ATOM      4  C   UNL     1      -1.366  12.904  22.093  0.00  0.00    +0.000 C 
ATOM      5  C   UNL     1      -1.730  12.500  20.692  0.00  0.00    +0.000 A 
ATOM      6  C   UNL     1      -3.089  12.653  20.326  0.00  0.00    +0.000 A 
ATOM      7  C   UNL     1      -3.549  12.266  19.069  0.00  0.00    +0.000 A 
ATOM      8  C   UNL     1      -2.674  11.678  18.159  0.00  0.00    +0.000 A 
ATOM      9  C   UNL     1      -1.329  11.537  18.489  0.00  0.00    +0.000 A 
ATOM     10  C   UNL     1      -0.831  11.977  19.733  0.00  0.00    +0.000 A 
ATOM     11  O   UNL     1      -3.049  11.279  16.905  0.00  0.00    +0.000 OA
ATOM     12  C   UNL     1      -4.454  11.132  16.745  0.00  0.00    +0.000 C 
ATOM     13  C   UNL     1      -5.360  12.113  17.487  0.00  0.00    +0.000 C 
ATOM     14  O   UNL     1      -6.471  12.452  17.089  0.00  0.00    +0.000 OA
ATOM     15  N   UNL     1      -4.872  12.518  18.702  0.00  0.00    +0.000 N 
ATOM     16  H   UNL     1      -5.482  13.083  19.279  0.00  0.00    +0.000 HD
ENDBRANCH   1  10
BRANCH   1  17
ATOM     17  N   UNL     1       1.701  13.225  19.894  0.00  0.00    +0.000 NA
ATOM     18  C   UNL     1       2.614  13.576  21.006  0.00  0.00    +0.000 C 
ATOM     19  C   UNL     1       3.489  14.794  20.766  0.00  0.00    +0.000 C 
ATOM     20  C   UNL     1       4.060  14.823  19.365  0.00  0.00    +0.000 C 
ATOM     21  C   UNL     1       2.948  14.816  18.331  0.00  0.00    +0.000 C 
ATOM     22  C   UNL     1       1.969  13.672  18.505  0.00  0.00    +0.000 C 
BRANCH  21  23
ATOM     23  C   UNL     1       2.335  16.199  18.140  0.00  0.00    +0.000 C 
ATOM     24  O   UNL     1       3.089  17.156  17.921  0.00  0.00    +0.000 OA
ATOM     25  N   UNL     1       0.974  16.348  18.305  0.00  0.00    +0.000 N 
ATOM     26  H   UNL     1       0.414  15.522  18.470  0.00  0.00    +0.000 HD
BRANCH  25  27
ATOM     27  C   UNL     1       0.289  17.655  18.207  0.00  0.00    +0.000 C 
ATOM     28  C   UNL     1      -1.215  17.517  18.509  0.00  0.00    +0.000 C 
ATOM     29  C   UNL     1       0.888  18.628  19.238  0.00  0.00    +0.000 C 
ATOM     30  C   UNL     1       0.492  18.274  16.810  0.00  0.00    +0.000 C 
ENDBRANCH  25  27
ENDBRANCH  21  23
ENDBRANCH   1  17
TORSDOF 4
ENDMDL
MODEL 6
REMARK VINA RESULT:      -8.0      7.487     12.072
REMARK  Name = 
REMARK  8 active torsions:
REMARK  status: ('A' for Active; 'I' for Inactive)
REMARK    1  A    between atoms: C_1  and  C_2
REMARK    2  A    between atoms: C_7  and  S_8
REMARK    3  A    between atoms: S_8  and  N_11
REMARK    4  A    between atoms: C_15  and  C_16
REMARK    5  A    between atoms: N_18  and  C_19
REMARK    6  A    between atoms: C_19  and  C_20
REMARK    7  A    between atoms: C_19  and  C_21
REMARK    8  A    between atoms: C_19  and  C_22
REMARK                            x       y       z     vdW  Elec       q    Type
REMARK                         _______ _______ _______ _____ _____    ______ ____
ROOT
ATOM      1  S   UNL     1      -0.787  11.549  21.342  0.00  0.00    +0.000 S 
ATOM      2  O   UNL     1      -0.375  10.399  22.123  0.00  0.00    +0.000 OA
ATOM      3  O   UNL     1       0.088  12.696  21.207  0.00  0.00    +0.000 OA
ENDROOT
BRANCH   1  10
ATOM      4  C   UNL     1       1.078   9.810  19.203  0.00  0.00    +0.000 C 
ATOM      5  C   UNL     1      -0.304  10.264  18.827  0.00  0.00    +0.000 A 
ATOM      6  C   UNL     1      -0.745   9.928  17.524  0.00  0.00    +0.000 A 
ATOM      7  C   UNL     1      -1.989  10.339  17.052  0.00  0.00    +0.000 A 
ATOM      8  C   UNL     1      -2.810  11.130  17.851  0.00  0.00    +0.000 A 
ATOM      9  C   UNL     1      -2.408  11.454  19.143  0.00  0.00    +0.000 A 
ATOM     10  C   UNL     1      -1.179  10.998  19.662  0.00  0.00    +0.000 A 
ATOM     11  O   UNL     1      -4.047  11.565  17.460  0.00  0.00    +0.000 OA
ATOM     12  C   UNL     1      -4.261  11.501  16.056  0.00  0.00    +0.000 C 
ATOM     13  C   UNL     1      -3.638  10.332  15.295  0.00  0.00    +0.000 C 
ATOM     14  O   UNL     1      -4.112   9.855  14.268  0.00  0.00    +0.000 OA
ATOM     15  N   UNL     1      -2.436   9.912  15.800  0.00  0.00    +0.000 N 
ATOM     16  H   UNL     1      -1.932   9.212  15.270  0.00  0.00    +0.000 HD
ENDBRANCH   1  10
BRANCH   1  17
ATOM     17  N   UNL     1      -2.275  12.137  22.007  0.00  0.00    +0.000 NA
ATOM     18  C   UNL     1      -2.506  11.818  23.435  0.00  0.00    +0.000 C 
ATOM     19  C   UNL     1      -3.663  12.557  24.085  0.00  0.00    +0.000 C 
ATOM     20  C   UNL     1      -3.711  14.015  23.683  0.00  0.00    +0.000 C 
ATOM     21  C   UNL     1      -3.834  14.154  22.176  0.00  0.00    +0.000 C 
ATOM     22  C   UNL     1      -2.762  13.405  21.411  0.00  0.00    +0.000 C 
BRANCH  21  23
ATOM     23  C   UNL     1      -5.267  13.945  21.698  0.00  0.00    +0.000 C 
ATOM     24  O   UNL     1      -6.123  14.785  22.007  0.00  0.00    +0.000 OA
ATOM     25  N   UNL     1      -5.575  12.788  21.014  0.00  0.00    +0.000 N 
ATOM     26  H   UNL     1      -4.825  12.149  20.782  0.00  0.00    +0.000 HD
BRANCH  25  27
ATOM     27  C   UNL     1      -6.945  12.458  20.563  0.00  0.00    +0.000 C 
ATOM     28  C   UNL     1      -7.908  12.342  21.759  0.00  0.00    +0.000 C 
ATOM     29  C   UNL     1      -7.467  13.579  19.646  0.00  0.00    +0.000 C 
ATOM     30  C   UNL     1      -6.952  11.150  19.749  0.00  0.00    +0.000 C 
ENDBRANCH  25  27
ENDBRANCH  21  23
ENDBRANCH   1  17
TORSDOF 4
ENDMDL
MODEL 7
REMARK VINA RESULT:      -7.8      5.732     11.476
REMARK  Name = 
REMARK  8 active torsions:
REMARK  status: ('A' for Active; 'I' for Inactive)
REMARK    1  A    between atoms: C_1  and  C_2
REMARK    2  A    between atoms: C_7  and  S_8
REMARK    3  A    between atoms: S_8  and  N_11
REMARK    4  A    between atoms: C_15  and  C_16
REMARK    5  A    between atoms: N_18  and  C_19
REMARK    6  A    between atoms: C_19  and  C_20
REMARK    7  A    between atoms: C_19  and  C_21
REMARK    8  A    between atoms: C_19  and  C_22
REMARK                            x       y       z     vdW  Elec       q    Type
REMARK                         _______ _______ _______ _____ _____    ______ ____
ROOT
ATOM      1  S   UNL     1      -0.821  13.309  21.782  0.00  0.00    +0.000 S 
ATOM      2  O   UNL     1      -0.449  13.082  23.164  0.00  0.00    +0.000 OA
ATOM      3  O   UNL     1      -0.489  14.558  21.127  0.00  0.00    +0.000 OA
ENDROOT
BRANCH   1  10
ATOM      4  C   UNL     1      -0.657  13.053  18.468  0.00  0.00    +0.000 C 
ATOM      5  C   UNL     1      -0.098  11.974  19.352  0.00  0.00    +0.000 A 
ATOM      6  C   UNL     1       0.472  10.856  18.697  0.00  0.00    +0.000 A 
ATOM      7  C   UNL     1       0.976   9.774  19.417  0.00  0.00    +0.000 A 
ATOM      8  C   UNL     1       0.887   9.761  20.806  0.00  0.00    +0.000 A 
ATOM      9  C   UNL     1       0.351  10.859  21.473  0.00  0.00    +0.000 A 
ATOM     10  C   UNL     1      -0.110  11.989  20.767  0.00  0.00    +0.000 A 
ATOM     11  O   UNL     1       1.366   8.740  21.580  0.00  0.00    +0.000 OA
ATOM     12  C   UNL     1       1.586   7.531  20.865  0.00  0.00    +0.000 C 
ATOM     13  C   UNL     1       2.089   7.638  19.427  0.00  0.00    +0.000 C 
ATOM     14  O   UNL     1       2.782   6.784  18.881  0.00  0.00    +0.000 OA
ATOM     15  N   UNL     1       1.619   8.731  18.748  0.00  0.00    +0.000 N 
ATOM     16  H   UNL     1       1.837   8.791  17.762  0.00  0.00    +0.000 HD
ENDBRANCH   1  10
BRANCH   1  17
ATOM     17  N   UNL     1      -2.540  13.128  21.659  0.00  0.00    +0.000 NA
ATOM     18  C   UNL     1      -3.211  12.577  22.858  0.00  0.00    +0.000 C 
ATOM     19  C   UNL     1      -4.727  12.673  22.855  0.00  0.00    +0.000 C 
ATOM     20  C   UNL     1      -5.216  14.009  22.339  0.00  0.00    +0.000 C 
ATOM     21  C   UNL     1      -4.712  14.257  20.928  0.00  0.00    +0.000 C 
ATOM     22  C   UNL     1      -3.208  14.130  20.793  0.00  0.00    +0.000 C 
BRANCH  21  23
ATOM     23  C   UNL     1      -5.544  13.519  19.885  0.00  0.00    +0.000 C 
ATOM     24  O   UNL     1      -6.776  13.517  20.002  0.00  0.00    +0.000 OA
ATOM     25  N   UNL     1      -4.890  12.807  18.901  0.00  0.00    +0.000 N 
ATOM     26  H   UNL     1      -3.881  12.860  18.855  0.00  0.00    +0.000 HD
BRANCH  25  27
ATOM     27  C   UNL     1      -5.600  12.003  17.881  0.00  0.00    +0.000 C 
ATOM     28  C   UNL     1      -6.437  10.889  18.538  0.00  0.00    +0.000 C 
ATOM     29  C   UNL     1      -6.562  12.910  17.091  0.00  0.00    +0.000 C 
ATOM     30  C   UNL     1      -4.604  11.394  16.876  0.00  0.00    +0.000 C 
ENDBRANCH  25  27
ENDBRANCH  21  23
ENDBRANCH   1  17
TORSDOF 4
ENDMDL
MODEL 8
REMARK VINA RESULT:      -7.8      6.157     11.675
REMARK  Name = 
REMARK  8 active torsions:
REMARK  status: ('A' for Active; 'I' for Inactive)
REMARK    1  A    between atoms: C_1  and  C_2
REMARK    2  A    between atoms: C_7  and  S_8
REMARK    3  A    between atoms: S_8  and  N_11
REMARK    4  A    between atoms: C_15  and  C_16
REMARK    5  A    between atoms: N_18  and  C_19
REMARK    6  A    between atoms: C_19  and  C_20
REMARK    7  A    between atoms: C_19  and  C_21
REMARK    8  A    between atoms: C_19  and  C_22
REMARK                            x       y       z     vdW  Elec       q    Type
REMARK                         _______ _______ _______ _____ _____    ______ ____
ROOT
ATOM      1  S   UNL     1      -1.217  13.632  22.195  0.00  0.00    +0.000 S 
ATOM      2  O   UNL     1      -0.925  13.561  23.612  0.00  0.00    +0.000 OA
ATOM      3  O   UNL     1      -0.837  14.798  21.423  0.00  0.00    +0.000 OA
ENDROOT
BRANCH   1  10
ATOM      4  C   UNL     1      -1.069  10.461  23.196  0.00  0.00    +0.000 C 
ATOM      5  C   UNL     1      -0.450  10.887  21.895  0.00  0.00    +0.000 A 
ATOM      6  C   UNL     1       0.205   9.878  21.149  0.00  0.00    +0.000 A 
ATOM      7  C   UNL     1       0.855  10.169  19.952  0.00  0.00    +0.000 A 
ATOM      8  C   UNL     1       0.906  11.480  19.489  0.00  0.00    +0.000 A 
ATOM      9  C   UNL     1       0.251  12.486  20.194  0.00  0.00    +0.000 A 
ATOM     10  C   UNL     1      -0.464  12.204  21.376  0.00  0.00    +0.000 A 
ATOM     11  O   UNL     1       1.519  11.842  18.320  0.00  0.00    +0.000 OA
ATOM     12  C   UNL     1       2.435  10.873  17.828  0.00  0.00    +0.000 C 
ATOM     13  C   UNL     1       2.086   9.399  18.029  0.00  0.00    +0.000 C 
ATOM     14  O   UNL     1       2.450   8.502  17.274  0.00  0.00    +0.000 OA
ATOM     15  N   UNL     1       1.408   9.137  19.190  0.00  0.00    +0.000 N 
ATOM     16  H   UNL     1       1.247   8.166  19.421  0.00  0.00    +0.000 HD
ENDBRANCH   1  10
BRANCH   1  17
ATOM     17  N   UNL     1      -2.929  13.443  21.995  0.00  0.00    +0.000 NA
ATOM     18  C   UNL     1      -3.670  13.024  23.206  0.00  0.00    +0.000 C 
ATOM     19  C   UNL     1      -5.182  13.124  23.108  0.00  0.00    +0.000 C 
ATOM     20  C   UNL     1      -5.630  14.399  22.427  0.00  0.00    +0.000 C 
ATOM     21  C   UNL     1      -5.047  14.495  21.029  0.00  0.00    +0.000 C 
ATOM     22  C   UNL     1      -3.539  14.350  20.992  0.00  0.00    +0.000 C 
BRANCH  21  23
ATOM     23  C   UNL     1      -5.826  13.653  20.025  0.00  0.00    +0.000 C 
ATOM     24  O   UNL     1      -7.048  13.525  20.179  0.00  0.00    +0.000 OA
ATOM     25  N   UNL     1      -5.129  12.993  19.033  0.00  0.00    +0.000 N 
ATOM     26  H   UNL     1      -4.133  13.151  18.955  0.00  0.00    +0.000 HD
BRANCH  25  27
ATOM     27  C   UNL     1      -5.780  12.100  18.050  0.00  0.00    +0.000 C 
ATOM     28  C   UNL     1      -6.460  10.908  18.750  0.00  0.00    +0.000 C 
ATOM     29  C   UNL     1      -6.867  12.880  17.287  0.00  0.00    +0.000 C 
ATOM     30  C   UNL     1      -4.759  11.592  17.014  0.00  0.00    +0.000 C 
ENDBRANCH  25  27
ENDBRANCH  21  23
ENDBRANCH   1  17
TORSDOF 4
ENDMDL
MODEL 9
REMARK VINA RESULT:      -7.8      4.390      9.829
REMARK  Name = 
REMARK  8 active torsions:
REMARK  status: ('A' for Active; 'I' for Inactive)
REMARK    1  A    between atoms: C_1  and  C_2
REMARK    2  A    between atoms: C_7  and  S_8
REMARK    3  A    between atoms: S_8  and  N_11
REMARK    4  A    between atoms: C_15  and  C_16
REMARK    5  A    between atoms: N_18  and  C_19
REMARK    6  A    between atoms: C_19  and  C_20
REMARK    7  A    between atoms: C_19  and  C_21
REMARK    8  A    between atoms: C_19  and  C_22
REMARK                            x       y       z     vdW  Elec       q    Type
REMARK                         _______ _______ _______ _____ _____    ______ ____
ROOT
ATOM      1  S   UNL     1       0.298  10.324  21.147  0.00  0.00    +0.000 S 
ATOM      2  O   UNL     1      -0.517   9.691  22.164  0.00  0.00    +0.000 OA
ATOM      3  O   UNL     1       1.277  11.328  21.511  0.00  0.00    +0.000 OA
ENDROOT
BRANCH   1  10
ATOM      4  C   UNL     1       1.837  10.509  18.203  0.00  0.00    +0.000 C 
ATOM      5  C   UNL     1       1.808   9.221  18.977  0.00  0.00    +0.000 A 
ATOM      6  C   UNL     1       2.447   8.110  18.375  0.00  0.00    +0.000 A 
ATOM      7  C   UNL     1       2.440   6.855  18.981  0.00  0.00    +0.000 A 
ATOM      8  C   UNL     1       1.761   6.666  20.181  0.00  0.00    +0.000 A 
ATOM      9  C   UNL     1       1.144   7.748  20.802  0.00  0.00    +0.000 A 
ATOM     10  C   UNL     1       1.190   9.039  20.237  0.00  0.00    +0.000 A 
ATOM     11  O   UNL     1       1.716   5.467  20.838  0.00  0.00    +0.000 OA
ATOM     12  C   UNL     1       2.056   4.352  20.024  0.00  0.00    +0.000 C 
ATOM     13  C   UNL     1       3.139   4.550  18.965  0.00  0.00    +0.000 C 
ATOM     14  O   UNL     1       3.877   3.653  18.568  0.00  0.00    +0.000 OA
ATOM     15  N   UNL     1       3.160   5.803  18.412  0.00  0.00    +0.000 N 
ATOM     16  H   UNL     1       3.788   5.953  17.633  0.00  0.00    +0.000 HD
ENDBRANCH   1  10
BRANCH   1  17
ATOM     17  N   UNL     1      -0.768  11.066  19.999  0.00  0.00    +0.000 NA
ATOM     18  C   UNL     1      -0.404  12.440  19.586  0.00  0.00    +0.000 C 
ATOM     19  C   UNL     1      -1.168  12.982  18.390  0.00  0.00    +0.000 C 
ATOM     20  C   UNL     1      -1.329  11.948  17.296  0.00  0.00    +0.000 C 
ATOM     21  C   UNL     1      -2.055  10.721  17.819  0.00  0.00    +0.000 C 
ATOM     22  C   UNL     1      -1.414  10.122  19.055  0.00  0.00    +0.000 C 
BRANCH  21  23
ATOM     23  C   UNL     1      -3.563  10.931  17.881  0.00  0.00    +0.000 C 
ATOM     24  O   UNL     1      -4.239  10.685  16.873  0.00  0.00    +0.000 OA
ATOM     25  N   UNL     1      -4.110  11.469  19.028  0.00  0.00    +0.000 N 
ATOM     26  H   UNL     1      -3.504  11.634  19.820  0.00  0.00    +0.000 HD
BRANCH  25  27
ATOM     27  C   UNL     1      -5.551  11.773  19.167  0.00  0.00    +0.000 C 
ATOM     28  C   UNL     1      -6.408  10.516  18.927  0.00  0.00    +0.000 C 
ATOM     29  C   UNL     1      -5.835  12.270  20.597  0.00  0.00    +0.000 C 
ATOM     30  C   UNL     1      -5.969  12.892  18.194  0.00  0.00    +0.000 C 
ENDBRANCH  25  27
ENDBRANCH  21  23
ENDBRANCH   1  17
TORSDOF 4
ENDMDL
