MODEL 1
REMARK VINA RESULT:      -8.3      0.000      0.000
REMARK  Name = 
REMARK  3 active torsions:
REMARK  status: ('A' for Active; 'I' for Inactive)
REMARK    1  A    between atoms: C_1  and  C_2
REMARK    2  A    between atoms: N_5  and  C_6
REMARK    3  A    between atoms: C_9  and  C_10
REMARK                            x       y       z     vdW  Elec       q    Type
REMARK                         _______ _______ _______ _____ _____    ______ ____
ROOT
ATOM      1  C   UNL     1       7.536   6.790  17.943  0.00  0.00    +0.000 C 
ATOM      2  C   UNL     1       7.081   5.890  16.836  0.00  0.00    +0.000 A 
ATOM      3  N   UNL     1       6.142   4.980  17.157  0.00  0.00    +0.000 NA
ATOM      4  C   UNL     1       5.649   4.129  16.222  0.00  0.00    +0.000 A 
ATOM      5  N   UNL     1       4.690   3.168  16.570  0.00  0.00    +0.000 N 
ATOM      6  C   UNL     1       6.167   4.240  14.920  0.00  0.00    +0.000 A 
ATOM      7  C   UNL     1       5.957   3.607  13.661  0.00  0.00    +0.000 A 
ATOM      8  C   UNL     1       6.803   4.204  12.749  0.00  0.00    +0.000 A 
ATOM      9  N   UNL     1       7.520   5.170  13.406  0.00  0.00    +0.000 N 
ATOM     10  C   UNL     1       7.137   5.212  14.720  0.00  0.00    +0.000 A 
ATOM     11  N   UNL     1       7.637   6.065  15.625  0.00  0.00    +0.000 NA
ATOM     12  H   UNL     1       4.543   2.452  15.875  0.00  0.00    +0.000 HD
ATOM     13  H   UNL     1       8.219   5.776  13.009  0.00  0.00    +0.000 HD
ENDROOT
BRANCH   5  14
ATOM     14  C   UNL     1       3.948   3.039  17.757  0.00  0.00    +0.000 A 
ATOM     15  C   UNL     1       2.601   3.406  17.846  0.00  0.00    +0.000 A 
ATOM     16  C   UNL     1       1.901   3.343  19.051  0.00  0.00    +0.000 A 
ATOM     17  C   UNL     1       2.536   2.904  20.213  0.00  0.00    +0.000 A 
ATOM     18  C   UNL     1       3.888   2.535  20.142  0.00  0.00    +0.000 A 
ATOM     19  C   UNL     1       4.583   2.604  18.926  0.00  0.00    +0.000 A 
BRANCH  17  20
ATOM     20  C   UNL     1       1.780   2.819  21.514  0.00  0.00    +0.000 C 
ATOM     21  F   UNL     1       2.146   3.768  22.421  0.00  0.00    +0.000 F 
ATOM     22  F   UNL     1       0.437   2.969  21.343  0.00  0.00    +0.000 F 
ATOM     23  F   UNL     1       1.945   1.622  22.141  0.00  0.00    +0.000 F 
ENDBRANCH  17  20
ENDBRANCH   5  14
TORSDOF 2
ENDMDL
MODEL 2
REMARK VINA RESULT:      -8.3      3.482      3.936
REMARK  Name = 
REMARK  3 active torsions:
REMARK  status: ('A' for Active; 'I' for Inactive)
REMARK    1  A    between atoms: C_1  and  C_2
REMARK    2  A    between atoms: N_5  and  C_6
REMARK    3  A    between atoms: C_9  and  C_10
REMARK                            x       y       z     vdW  Elec       q    Type
REMARK                         _______ _______ _______ _____ _____    ______ ____
ROOT
ATOM      1  C   UNL     1       7.903   8.006  18.007  0.00  0.00    +0.000 C 
ATOM      2  C   UNL     1       7.120   6.987  17.239  0.00  0.00    +0.000 A 
ATOM      3  N   UNL     1       5.843   6.804  17.625  0.00  0.00    +0.000 NA
ATOM      4  C   UNL     1       5.042   5.917  16.983  0.00  0.00    +0.000 A 
ATOM      5  N   UNL     1       3.721   5.714  17.408  0.00  0.00    +0.000 N 
ATOM      6  C   UNL     1       5.607   5.204  15.913  0.00  0.00    +0.000 A 
ATOM      7  C   UNL     1       5.172   4.226  14.972  0.00  0.00    +0.000 A 
ATOM      8  C   UNL     1       6.243   3.934  14.151  0.00  0.00    +0.000 A 
ATOM      9  N   UNL     1       7.308   4.693  14.559  0.00  0.00    +0.000 N 
ATOM     10  C   UNL     1       6.934   5.477  15.618  0.00  0.00    +0.000 A 
ATOM     11  N   UNL     1       7.744   6.349  16.235  0.00  0.00    +0.000 NA
ATOM     12  H   UNL     1       3.276   4.897  17.018  0.00  0.00    +0.000 HD
ATOM     13  H   UNL     1       8.231   4.702  14.157  0.00  0.00    +0.000 HD
ENDROOT
BRANCH   5  14
ATOM     14  C   UNL     1       2.957   6.455  18.326  0.00  0.00    +0.000 A 
ATOM     15  C   UNL     1       2.546   7.769  18.076  0.00  0.00    +0.000 A 
ATOM     16  C   UNL     1       1.854   8.516  19.029  0.00  0.00    +0.000 A 
ATOM     17  C   UNL     1       1.548   7.962  20.273  0.00  0.00    +0.000 A 
ATOM     18  C   UNL     1       1.955   6.646  20.541  0.00  0.00    +0.000 A 
ATOM     19  C   UNL     1       2.653   5.905  19.577  0.00  0.00    +0.000 A 
BRANCH  17  20
ATOM     20  C   UNL     1       0.786   8.759  21.300  0.00  0.00    +0.000 C 
ATOM     21  F   UNL     1      -0.400   8.193  21.660  0.00  0.00    +0.000 F 
ATOM     22  F   UNL     1       1.487   8.918  22.457  0.00  0.00    +0.000 F 
ATOM     23  F   UNL     1       0.482  10.015  20.871  0.00  0.00    +0.000 F 
ENDBRANCH  17  20
ENDBRANCH   5  14
TORSDOF 2
ENDMDL
MODEL 3
REMARK VINA RESULT:      -8.2      3.506      4.036
REMARK  Name = 
REMARK  3 active torsions:
REMARK  status: ('A' for Active; 'I' for Inactive)
REMARK    1  A    between atoms: C_1  and  C_2
REMARK    2  A    between atoms: N_5  and  C_6
REMARK    3  A    between atoms: C_9  and  C_10
REMARK                            x       y       z     vdW  Elec       q    Type
REMARK                         _______ _______ _______ _____ _____    ______ ____
ROOT
ATOM      1  C   UNL     1       7.988   7.967  18.060  0.00  0.00    +0.000 C 
ATOM      2  C   UNL     1       7.170   6.975  17.293  0.00  0.00    +0.000 A 
ATOM      3  N   UNL     1       5.901   6.803  17.707  0.00  0.00    +0.000 NA
ATOM      4  C   UNL     1       5.070   5.940  17.069  0.00  0.00    +0.000 A 
ATOM      5  N   UNL     1       3.757   5.749  17.522  0.00  0.00    +0.000 N 
ATOM      6  C   UNL     1       5.598   5.239  15.971  0.00  0.00    +0.000 A 
ATOM      7  C   UNL     1       5.126   4.286  15.024  0.00  0.00    +0.000 A 
ATOM      8  C   UNL     1       6.172   3.994  14.171  0.00  0.00    +0.000 A 
ATOM      9  N   UNL     1       7.258   4.730  14.567  0.00  0.00    +0.000 N 
ATOM     10  C   UNL     1       6.922   5.499  15.649  0.00  0.00    +0.000 A 
ATOM     11  N   UNL     1       7.760   6.346  16.262  0.00  0.00    +0.000 NA
ATOM     12  H   UNL     1       3.291   4.947  17.128  0.00  0.00    +0.000 HD
ATOM     13  H   UNL     1       8.171   4.733  14.142  0.00  0.00    +0.000 HD
ENDROOT
BRANCH   5  14
ATOM     14  C   UNL     1       3.028   6.484  18.473  0.00  0.00    +0.000 A 
ATOM     15  C   UNL     1       2.623   5.939  19.696  0.00  0.00    +0.000 A 
ATOM     16  C   UNL     1       1.834   6.657  20.595  0.00  0.00    +0.000 A 
ATOM     17  C   UNL     1       1.426   7.957  20.292  0.00  0.00    +0.000 A 
ATOM     18  C   UNL     1       1.821   8.517  19.069  0.00  0.00    +0.000 A 
ATOM     19  C   UNL     1       2.611   7.786  18.170  0.00  0.00    +0.000 A 
BRANCH  17  20
ATOM     20  C   UNL     1       0.588   8.743  21.267  0.00  0.00    +0.000 C 
ATOM     21  F   UNL     1      -0.561   8.107  21.635  0.00  0.00    +0.000 F 
ATOM     22  F   UNL     1       1.252   9.006  22.427  0.00  0.00    +0.000 F 
ATOM     23  F   UNL     1       0.202   9.951  20.774  0.00  0.00    +0.000 F 
ENDBRANCH  17  20
ENDBRANCH   5  14
TORSDOF 2
ENDMDL
MODEL 4
REMARK VINA RESULT:      -8.1      0.132      1.332
REMARK  Name = 
REMARK  3 active torsions:
REMARK  status: ('A' for Active; 'I' for Inactive)
REMARK    1  A    between atoms: C_1  and  C_2
REMARK    2  A    between atoms: N_5  and  C_6
REMARK    3  A    between atoms: C_9  and  C_10
REMARK                            x       y       z     vdW  Elec       q    Type
REMARK                         _______ _______ _______ _____ _____    ______ ____
ROOT
ATOM      1  C   UNL     1       7.617   6.899  17.742  0.00  0.00    +0.000 C 
ATOM      2  C   UNL     1       7.126   5.953  16.690  0.00  0.00    +0.000 A 
ATOM      3  N   UNL     1       6.195   5.062  17.079  0.00  0.00    +0.000 NA
ATOM      4  C   UNL     1       5.672   4.173  16.197  0.00  0.00    +0.000 A 
ATOM      5  N   UNL     1       4.721   3.231  16.616  0.00  0.00    +0.000 N 
ATOM      6  C   UNL     1       6.150   4.225  14.877  0.00  0.00    +0.000 A 
ATOM      7  C   UNL     1       5.899   3.538  13.654  0.00  0.00    +0.000 A 
ATOM      8  C   UNL     1       6.719   4.091  12.691  0.00  0.00    +0.000 A 
ATOM      9  N   UNL     1       7.457   5.082  13.283  0.00  0.00    +0.000 N 
ATOM     10  C   UNL     1       7.115   5.184  14.604  0.00  0.00    +0.000 A 
ATOM     11  N   UNL     1       7.644   6.073  15.456  0.00  0.00    +0.000 NA
ATOM     12  H   UNL     1       4.552   2.486  15.958  0.00  0.00    +0.000 HD
ATOM     13  H   UNL     1       8.145   5.668  12.838  0.00  0.00    +0.000 HD
ENDROOT
BRANCH   5  14
ATOM     14  C   UNL     1       4.016   3.157  17.830  0.00  0.00    +0.000 A 
ATOM     15  C   UNL     1       4.626   2.786  19.033  0.00  0.00    +0.000 A 
ATOM     16  C   UNL     1       3.896   2.644  20.213  0.00  0.00    +0.000 A 
ATOM     17  C   UNL     1       2.519   2.874  20.223  0.00  0.00    +0.000 A 
ATOM     18  C   UNL     1       1.892   3.244  19.024  0.00  0.00    +0.000 A 
ATOM     19  C   UNL     1       2.634   3.381  17.842  0.00  0.00    +0.000 A 
BRANCH  17  20
ATOM     20  C   UNL     1       1.729   2.737  21.499  0.00  0.00    +0.000 C 
ATOM     21  F   UNL     1       1.917   1.545  22.132  0.00  0.00    +0.000 F 
ATOM     22  F   UNL     1       2.051   3.695  22.412  0.00  0.00    +0.000 F 
ATOM     23  F   UNL     1       0.387   2.845  21.300  0.00  0.00    +0.000 F 
ENDBRANCH  17  20
ENDBRANCH   5  14
TORSDOF 2
ENDMDL
MODEL 5
REMARK VINA RESULT:      -8.0      4.307      4.909
REMARK  Name = 
REMARK  3 active torsions:
REMARK  status: ('A' for Active; 'I' for Inactive)
REMARK    1  A    between atoms: C_1  and  C_2
REMARK    2  A    between atoms: N_5  and  C_6
REMARK    3  A    between atoms: C_9  and  C_10
REMARK                            x       y       z     vdW  Elec       q    Type
REMARK                         _______ _______ _______ _____ _____    ______ ____
ROOT
ATOM      1  C   UNL     1       7.869   8.567  17.791  0.00  0.00    +0.000 C 
ATOM      2  C   UNL     1       7.072   7.421  17.250  0.00  0.00    +0.000 A 
ATOM      3  N   UNL     1       5.783   7.359  17.634  0.00  0.00    +0.000 NA
ATOM      4  C   UNL     1       4.970   6.370  17.185  0.00  0.00    +0.000 A 
ATOM      5  N   UNL     1       3.635   6.299  17.609  0.00  0.00    +0.000 N 
ATOM      6  C   UNL     1       5.536   5.422  16.316  0.00  0.00    +0.000 A 
ATOM      7  C   UNL     1       5.093   4.269  15.606  0.00  0.00    +0.000 A 
ATOM      8  C   UNL     1       6.171   3.775  14.900  0.00  0.00    +0.000 A 
ATOM      9  N   UNL     1       7.249   4.582  15.156  0.00  0.00    +0.000 N 
ATOM     10  C   UNL     1       6.877   5.591  16.003  0.00  0.00    +0.000 A 
ATOM     11  N   UNL     1       7.699   6.560  16.431  0.00  0.00    +0.000 NA
ATOM     12  H   UNL     1       3.175   5.427  17.400  0.00  0.00    +0.000 HD
ATOM     13  H   UNL     1       8.180   4.478  14.787  0.00  0.00    +0.000 HD
ENDROOT
BRANCH   5  14
ATOM     14  C   UNL     1       2.875   7.245  18.318  0.00  0.00    +0.000 A 
ATOM     15  C   UNL     1       2.449   7.034  19.634  0.00  0.00    +0.000 A 
ATOM     16  C   UNL     1       1.631   7.950  20.297  0.00  0.00    +0.000 A 
ATOM     17  C   UNL     1       1.213   9.116  19.654  0.00  0.00    +0.000 A 
ATOM     18  C   UNL     1       1.628   9.341  18.334  0.00  0.00    +0.000 A 
ATOM     19  C   UNL     1       2.449   8.413  17.675  0.00  0.00    +0.000 A 
BRANCH  17  20
ATOM     20  C   UNL     1       0.343  10.115  20.371  0.00  0.00    +0.000 C 
ATOM     21  F   UNL     1      -0.991   9.931  20.157  0.00  0.00    +0.000 F 
ATOM     22  F   UNL     1       0.509  10.072  21.723  0.00  0.00    +0.000 F 
ATOM     23  F   UNL     1       0.604  11.400  20.003  0.00  0.00    +0.000 F 
ENDBRANCH  17  20
ENDBRANCH   5  14
TORSDOF 2
ENDMDL
MODEL 6
REMARK VINA RESULT:      -8.0      3.561      4.019
REMARK  Name = 
REMARK  3 active torsions:
REMARK  status: ('A' for Active; 'I' for Inactive)
REMARK    1  A    between atoms: C_1  and  C_2
REMARK    2  A    between atoms: N_5  and  C_6
REMARK    3  A    between atoms: C_9  and  C_10
REMARK                            x       y       z     vdW  Elec       q    Type
REMARK                         _______ _______ _______ _____ _____    ______ ____
ROOT
ATOM      1  C   UNL     1       7.942   5.849  19.502  0.00  0.00    +0.000 C 
ATOM      2  C   UNL     1       7.124   5.560  18.282  0.00  0.00    +0.000 A 
ATOM      3  N   UNL     1       5.811   5.845  18.364  0.00  0.00    +0.000 NA
ATOM      4  C   UNL     1       4.986   5.638  17.307  0.00  0.00    +0.000 A 
ATOM      5  N   UNL     1       3.615   5.915  17.410  0.00  0.00    +0.000 N 
ATOM      6  C   UNL     1       5.563   5.110  16.140  0.00  0.00    +0.000 A 
ATOM      7  C   UNL     1       5.122   4.756  14.832  0.00  0.00    +0.000 A 
ATOM      8  C   UNL     1       6.218   4.290  14.135  0.00  0.00    +0.000 A 
ATOM      9  N   UNL     1       7.304   4.344  14.970  0.00  0.00    +0.000 N 
ATOM     10  C   UNL     1       6.925   4.852  16.184  0.00  0.00    +0.000 A 
ATOM     11  N   UNL     1       7.760   5.050  17.213  0.00  0.00    +0.000 NA
ATOM     12  H   UNL     1       3.054   5.534  16.663  0.00  0.00    +0.000 HD
ATOM     13  H   UNL     1       8.247   4.071  14.750  0.00  0.00    +0.000 HD
ENDROOT
BRANCH   5  14
ATOM     14  C   UNL     1       2.918   6.598  18.421  0.00  0.00    +0.000 A 
ATOM     15  C   UNL     1       2.525   5.981  19.613  0.00  0.00    +0.000 A 
ATOM     16  C   UNL     1       1.767   6.653  20.573  0.00  0.00    +0.000 A 
ATOM     17  C   UNL     1       1.380   7.978  20.365  0.00  0.00    +0.000 A 
ATOM     18  C   UNL     1       1.763   8.610  19.173  0.00  0.00    +0.000 A 
ATOM     19  C   UNL     1       2.522   7.925  18.213  0.00  0.00    +0.000 A 
BRANCH  17  20
ATOM     20  C   UNL     1       0.575   8.713  21.406  0.00  0.00    +0.000 C 
ATOM     21  F   UNL     1       1.220   8.845  22.600  0.00  0.00    +0.000 F 
ATOM     22  F   UNL     1       0.256   9.978  21.016  0.00  0.00    +0.000 F 
ATOM     23  F   UNL     1      -0.606   8.098  21.688  0.00  0.00    +0.000 F 
ENDBRANCH  17  20
ENDBRANCH   5  14
TORSDOF 2
ENDMDL
MODEL 7
REMARK VINA RESULT:      -7.9      3.560      3.958
REMARK  Name = 
REMARK  3 active torsions:
REMARK  status: ('A' for Active; 'I' for Inactive)
REMARK    1  A    between atoms: C_1  and  C_2
REMARK    2  A    between atoms: N_5  and  C_6
REMARK    3  A    between atoms: C_9  and  C_10
REMARK                            x       y       z     vdW  Elec       q    Type
REMARK                         _______ _______ _______ _____ _____    ______ ____
ROOT
ATOM      1  C   UNL     1       7.782   5.832  19.651  0.00  0.00    +0.000 C 
ATOM      2  C   UNL     1       7.031   5.552  18.386  0.00  0.00    +0.000 A 
ATOM      3  N   UNL     1       5.718   5.846  18.397  0.00  0.00    +0.000 NA
ATOM      4  C   UNL     1       4.951   5.646  17.295  0.00  0.00    +0.000 A 
ATOM      5  N   UNL     1       3.578   5.931  17.322  0.00  0.00    +0.000 N 
ATOM      6  C   UNL     1       5.588   5.118  16.160  0.00  0.00    +0.000 A 
ATOM      7  C   UNL     1       5.218   4.770  14.828  0.00  0.00    +0.000 A 
ATOM      8  C   UNL     1       6.349   4.298  14.192  0.00  0.00    +0.000 A 
ATOM      9  N   UNL     1       7.387   4.344  15.086  0.00  0.00    +0.000 N 
ATOM     10  C   UNL     1       6.944   4.850  16.278  0.00  0.00    +0.000 A 
ATOM     11  N   UNL     1       7.722   5.041  17.353  0.00  0.00    +0.000 NA
ATOM     12  H   UNL     1       3.057   5.557  16.544  0.00  0.00    +0.000 HD
ATOM     13  H   UNL     1       8.339   4.065  14.917  0.00  0.00    +0.000 HD
ENDROOT
BRANCH   5  14
ATOM     14  C   UNL     1       2.830   6.617  18.295  0.00  0.00    +0.000 A 
ATOM     15  C   UNL     1       2.453   7.956  18.148  0.00  0.00    +0.000 A 
ATOM     16  C   UNL     1       1.777   8.643  19.156  0.00  0.00    +0.000 A 
ATOM     17  C   UNL     1       1.453   8.001  20.353  0.00  0.00    +0.000 A 
ATOM     18  C   UNL     1       1.826   6.659  20.517  0.00  0.00    +0.000 A 
ATOM     19  C   UNL     1       2.508   5.978  19.498  0.00  0.00    +0.000 A 
BRANCH  17  20
ATOM     20  C   UNL     1       0.708   8.734  21.438  0.00  0.00    +0.000 C 
ATOM     21  F   UNL     1       1.406   8.839  22.604  0.00  0.00    +0.000 F 
ATOM     22  F   UNL     1       0.393  10.010  21.080  0.00  0.00    +0.000 F 
ATOM     23  F   UNL     1      -0.470   8.135  21.764  0.00  0.00    +0.000 F 
ENDBRANCH  17  20
ENDBRANCH   5  14
TORSDOF 2
ENDMDL
MODEL 8
REMARK VINA RESULT:      -7.8      0.854      1.250
REMARK  Name = 
REMARK  3 active torsions:
REMARK  status: ('A' for Active; 'I' for Inactive)
REMARK    1  A    between atoms: C_1  and  C_2
REMARK    2  A    between atoms: N_5  and  C_6
REMARK    3  A    between atoms: C_9  and  C_10
REMARK                            x       y       z     vdW  Elec       q    Type
REMARK                         _______ _______ _______ _____ _____    ______ ____
ROOT
ATOM      1  C   UNL     1       7.663   6.825  17.261  0.00  0.00    +0.000 C 
ATOM      2  C   UNL     1       7.132   5.878  16.230  0.00  0.00    +0.000 A 
ATOM      3  N   UNL     1       6.117   5.084  16.617  0.00  0.00    +0.000 NA
ATOM      4  C   UNL     1       5.552   4.203  15.753  0.00  0.00    +0.000 A 
ATOM      5  N   UNL     1       4.512   3.362  16.173  0.00  0.00    +0.000 N 
ATOM      6  C   UNL     1       6.079   4.158  14.451  0.00  0.00    +0.000 A 
ATOM      7  C   UNL     1       5.815   3.442  13.248  0.00  0.00    +0.000 A 
ATOM      8  C   UNL     1       6.711   3.884  12.296  0.00  0.00    +0.000 A 
ATOM      9  N   UNL     1       7.509   4.836  12.875  0.00  0.00    +0.000 N 
ATOM     10  C   UNL     1       7.130   5.022  14.178  0.00  0.00    +0.000 A 
ATOM     11  N   UNL     1       7.702   5.901  15.012  0.00  0.00    +0.000 NA
ATOM     12  H   UNL     1       4.304   2.606  15.539  0.00  0.00    +0.000 HD
ATOM     13  H   UNL     1       8.259   5.343  12.435  0.00  0.00    +0.000 HD
ENDROOT
BRANCH   5  14
ATOM     14  C   UNL     1       3.761   3.399  17.360  0.00  0.00    +0.000 A 
ATOM     15  C   UNL     1       3.623   2.286  18.197  0.00  0.00    +0.000 A 
ATOM     16  C   UNL     1       2.811   2.318  19.332  0.00  0.00    +0.000 A 
ATOM     17  C   UNL     1       2.110   3.478  19.666  0.00  0.00    +0.000 A 
ATOM     18  C   UNL     1       2.236   4.601  18.835  0.00  0.00    +0.000 A 
ATOM     19  C   UNL     1       3.052   4.558  17.695  0.00  0.00    +0.000 A 
BRANCH  17  20
ATOM     20  C   UNL     1       1.246   3.522  20.899  0.00  0.00    +0.000 C 
ATOM     21  F   UNL     1       1.942   3.771  22.044  0.00  0.00    +0.000 F 
ATOM     22  F   UNL     1       0.292   4.491  20.829  0.00  0.00    +0.000 F 
ATOM     23  F   UNL     1       0.579   2.355  21.116  0.00  0.00    +0.000 F 
ENDBRANCH  17  20
ENDBRANCH   5  14
TORSDOF 2
ENDMDL
MODEL 9
REMARK VINA RESULT:      -7.6      4.471      5.558
REMARK  Name = 
REMARK  3 active torsions:
REMARK  status: ('A' for Active; 'I' for Inactive)
REMARK    1  A    between atoms: C_1  and  C_2
REMARK    2  A    between atoms: N_5  and  C_6
REMARK    3  A    between atoms: C_9  and  C_10
REMARK                            x       y       z     vdW  Elec       q    Type
REMARK                         _______ _______ _______ _____ _____    ______ ____
ROOT
ATOM      1  C   UNL     1       1.767   2.674  18.289  0.00  0.00    +0.000 C 
ATOM      2  C   UNL     1       2.867   3.525  17.735  0.00  0.00    +0.000 A 
ATOM      3  N   UNL     1       2.734   4.854  17.903  0.00  0.00    +0.000 NA
ATOM      4  C   UNL     1       3.685   5.712  17.454  0.00  0.00    +0.000 A 
ATOM      5  N   UNL     1       3.526   7.096  17.612  0.00  0.00    +0.000 N 
ATOM      6  C   UNL     1       4.798   5.150  16.806  0.00  0.00    +0.000 A 
ATOM      7  C   UNL     1       6.001   5.625  16.210  0.00  0.00    +0.000 A 
ATOM      8  C   UNL     1       6.697   4.527  15.746  0.00  0.00    +0.000 A 
ATOM      9  N   UNL     1       5.961   3.407  16.034  0.00  0.00    +0.000 N 
ATOM     10  C   UNL     1       4.814   3.768  16.689  0.00  0.00    +0.000 A 
ATOM     11  N   UNL     1       3.890   2.901  17.125  0.00  0.00    +0.000 NA
ATOM     12  H   UNL     1       4.164   7.655  17.067  0.00  0.00    +0.000 HD
ATOM     13  H   UNL     1       6.206   2.454  15.821  0.00  0.00    +0.000 HD
ENDROOT
BRANCH   5  14
ATOM     14  C   UNL     1       2.582   7.803  18.377  0.00  0.00    +0.000 A 
ATOM     15  C   UNL     1       1.941   8.953  17.905  0.00  0.00    +0.000 A 
ATOM     16  C   UNL     1       1.064   9.686  18.706  0.00  0.00    +0.000 A 
ATOM     17  C   UNL     1       0.800   9.281  20.015  0.00  0.00    +0.000 A 
ATOM     18  C   UNL     1       1.437   8.131  20.504  0.00  0.00    +0.000 A 
ATOM     19  C   UNL     1       2.319   7.403  19.692  0.00  0.00    +0.000 A 
BRANCH  17  20
ATOM     20  C   UNL     1      -0.159  10.059  20.878  0.00  0.00    +0.000 C 
ATOM     21  F   UNL     1      -1.169  10.648  20.177  0.00  0.00    +0.000 F 
ATOM     22  F   UNL     1      -0.766   9.278  21.814  0.00  0.00    +0.000 F 
ATOM     23  F   UNL     1       0.450  11.064  21.567  0.00  0.00    +0.000 F 
ENDBRANCH  17  20
ENDBRANCH   5  14
TORSDOF 2
ENDMDL
