MODEL 1
REMARK VINA RESULT:      -8.2      0.000      0.000
REMARK  Name = 
REMARK  3 active torsions:
REMARK  status: ('A' for Active; 'I' for Inactive)
REMARK    1  A    between atoms: C_2  and  C_3
REMARK    2  A    between atoms: C_2  and  C_13
REMARK    3  A    between atoms: C_18  and  C_20
REMARK                            x       y       z     vdW  Elec       q    Type
REMARK                         _______ _______ _______ _____ _____    ______ ____
ROOT
ATOM      1  C   UNL     1       4.948   5.306  18.870  0.00  0.00    +0.000 C 
ATOM      2  C   UNL     1       6.315   5.832  19.315  0.00  0.00    +0.000 C 
ATOM      3  C   UNL     1       7.397   5.776  18.227  0.00  0.00    +0.000 C 
ATOM      4  C   UNL     1       7.385   4.472  17.425  0.00  0.00    +0.000 C 
ATOM      5  N   UNL     1       6.029   4.126  17.003  0.00  0.00    +0.000 N 
ATOM      6  C   UNL     1       5.545   3.923  15.707  0.00  0.00    +0.000 C 
ATOM      7  O   UNL     1       4.439   3.414  15.501  0.00  0.00    +0.000 OA
ATOM      8  C   UNL     1       5.081   3.993  18.101  0.00  0.00    +0.000 C 
ENDROOT
BRANCH   6   9
ATOM      9  C   UNL     1       6.337   4.271  14.511  0.00  0.00    +0.000 A 
ATOM     10  C   UNL     1       6.056   3.622  13.303  0.00  0.00    +0.000 A 
ATOM     11  C   UNL     1       6.767   3.957  12.153  0.00  0.00    +0.000 A 
ATOM     12  C   UNL     1       7.741   4.937  12.250  0.00  0.00    +0.000 A 
ATOM     13  N   UNL     1       8.007   5.620  13.385  0.00  0.00    +0.000 NA
ATOM     14  C   UNL     1       7.269   5.295  14.479  0.00  0.00    +0.000 A 
ENDBRANCH   6   9
BRANCH   1  16
ATOM     15  O   UNL     1       4.405   6.609  16.875  0.00  0.00    +0.000 OA
ATOM     16  C   UNL     1       4.168   6.352  18.055  0.00  0.00    +0.000 C 
BRANCH  16  17
ATOM     17  C   UNL     1       3.074   7.085  18.741  0.00  0.00    +0.000 A 
ATOM     18  C   UNL     1       2.610   6.633  19.977  0.00  0.00    +0.000 A 
ATOM     19  C   UNL     1       1.625   7.358  20.657  0.00  0.00    +0.000 A 
ATOM     20  C   UNL     1       1.099   8.542  20.110  0.00  0.00    +0.000 A 
ATOM     21  C   UNL     1       0.145   9.314  20.793  0.00  0.00    +0.000 A 
ATOM     22  C   UNL     1      -0.340  10.502  20.241  0.00  0.00    +0.000 A 
ATOM     23  C   UNL     1       0.106  10.926  18.990  0.00  0.00    +0.000 A 
ATOM     24  C   UNL     1       1.040  10.162  18.293  0.00  0.00    +0.000 A 
ATOM     25  C   UNL     1       1.551   8.979  18.843  0.00  0.00    +0.000 A 
ATOM     26  C   UNL     1       2.521   8.232  18.163  0.00  0.00    +0.000 A 
ENDBRANCH  16  17
ENDBRANCH   1  16
TORSDOF 3
ENDMDL
MODEL 2
REMARK VINA RESULT:      -8.2      2.196      3.861
REMARK  Name = 
REMARK  3 active torsions:
REMARK  status: ('A' for Active; 'I' for Inactive)
REMARK    1  A    between atoms: C_2  and  C_3
REMARK    2  A    between atoms: C_2  and  C_13
REMARK    3  A    between atoms: C_18  and  C_20
REMARK                            x       y       z     vdW  Elec       q    Type
REMARK                         _______ _______ _______ _____ _____    ______ ____
ROOT
ATOM      1  C   UNL     1       1.056   4.419  19.477  0.00  0.00    +0.000 C 
ATOM      2  C   UNL     1       1.222   2.920  19.745  0.00  0.00    +0.000 C 
ATOM      3  C   UNL     1       2.573   2.346  19.297  0.00  0.00    +0.000 C 
ATOM      4  C   UNL     1       3.027   2.858  17.928  0.00  0.00    +0.000 C 
ATOM      5  N   UNL     1       2.883   4.309  17.834  0.00  0.00    +0.000 N 
ATOM      6  C   UNL     1       3.864   5.267  17.562  0.00  0.00    +0.000 C 
ATOM      7  O   UNL     1       3.572   6.434  17.287  0.00  0.00    +0.000 OA
ATOM      8  C   UNL     1       1.527   4.787  18.072  0.00  0.00    +0.000 C 
ENDROOT
BRANCH   6   9
ATOM      9  C   UNL     1       5.302   4.935  17.552  0.00  0.00    +0.000 A 
ATOM     10  C   UNL     1       5.935   4.706  16.325  0.00  0.00    +0.000 A 
ATOM     11  C   UNL     1       7.298   4.424  16.288  0.00  0.00    +0.000 A 
ATOM     12  C   UNL     1       7.989   4.380  17.488  0.00  0.00    +0.000 A 
ATOM     13  N   UNL     1       7.425   4.642  18.687  0.00  0.00    +0.000 NA
ATOM     14  C   UNL     1       6.102   4.952  18.684  0.00  0.00    +0.000 A 
ENDBRANCH   6   9
BRANCH   1  16
ATOM     15  O   UNL     1       2.551   4.816  21.369  0.00  0.00    +0.000 OA
ATOM     16  C   UNL     1       1.762   5.273  20.543  0.00  0.00    +0.000 C 
BRANCH  16  17
ATOM     17  C   UNL     1       1.467   6.728  20.567  0.00  0.00    +0.000 A 
ATOM     18  C   UNL     1       1.892   7.537  19.512  0.00  0.00    +0.000 A 
ATOM     19  C   UNL     1       1.559   8.895  19.499  0.00  0.00    +0.000 A 
ATOM     20  C   UNL     1       0.795   9.457  20.538  0.00  0.00    +0.000 A 
ATOM     21  C   UNL     1       0.406  10.807  20.525  0.00  0.00    +0.000 A 
ATOM     22  C   UNL     1      -0.379  11.334  21.553  0.00  0.00    +0.000 A 
ATOM     23  C   UNL     1      -0.770  10.525  22.619  0.00  0.00    +0.000 A 
ATOM     24  C   UNL     1      -0.378   9.188  22.654  0.00  0.00    +0.000 A 
ATOM     25  C   UNL     1       0.392   8.641  21.620  0.00  0.00    +0.000 A 
ATOM     26  C   UNL     1       0.751   7.287  21.631  0.00  0.00    +0.000 A 
ENDBRANCH  16  17
ENDBRANCH   1  16
TORSDOF 3
ENDMDL
MODEL 3
REMARK VINA RESULT:      -8.0      2.140      3.629
REMARK  Name = 
REMARK  3 active torsions:
REMARK  status: ('A' for Active; 'I' for Inactive)
REMARK    1  A    between atoms: C_2  and  C_3
REMARK    2  A    between atoms: C_2  and  C_13
REMARK    3  A    between atoms: C_18  and  C_20
REMARK                            x       y       z     vdW  Elec       q    Type
REMARK                         _______ _______ _______ _____ _____    ______ ____
ROOT
ATOM      1  C   UNL     1       1.095   4.314  19.803  0.00  0.00    +0.000 C 
ATOM      2  C   UNL     1       1.380   2.883  20.266  0.00  0.00    +0.000 C 
ATOM      3  C   UNL     1       2.743   2.336  19.819  0.00  0.00    +0.000 C 
ATOM      4  C   UNL     1       3.086   2.674  18.366  0.00  0.00    +0.000 C 
ATOM      5  N   UNL     1       2.834   4.085  18.080  0.00  0.00    +0.000 N 
ATOM      6  C   UNL     1       3.729   5.053  17.616  0.00  0.00    +0.000 C 
ATOM      7  O   UNL     1       3.341   6.149  17.200  0.00  0.00    +0.000 OA
ATOM      8  C   UNL     1       1.463   4.506  18.333  0.00  0.00    +0.000 C 
ENDROOT
BRANCH   6   9
ATOM      9  C   UNL     1       5.185   4.814  17.562  0.00  0.00    +0.000 A 
ATOM     10  C   UNL     1       5.791   4.610  16.317  0.00  0.00    +0.000 A 
ATOM     11  C   UNL     1       7.168   4.415  16.238  0.00  0.00    +0.000 A 
ATOM     12  C   UNL     1       7.898   4.432  17.415  0.00  0.00    +0.000 A 
ATOM     13  N   UNL     1       7.358   4.674  18.629  0.00  0.00    +0.000 NA
ATOM     14  C   UNL     1       6.018   4.898  18.666  0.00  0.00    +0.000 A 
ENDBRANCH   6   9
BRANCH   1  16
ATOM     15  O   UNL     1       2.628   5.067  21.551  0.00  0.00    +0.000 OA
ATOM     16  C   UNL     1       1.794   5.355  20.693  0.00  0.00    +0.000 C 
BRANCH  16  17
ATOM     17  C   UNL     1       1.435   6.783  20.498  0.00  0.00    +0.000 A 
ATOM     18  C   UNL     1       0.638   7.430  21.444  0.00  0.00    +0.000 A 
ATOM     19  C   UNL     1       0.351   8.791  21.297  0.00  0.00    +0.000 A 
ATOM     20  C   UNL     1       0.860   9.519  20.206  0.00  0.00    +0.000 A 
ATOM     21  C   UNL     1       0.627  10.896  20.060  0.00  0.00    +0.000 A 
ATOM     22  C   UNL     1       1.170  11.602  18.984  0.00  0.00    +0.000 A 
ATOM     23  C   UNL     1       1.936  10.939  18.027  0.00  0.00    +0.000 A 
ATOM     24  C   UNL     1       2.162   9.569  18.149  0.00  0.00    +0.000 A 
ATOM     25  C   UNL     1       1.641   8.851  19.234  0.00  0.00    +0.000 A 
ATOM     26  C   UNL     1       1.903   7.484  19.382  0.00  0.00    +0.000 A 
ENDBRANCH  16  17
ENDBRANCH   1  16
TORSDOF 3
ENDMDL
MODEL 4
REMARK VINA RESULT:      -8.0      2.150      3.946
REMARK  Name = 
REMARK  3 active torsions:
REMARK  status: ('A' for Active; 'I' for Inactive)
REMARK    1  A    between atoms: C_2  and  C_3
REMARK    2  A    between atoms: C_2  and  C_13
REMARK    3  A    between atoms: C_18  and  C_20
REMARK                            x       y       z     vdW  Elec       q    Type
REMARK                         _______ _______ _______ _____ _____    ______ ____
ROOT
ATOM      1  C   UNL     1       1.253   4.732  19.329  0.00  0.00    +0.000 C 
ATOM      2  C   UNL     1       1.405   3.235  19.610  0.00  0.00    +0.000 C 
ATOM      3  C   UNL     1       2.786   2.665  19.256  0.00  0.00    +0.000 C 
ATOM      4  C   UNL     1       3.328   3.176  17.918  0.00  0.00    +0.000 C 
ATOM      5  N   UNL     1       3.185   4.626  17.811  0.00  0.00    +0.000 N 
ATOM      6  C   UNL     1       4.178   5.587  17.603  0.00  0.00    +0.000 C 
ATOM      7  O   UNL     1       3.901   6.753  17.306  0.00  0.00    +0.000 OA
ATOM      8  C   UNL     1       1.814   5.099  17.957  0.00  0.00    +0.000 C 
ENDROOT
BRANCH   6   9
ATOM      9  C   UNL     1       5.615   5.261  17.690  0.00  0.00    +0.000 A 
ATOM     10  C   UNL     1       6.278   5.448  18.908  0.00  0.00    +0.000 A 
ATOM     11  C   UNL     1       7.626   5.116  19.025  0.00  0.00    +0.000 A 
ATOM     12  C   UNL     1       8.270   4.603  17.911  0.00  0.00    +0.000 A 
ATOM     13  N   UNL     1       7.654   4.363  16.734  0.00  0.00    +0.000 NA
ATOM     14  C   UNL     1       6.330   4.662  16.665  0.00  0.00    +0.000 A 
ENDBRANCH   6   9
BRANCH   1  16
ATOM     15  O   UNL     1       2.678   5.155  21.267  0.00  0.00    +0.000 OA
ATOM     16  C   UNL     1       1.883   5.592  20.437  0.00  0.00    +0.000 C 
BRANCH  16  17
ATOM     17  C   UNL     1       1.501   7.026  20.498  0.00  0.00    +0.000 A 
ATOM     18  C   UNL     1       1.813   7.869  19.430  0.00  0.00    +0.000 A 
ATOM     19  C   UNL     1       1.398   9.205  19.456  0.00  0.00    +0.000 A 
ATOM     20  C   UNL     1       0.664   9.709  20.545  0.00  0.00    +0.000 A 
ATOM     21  C   UNL     1       0.194  11.032  20.574  0.00  0.00    +0.000 A 
ATOM     22  C   UNL     1      -0.558  11.499  21.654  0.00  0.00    +0.000 A 
ATOM     23  C   UNL     1      -0.835  10.657  22.730  0.00  0.00    +0.000 A 
ATOM     24  C   UNL     1      -0.361   9.347  22.724  0.00  0.00    +0.000 A 
ATOM     25  C   UNL     1       0.377   8.858  21.638  0.00  0.00    +0.000 A 
ATOM     26  C   UNL     1       0.817   7.529  21.610  0.00  0.00    +0.000 A 
ENDBRANCH  16  17
ENDBRANCH   1  16
TORSDOF 3
ENDMDL
MODEL 5
REMARK VINA RESULT:      -8.0      4.547      9.094
REMARK  Name = 
REMARK  3 active torsions:
REMARK  status: ('A' for Active; 'I' for Inactive)
REMARK    1  A    between atoms: C_2  and  C_3
REMARK    2  A    between atoms: C_2  and  C_13
REMARK    3  A    between atoms: C_18  and  C_20
REMARK                            x       y       z     vdW  Elec       q    Type
REMARK                         _______ _______ _______ _____ _____    ______ ____
ROOT
ATOM      1  C   UNL     1      -0.090  10.027  19.369  0.00  0.00    +0.000 C 
ATOM      2  C   UNL     1      -1.154  10.417  18.340  0.00  0.00    +0.000 C 
ATOM      3  C   UNL     1      -1.135  11.900  17.944  0.00  0.00    +0.000 C 
ATOM      4  C   UNL     1      -0.945  12.844  19.134  0.00  0.00    +0.000 C 
ATOM      5  N   UNL     1       0.147  12.393  19.995  0.00  0.00    +0.000 N 
ATOM      6  C   UNL     1       1.306  13.082  20.364  0.00  0.00    +0.000 C 
ATOM      7  O   UNL     1       2.037  12.679  21.274  0.00  0.00    +0.000 OA
ATOM      8  C   UNL     1      -0.022  11.041  20.509  0.00  0.00    +0.000 C 
ENDROOT
BRANCH   6   9
ATOM      9  C   UNL     1       1.708  14.346  19.715  0.00  0.00    +0.000 A 
ATOM     10  C   UNL     1       2.507  14.291  18.567  0.00  0.00    +0.000 A 
ATOM     11  C   UNL     1       2.871  15.468  17.917  0.00  0.00    +0.000 A 
ATOM     12  C   UNL     1       2.421  16.669  18.441  0.00  0.00    +0.000 A 
ATOM     13  N   UNL     1       1.609  16.760  19.517  0.00  0.00    +0.000 NA
ATOM     14  C   UNL     1       1.241  15.591  20.104  0.00  0.00    +0.000 A 
ENDBRANCH   6   9
BRANCH   1  16
ATOM     15  O   UNL     1       1.866  10.694  18.066  0.00  0.00    +0.000 OA
ATOM     16  C   UNL     1       1.290   9.826  18.719  0.00  0.00    +0.000 C 
BRANCH  16  17
ATOM     17  C   UNL     1       1.950   8.508  18.898  0.00  0.00    +0.000 A 
ATOM     18  C   UNL     1       1.681   7.750  20.039  0.00  0.00    +0.000 A 
ATOM     19  C   UNL     1       2.250   6.480  20.179  0.00  0.00    +0.000 A 
ATOM     20  C   UNL     1       3.090   5.954  19.180  0.00  0.00    +0.000 A 
ATOM     21  C   UNL     1       3.635   4.663  19.273  0.00  0.00    +0.000 A 
ATOM     22  C   UNL     1       4.442   4.154  18.253  0.00  0.00    +0.000 A 
ATOM     23  C   UNL     1       4.731   4.932  17.134  0.00  0.00    +0.000 A 
ATOM     24  C   UNL     1       4.211   6.222  17.035  0.00  0.00    +0.000 A 
ATOM     25  C   UNL     1       3.383   6.739  18.041  0.00  0.00    +0.000 A 
ATOM     26  C   UNL     1       2.824   8.017  17.923  0.00  0.00    +0.000 A 
ENDBRANCH  16  17
ENDBRANCH   1  16
TORSDOF 3
ENDMDL
MODEL 6
REMARK VINA RESULT:      -8.0      4.434      8.871
REMARK  Name = 
REMARK  3 active torsions:
REMARK  status: ('A' for Active; 'I' for Inactive)
REMARK    1  A    between atoms: C_2  and  C_3
REMARK    2  A    between atoms: C_2  and  C_13
REMARK    3  A    between atoms: C_18  and  C_20
REMARK                            x       y       z     vdW  Elec       q    Type
REMARK                         _______ _______ _______ _____ _____    ______ ____
ROOT
ATOM      1  C   UNL     1       1.150   9.174  22.000  0.00  0.00    +0.000 C 
ATOM      2  C   UNL     1       0.349   9.566  23.245  0.00  0.00    +0.000 C 
ATOM      3  C   UNL     1      -0.945  10.335  22.945  0.00  0.00    +0.000 C 
ATOM      4  C   UNL     1      -0.778  11.407  21.865  0.00  0.00    +0.000 C 
ATOM      5  N   UNL     1      -0.060  10.880  20.706  0.00  0.00    +0.000 N 
ATOM      6  C   UNL     1      -0.478  10.824  19.374  0.00  0.00    +0.000 C 
ATOM      7  O   UNL     1       0.308  10.564  18.458  0.00  0.00    +0.000 OA
ATOM      8  C   UNL     1       1.257  10.340  21.019  0.00  0.00    +0.000 C 
ENDROOT
BRANCH   6   9
ATOM      9  C   UNL     1      -1.872  11.105  18.977  0.00  0.00    +0.000 A 
ATOM     10  C   UNL     1      -2.508  10.235  18.084  0.00  0.00    +0.000 A 
ATOM     11  C   UNL     1      -3.834  10.460  17.721  0.00  0.00    +0.000 A 
ATOM     12  C   UNL     1      -4.484  11.555  18.267  0.00  0.00    +0.000 A 
ATOM     13  N   UNL     1      -3.920  12.389  19.167  0.00  0.00    +0.000 NA
ATOM     14  C   UNL     1      -2.638  12.119  19.529  0.00  0.00    +0.000 A 
ENDBRANCH   6   9
BRANCH   1  16
ATOM     15  O   UNL     1      -0.610   7.598  21.380  0.00  0.00    +0.000 OA
ATOM     16  C   UNL     1       0.575   7.923  21.317  0.00  0.00    +0.000 C 
BRANCH  16  17
ATOM     17  C   UNL     1       1.510   7.067  20.544  0.00  0.00    +0.000 A 
ATOM     18  C   UNL     1       1.657   5.721  20.884  0.00  0.00    +0.000 A 
ATOM     19  C   UNL     1       2.487   4.897  20.118  0.00  0.00    +0.000 A 
ATOM     20  C   UNL     1       3.176   5.409  19.003  0.00  0.00    +0.000 A 
ATOM     21  C   UNL     1       3.979   4.593  18.188  0.00  0.00    +0.000 A 
ATOM     22  C   UNL     1       4.628   5.119  17.069  0.00  0.00    +0.000 A 
ATOM     23  C   UNL     1       4.502   6.472  16.759  0.00  0.00    +0.000 A 
ATOM     24  C   UNL     1       3.723   7.298  17.567  0.00  0.00    +0.000 A 
ATOM     25  C   UNL     1       3.049   6.780  18.681  0.00  0.00    +0.000 A 
ATOM     26  C   UNL     1       2.231   7.599  19.469  0.00  0.00    +0.000 A 
ENDBRANCH  16  17
ENDBRANCH   1  16
TORSDOF 3
ENDMDL
MODEL 7
REMARK VINA RESULT:      -8.0      4.450      9.014
REMARK  Name = 
REMARK  3 active torsions:
REMARK  status: ('A' for Active; 'I' for Inactive)
REMARK    1  A    between atoms: C_2  and  C_3
REMARK    2  A    between atoms: C_2  and  C_13
REMARK    3  A    between atoms: C_18  and  C_20
REMARK                            x       y       z     vdW  Elec       q    Type
REMARK                         _______ _______ _______ _____ _____    ______ ____
ROOT
ATOM      1  C   UNL     1      -0.116  10.104  19.607  0.00  0.00    +0.000 C 
ATOM      2  C   UNL     1      -1.215  10.424  18.591  0.00  0.00    +0.000 C 
ATOM      3  C   UNL     1      -1.158  11.851  18.028  0.00  0.00    +0.000 C 
ATOM      4  C   UNL     1      -0.871  12.912  19.093  0.00  0.00    +0.000 C 
ATOM      5  N   UNL     1       0.246  12.513  19.947  0.00  0.00    +0.000 N 
ATOM      6  C   UNL     1       1.448  13.186  20.181  0.00  0.00    +0.000 C 
ATOM      7  O   UNL     1       2.209  12.855  21.096  0.00  0.00    +0.000 OA
ATOM      8  C   UNL     1       0.050  11.235  20.620  0.00  0.00    +0.000 C 
ENDROOT
BRANCH   6   9
ATOM      9  C   UNL     1       1.865  14.350  19.374  0.00  0.00    +0.000 A 
ATOM     10  C   UNL     1       1.374  15.616  19.711  0.00  0.00    +0.000 A 
ATOM     11  C   UNL     1       1.779  16.734  18.986  0.00  0.00    +0.000 A 
ATOM     12  C   UNL     1       2.669  16.547  17.941  0.00  0.00    +0.000 A 
ATOM     13  N   UNL     1       3.202  15.349  17.616  0.00  0.00    +0.000 NA
ATOM     14  C   UNL     1       2.815  14.285  18.368  0.00  0.00    +0.000 A 
ENDBRANCH   6   9
BRANCH   1  16
ATOM     15  O   UNL     1       1.821  10.552  18.187  0.00  0.00    +0.000 OA
ATOM     16  C   UNL     1       1.220   9.770  18.922  0.00  0.00    +0.000 C 
BRANCH  16  17
ATOM     17  C   UNL     1       1.804   8.427  19.167  0.00  0.00    +0.000 A 
ATOM     18  C   UNL     1       1.529   7.763  20.364  0.00  0.00    +0.000 A 
ATOM     19  C   UNL     1       2.024   6.471  20.571  0.00  0.00    +0.000 A 
ATOM     20  C   UNL     1       2.793   5.830  19.583  0.00  0.00    +0.000 A 
ATOM     21  C   UNL     1       3.261   4.515  19.746  0.00  0.00    +0.000 A 
ATOM     22  C   UNL     1       3.998   3.890  18.737  0.00  0.00    +0.000 A 
ATOM     23  C   UNL     1       4.295   4.575  17.560  0.00  0.00    +0.000 A 
ATOM     24  C   UNL     1       3.852   5.885  17.391  0.00  0.00    +0.000 A 
ATOM     25  C   UNL     1       3.094   6.519  18.385  0.00  0.00    +0.000 A 
ATOM     26  C   UNL     1       2.611   7.819  18.200  0.00  0.00    +0.000 A 
ENDBRANCH  16  17
ENDBRANCH   1  16
TORSDOF 3
ENDMDL
MODEL 8
REMARK VINA RESULT:      -7.9      4.844      9.111
REMARK  Name = 
REMARK  3 active torsions:
REMARK  status: ('A' for Active; 'I' for Inactive)
REMARK    1  A    between atoms: C_2  and  C_3
REMARK    2  A    between atoms: C_2  and  C_13
REMARK    3  A    between atoms: C_18  and  C_20
REMARK                            x       y       z     vdW  Elec       q    Type
REMARK                         _______ _______ _______ _____ _____    ______ ____
ROOT
ATOM      1  C   UNL     1       0.033  10.044  19.464  0.00  0.00    +0.000 C 
ATOM      2  C   UNL     1      -1.094  10.406  18.493  0.00  0.00    +0.000 C 
ATOM      3  C   UNL     1      -1.121  11.886  18.083  0.00  0.00    +0.000 C 
ATOM      4  C   UNL     1      -0.881  12.844  19.253  0.00  0.00    +0.000 C 
ATOM      5  N   UNL     1       0.264  12.419  20.055  0.00  0.00    +0.000 N 
ATOM      6  C   UNL     1       1.430  13.130  20.353  0.00  0.00    +0.000 C 
ATOM      7  O   UNL     1       2.217  12.749  21.224  0.00  0.00    +0.000 OA
ATOM      8  C   UNL     1       0.146  11.069  20.590  0.00  0.00    +0.000 C 
ENDROOT
BRANCH   6   9
ATOM      9  C   UNL     1       1.774  14.394  19.672  0.00  0.00    +0.000 A 
ATOM     10  C   UNL     1       2.604  14.350  18.546  0.00  0.00    +0.000 A 
ATOM     11  C   UNL     1       2.916  15.525  17.866  0.00  0.00    +0.000 A 
ATOM     12  C   UNL     1       2.382  16.713  18.337  0.00  0.00    +0.000 A 
ATOM     13  N   UNL     1       1.539  16.790  19.390  0.00  0.00    +0.000 NA
ATOM     14  C   UNL     1       1.225  15.621  20.007  0.00  0.00    +0.000 A 
ENDBRANCH   6   9
BRANCH   1  16
ATOM     15  O   UNL     1       1.983  10.775  18.187  0.00  0.00    +0.000 OA
ATOM     16  C   UNL     1       1.377   9.859  18.741  0.00  0.00    +0.000 C 
BRANCH  16  17
ATOM     17  C   UNL     1       1.965   8.495  18.716  0.00  0.00    +0.000 A 
ATOM     18  C   UNL     1       2.891   8.161  17.726  0.00  0.00    +0.000 A 
ATOM     19  C   UNL     1       3.495   6.900  17.738  0.00  0.00    +0.000 A 
ATOM     20  C   UNL     1       3.183   5.963  18.740  0.00  0.00    +0.000 A 
ATOM     21  C   UNL     1       3.811   4.708  18.803  0.00  0.00    +0.000 A 
ATOM     22  C   UNL     1       3.505   3.807  19.826  0.00  0.00    +0.000 A 
ATOM     23  C   UNL     1       2.554   4.138  20.789  0.00  0.00    +0.000 A 
ATOM     24  C   UNL     1       1.910   5.373  20.730  0.00  0.00    +0.000 A 
ATOM     25  C   UNL     1       2.222   6.295  19.722  0.00  0.00    +0.000 A 
ATOM     26  C   UNL     1       1.608   7.553  19.686  0.00  0.00    +0.000 A 
ENDBRANCH  16  17
ENDBRANCH   1  16
TORSDOF 3
ENDMDL
MODEL 9
REMARK VINA RESULT:      -7.8      4.232      8.906
REMARK  Name = 
REMARK  3 active torsions:
REMARK  status: ('A' for Active; 'I' for Inactive)
REMARK    1  A    between atoms: C_2  and  C_3
REMARK    2  A    between atoms: C_2  and  C_13
REMARK    3  A    between atoms: C_18  and  C_20
REMARK                            x       y       z     vdW  Elec       q    Type
REMARK                         _______ _______ _______ _____ _____    ______ ____
ROOT
ATOM      1  C   UNL     1       1.939   9.209  19.940  0.00  0.00    +0.000 C 
ATOM      2  C   UNL     1       1.285   8.272  20.959  0.00  0.00    +0.000 C 
ATOM      3  C   UNL     1      -0.234   8.450  21.094  0.00  0.00    +0.000 C 
ATOM      4  C   UNL     1      -0.673   9.916  21.121  0.00  0.00    +0.000 C 
ATOM      5  N   UNL     1      -0.029  10.679  20.054  0.00  0.00    +0.000 N 
ATOM      6  C   UNL     1      -0.626  11.412  19.025  0.00  0.00    +0.000 C 
ATOM      7  O   UNL     1       0.024  12.195  18.325  0.00  0.00    +0.000 OA
ATOM      8  C   UNL     1       1.427  10.640  20.093  0.00  0.00    +0.000 C 
ENDROOT
BRANCH   6   9
ATOM      9  C   UNL     1      -2.070  11.323  18.734  0.00  0.00    +0.000 A 
ATOM     10  C   UNL     1      -2.532  10.286  17.915  0.00  0.00    +0.000 A 
ATOM     11  C   UNL     1      -3.894  10.161  17.654  0.00  0.00    +0.000 A 
ATOM     12  C   UNL     1      -4.756  11.083  18.224  0.00  0.00    +0.000 A 
ATOM     13  N   UNL     1      -4.355  12.068  19.058  0.00  0.00    +0.000 NA
ATOM     14  C   UNL     1      -3.024  12.138  19.323  0.00  0.00    +0.000 A 
ENDBRANCH   6   9
BRANCH   1  16
ATOM     15  O   UNL     1       1.120   9.310  17.641  0.00  0.00    +0.000 OA
ATOM     16  C   UNL     1       1.761   8.705  18.498  0.00  0.00    +0.000 C 
BRANCH  16  17
ATOM     17  C   UNL     1       2.402   7.416  18.135  0.00  0.00    +0.000 A 
ATOM     18  C   UNL     1       3.728   7.402  17.700  0.00  0.00    +0.000 A 
ATOM     19  C   UNL     1       4.355   6.184  17.419  0.00  0.00    +0.000 A 
ATOM     20  C   UNL     1       3.665   4.968  17.574  0.00  0.00    +0.000 A 
ATOM     21  C   UNL     1       4.285   3.729  17.345  0.00  0.00    +0.000 A 
ATOM     22  C   UNL     1       3.586   2.535  17.535  0.00  0.00    +0.000 A 
ATOM     23  C   UNL     1       2.252   2.561  17.938  0.00  0.00    +0.000 A 
ATOM     24  C   UNL     1       1.618   3.783  18.152  0.00  0.00    +0.000 A 
ATOM     25  C   UNL     1       2.312   4.989  17.986  0.00  0.00    +0.000 A 
ATOM     26  C   UNL     1       1.690   6.217  18.243  0.00  0.00    +0.000 A 
ENDBRANCH  16  17
ENDBRANCH   1  16
TORSDOF 3
ENDMDL
