MODEL 1
REMARK VINA RESULT:      -5.8      0.000      0.000
REMARK  Name = 
REMARK  12 active torsions:
REMARK  status: ('A' for Active; 'I' for Inactive)
REMARK    1  A    between atoms: C_1  and  C_2
REMARK    2  A    between atoms: N_4  and  C_5
REMARK    3  A    between atoms: C_5  and  C_6
REMARK    4  A    between atoms: C_5  and  C_7
REMARK    5  A    between atoms: C_7  and  O_8
REMARK    6  A    between atoms: C_15  and  N_16
REMARK    7  A    between atoms: C_17  and  C_19
REMARK    8  A    between atoms: C_27  and  C_28
REMARK    9  A    between atoms: C_28  and  N_29
REMARK   10  A    between atoms: N_29  and  C_30
REMARK   11  A    between atoms: N_29  and  S_31
REMARK   12  A    between atoms: S_31  and  C_32
REMARK                            x       y       z     vdW  Elec       q    Type
REMARK                         _______ _______ _______ _____ _____    ______ ____
ROOT
ATOM      1  C   UNL     1      -5.270  16.056  22.051  0.00  0.00    +0.000 C 
ATOM      2  C   UNL     1      -4.093  15.546  21.201  0.00  0.00    +0.000 C 
ATOM      3  C   UNL     1      -2.807  16.288  21.590  0.00  0.00    +0.000 C 
ATOM      4  N   UNL     1      -2.107  15.777  22.761  0.00  0.00    +0.000 N 
ATOM      5  C   UNL     1      -1.093  14.827  22.631  0.00  0.00    +0.000 C 
ATOM      6  O   UNL     1      -0.367  14.433  23.535  0.00  0.00    +0.000 OA
ATOM      7  C   UNL     1      -0.862  14.317  21.256  0.00  0.00    +0.000 A 
ATOM      8  C   UNL     1       0.326  14.686  20.616  0.00  0.00    +0.000 A 
ATOM      9  C   UNL     1       0.512  14.358  19.274  0.00  0.00    +0.000 A 
ATOM     10  C   UNL     1      -0.455  13.607  18.602  0.00  0.00    +0.000 A 
ATOM     11  C   UNL     1      -1.584  13.139  19.286  0.00  0.00    +0.000 A 
ATOM     12  C   UNL     1      -1.847  13.576  20.591  0.00  0.00    +0.000 A 
ATOM     13  O   UNL     1      -2.971  13.191  21.258  0.00  0.00    +0.000 OA
ATOM     14  C   UNL     1      -4.168  13.975  21.128  0.00  0.00    +0.000 C 
ENDROOT
BRANCH  11  15
ATOM     15  N   UNL     1      -2.350  12.158  18.637  0.00  0.00    +0.000 N 
ATOM     16  C   UNL     1      -2.069  10.809  18.497  0.00  0.00    +0.000 C 
ATOM     17  O   UNL     1      -2.868  10.088  17.901  0.00  0.00    +0.000 OA
ATOM     18  H   UNL     1      -3.079  12.449  17.995  0.00  0.00    +0.000 HD
BRANCH  16  19
ATOM     19  C   UNL     1      -0.773  10.213  18.915  0.00  0.00    +0.000 A 
ATOM     20  C   UNL     1      -0.603   9.878  20.258  0.00  0.00    +0.000 A 
ATOM     21  C   UNL     1       0.577   9.261  20.631  0.00  0.00    +0.000 A 
ATOM     22  N   UNL     1       1.581   8.974  19.773  0.00  0.00    +0.000 NA
ATOM     23  C   UNL     1       1.381   9.287  18.476  0.00  0.00    +0.000 A 
ATOM     24  C   UNL     1       0.221   9.866  17.999  0.00  0.00    +0.000 A 
ENDBRANCH  16  19
ENDBRANCH  11  15
BRANCH   4  25
ATOM     25  C   UNL     1      -2.477  16.318  24.085  0.00  0.00    +0.000 C 
ATOM     26  C   UNL     1      -1.478  17.340  24.638  0.00  0.00    +0.000 C 
BRANCH  25  27
ATOM     27  C   UNL     1      -2.773  15.210  25.115  0.00  0.00    +0.000 C 
BRANCH  27  28
ATOM     28  O   UNL     1      -4.107  14.707  25.001  0.00  0.00    +0.000 OA
ATOM     29  H   UNL     1      -4.159  13.836  25.425  0.00  0.00    +0.000 HD
ENDBRANCH  27  28
ENDBRANCH  25  27
ENDBRANCH   4  25
BRANCH  14  30
ATOM     30  C   UNL     1      -5.034  13.617  19.878  0.00  0.00    +0.000 C 
BRANCH  30  31
ATOM     31  N   UNL     1      -5.611  12.243  19.790  0.00  0.00    +0.000 NA
ATOM     32  C   UNL     1      -6.450  11.803  20.920  0.00  0.00    +0.000 C 
BRANCH  31  33
ATOM     33  S   UNL     1      -6.237  11.851  18.231  0.00  0.00    +0.000 S 
ATOM     34  C   UNL     1      -7.573  13.030  18.074  0.00  0.00    +0.000 C 
ATOM     35  O   UNL     1      -5.231  12.183  17.240  0.00  0.00    +0.000 OA
ATOM     36  O   UNL     1      -6.860  10.547  18.293  0.00  0.00    +0.000 OA
ENDBRANCH  31  33
ENDBRANCH  30  31
ENDBRANCH  14  30
TORSDOF 8
ENDMDL
MODEL 2
REMARK VINA RESULT:      -5.5      7.992     11.733
REMARK  Name = 
REMARK  12 active torsions:
REMARK  status: ('A' for Active; 'I' for Inactive)
REMARK    1  A    between atoms: C_1  and  C_2
REMARK    2  A    between atoms: N_4  and  C_5
REMARK    3  A    between atoms: C_5  and  C_6
REMARK    4  A    between atoms: C_5  and  C_7
REMARK    5  A    between atoms: C_7  and  O_8
REMARK    6  A    between atoms: C_15  and  N_16
REMARK    7  A    between atoms: C_17  and  C_19
REMARK    8  A    between atoms: C_27  and  C_28
REMARK    9  A    between atoms: C_28  and  N_29
REMARK   10  A    between atoms: N_29  and  C_30
REMARK   11  A    between atoms: N_29  and  S_31
REMARK   12  A    between atoms: S_31  and  C_32
REMARK                            x       y       z     vdW  Elec       q    Type
REMARK                         _______ _______ _______ _____ _____    ______ ____
ROOT
ATOM      1  C   UNL     1      10.142  12.112  21.708  0.00  0.00    +0.000 C 
ATOM      2  C   UNL     1       9.535  13.441  21.226  0.00  0.00    +0.000 C 
ATOM      3  C   UNL     1      10.048  13.770  19.817  0.00  0.00    +0.000 C 
ATOM      4  N   UNL     1       9.351  13.117  18.717  0.00  0.00    +0.000 N 
ATOM      5  C   UNL     1       8.277  13.740  18.081  0.00  0.00    +0.000 C 
ATOM      6  O   UNL     1       7.710  13.331  17.074  0.00  0.00    +0.000 OA
ATOM      7  C   UNL     1       7.847  15.036  18.664  0.00  0.00    +0.000 A 
ATOM      8  C   UNL     1       8.087  16.196  17.921  0.00  0.00    +0.000 A 
ATOM      9  C   UNL     1       7.842  17.442  18.495  0.00  0.00    +0.000 A 
ATOM     10  C   UNL     1       7.294  17.519  19.778  0.00  0.00    +0.000 A 
ATOM     11  C   UNL     1       6.944  16.351  20.466  0.00  0.00    +0.000 A 
ATOM     12  C   UNL     1       7.312  15.098  19.957  0.00  0.00    +0.000 A 
ATOM     13  O   UNL     1       7.044  13.948  20.636  0.00  0.00    +0.000 OA
ATOM     14  C   UNL     1       8.002  13.454  21.586  0.00  0.00    +0.000 C 
ENDROOT
BRANCH  11  15
ATOM     15  N   UNL     1       6.139  16.510  21.605  0.00  0.00    +0.000 N 
ATOM     16  C   UNL     1       4.773  16.313  21.719  0.00  0.00    +0.000 C 
ATOM     17  O   UNL     1       4.230  16.490  22.808  0.00  0.00    +0.000 OA
ATOM     18  H   UNL     1       6.501  17.035  22.393  0.00  0.00    +0.000 HD
BRANCH  16  19
ATOM     19  C   UNL     1       3.903  16.031  20.548  0.00  0.00    +0.000 A 
ATOM     20  C   UNL     1       3.438  17.111  19.796  0.00  0.00    +0.000 A 
ATOM     21  C   UNL     1       2.685  16.842  18.668  0.00  0.00    +0.000 A 
ATOM     22  N   UNL     1       2.363  15.596  18.256  0.00  0.00    +0.000 NA
ATOM     23  C   UNL     1       2.845  14.570  18.987  0.00  0.00    +0.000 A 
ATOM     24  C   UNL     1       3.640  14.734  20.106  0.00  0.00    +0.000 A 
ENDBRANCH  16  19
ENDBRANCH  11  15
BRANCH   4  25
ATOM     25  C   UNL     1       9.835  11.794  18.272  0.00  0.00    +0.000 C 
ATOM     26  C   UNL     1       9.060  10.616  18.872  0.00  0.00    +0.000 C 
BRANCH  25  27
ATOM     27  C   UNL     1      11.355  11.623  18.468  0.00  0.00    +0.000 C 
BRANCH  27  28
ATOM     28  O   UNL     1      12.084  11.835  17.256  0.00  0.00    +0.000 OA
ATOM     29  H   UNL     1      11.699  12.586  16.777  0.00  0.00    +0.000 HD
ENDBRANCH  27  28
ENDBRANCH  25  27
ENDBRANCH   4  25
BRANCH  14  30
ATOM     30  C   UNL     1       7.873  14.082  23.010  0.00  0.00    +0.000 C 
BRANCH  30  31
ATOM     31  N   UNL     1       7.497  13.187  24.145  0.00  0.00    +0.000 NA
ATOM     32  C   UNL     1       8.391  13.193  25.317  0.00  0.00    +0.000 C 
BRANCH  31  33
ATOM     33  S   UNL     1       5.814  13.211  24.520  0.00  0.00    +0.000 S 
ATOM     34  C   UNL     1       5.664  14.761  25.401  0.00  0.00    +0.000 C 
ATOM     35  O   UNL     1       5.073  13.331  23.279  0.00  0.00    +0.000 OA
ATOM     36  O   UNL     1       5.537  12.172  25.488  0.00  0.00    +0.000 OA
ENDBRANCH  31  33
ENDBRANCH  30  31
ENDBRANCH  14  30
TORSDOF 8
ENDMDL
MODEL 3
REMARK VINA RESULT:      -5.3      2.997      5.376
REMARK  Name = 
REMARK  12 active torsions:
REMARK  status: ('A' for Active; 'I' for Inactive)
REMARK    1  A    between atoms: C_1  and  C_2
REMARK    2  A    between atoms: N_4  and  C_5
REMARK    3  A    between atoms: C_5  and  C_6
REMARK    4  A    between atoms: C_5  and  C_7
REMARK    5  A    between atoms: C_7  and  O_8
REMARK    6  A    between atoms: C_15  and  N_16
REMARK    7  A    between atoms: C_17  and  C_19
REMARK    8  A    between atoms: C_27  and  C_28
REMARK    9  A    between atoms: C_28  and  N_29
REMARK   10  A    between atoms: N_29  and  C_30
REMARK   11  A    between atoms: N_29  and  S_31
REMARK   12  A    between atoms: S_31  and  C_32
REMARK                            x       y       z     vdW  Elec       q    Type
REMARK                         _______ _______ _______ _____ _____    ______ ____
ROOT
ATOM      1  C   UNL     1      -1.686  13.716  23.885  0.00  0.00    +0.000 C 
ATOM      2  C   UNL     1      -1.703  13.007  22.519  0.00  0.00    +0.000 C 
ATOM      3  C   UNL     1      -3.053  12.308  22.309  0.00  0.00    +0.000 C 
ATOM      4  N   UNL     1      -4.137  13.151  21.822  0.00  0.00    +0.000 N 
ATOM      5  C   UNL     1      -4.392  13.269  20.455  0.00  0.00    +0.000 C 
ATOM      6  O   UNL     1      -5.350  13.848  19.956  0.00  0.00    +0.000 OA
ATOM      7  C   UNL     1      -3.436  12.571  19.559  0.00  0.00    +0.000 A 
ATOM      8  C   UNL     1      -3.896  11.449  18.862  0.00  0.00    +0.000 A 
ATOM      9  C   UNL     1      -2.994  10.675  18.134  0.00  0.00    +0.000 A 
ATOM     10  C   UNL     1      -1.656  11.066  18.049  0.00  0.00    +0.000 A 
ATOM     11  C   UNL     1      -1.229  12.257  18.649  0.00  0.00    +0.000 A 
ATOM     12  C   UNL     1      -2.094  12.966  19.495  0.00  0.00    +0.000 A 
ATOM     13  O   UNL     1      -1.687  14.092  20.145  0.00  0.00    +0.000 OA
ATOM     14  C   UNL     1      -1.080  13.973  21.443  0.00  0.00    +0.000 C 
ENDROOT
BRANCH  11  15
ATOM     15  N   UNL     1       0.038  12.730  18.278  0.00  0.00    +0.000 N 
ATOM     16  C   UNL     1       1.235  12.033  18.250  0.00  0.00    +0.000 C 
ATOM     17  O   UNL     1       2.257  12.610  17.884  0.00  0.00    +0.000 OA
ATOM     18  H   UNL     1       0.196  13.731  18.234  0.00  0.00    +0.000 HD
BRANCH  16  19
ATOM     19  C   UNL     1       1.369  10.650  18.777  0.00  0.00    +0.000 A 
ATOM     20  C   UNL     1       1.933   9.679  17.948  0.00  0.00    +0.000 A 
ATOM     21  C   UNL     1       2.119   8.410  18.465  0.00  0.00    +0.000 A 
ATOM     22  N   UNL     1       1.776   8.050  19.722  0.00  0.00    +0.000 NA
ATOM     23  C   UNL     1       1.256   9.013  20.510  0.00  0.00    +0.000 A 
ATOM     24  C   UNL     1       1.069  10.320  20.100  0.00  0.00    +0.000 A 
ENDBRANCH  16  19
ENDBRANCH  11  15
BRANCH   4  25
ATOM     25  C   UNL     1      -4.979  13.849  22.815  0.00  0.00    +0.000 C 
ATOM     26  C   UNL     1      -4.563  15.302  23.069  0.00  0.00    +0.000 C 
BRANCH  25  27
ATOM     27  C   UNL     1      -5.109  13.064  24.136  0.00  0.00    +0.000 C 
BRANCH  27  28
ATOM     28  O   UNL     1      -6.199  12.139  24.110  0.00  0.00    +0.000 OA
ATOM     29  H   UNL     1      -6.757  12.322  23.338  0.00  0.00    +0.000 HD
ENDBRANCH  27  28
ENDBRANCH  25  27
ENDBRANCH   4  25
BRANCH  14  30
ATOM     30  C   UNL     1       0.455  13.687  21.406  0.00  0.00    +0.000 C 
BRANCH  30  31
ATOM     31  N   UNL     1       1.337  14.659  20.694  0.00  0.00    +0.000 NA
ATOM     32  C   UNL     1       0.891  16.065  20.671  0.00  0.00    +0.000 C 
BRANCH  31  33
ATOM     33  S   UNL     1       3.016  14.440  21.019  0.00  0.00    +0.000 S 
ATOM     34  C   UNL     1       3.272  15.580  22.375  0.00  0.00    +0.000 C 
ATOM     35  O   UNL     1       3.210  13.095  21.527  0.00  0.00    +0.000 OA
ATOM     36  O   UNL     1       3.779  14.964  19.907  0.00  0.00    +0.000 OA
ENDBRANCH  31  33
ENDBRANCH  30  31
ENDBRANCH  14  30
TORSDOF 8
ENDMDL
MODEL 4
REMARK VINA RESULT:      -5.2      2.367      5.871
REMARK  Name = 
REMARK  12 active torsions:
REMARK  status: ('A' for Active; 'I' for Inactive)
REMARK    1  A    between atoms: C_1  and  C_2
REMARK    2  A    between atoms: N_4  and  C_5
REMARK    3  A    between atoms: C_5  and  C_6
REMARK    4  A    between atoms: C_5  and  C_7
REMARK    5  A    between atoms: C_7  and  O_8
REMARK    6  A    between atoms: C_15  and  N_16
REMARK    7  A    between atoms: C_17  and  C_19
REMARK    8  A    between atoms: C_27  and  C_28
REMARK    9  A    between atoms: C_28  and  N_29
REMARK   10  A    between atoms: N_29  and  C_30
REMARK   11  A    between atoms: N_29  and  S_31
REMARK   12  A    between atoms: S_31  and  C_32
REMARK                            x       y       z     vdW  Elec       q    Type
REMARK                         _______ _______ _______ _____ _____    ______ ____
ROOT
ATOM      1  C   UNL     1       0.901  13.337  19.248  0.00  0.00    +0.000 C 
ATOM      2  C   UNL     1      -0.088  13.322  20.427  0.00  0.00    +0.000 C 
ATOM      3  C   UNL     1       0.364  14.321  21.501  0.00  0.00    +0.000 C 
ATOM      4  N   UNL     1      -0.012  15.710  21.276  0.00  0.00    +0.000 N 
ATOM      5  C   UNL     1      -1.196  16.226  21.807  0.00  0.00    +0.000 C 
ATOM      6  O   UNL     1      -1.536  17.402  21.780  0.00  0.00    +0.000 OA
ATOM      7  C   UNL     1      -2.066  15.248  22.508  0.00  0.00    +0.000 A 
ATOM      8  C   UNL     1      -2.186  15.363  23.897  0.00  0.00    +0.000 A 
ATOM      9  C   UNL     1      -2.865  14.377  24.611  0.00  0.00    +0.000 A 
ATOM     10  C   UNL     1      -3.478  13.324  23.928  0.00  0.00    +0.000 A 
ATOM     11  C   UNL     1      -3.456  13.283  22.528  0.00  0.00    +0.000 A 
ATOM     12  C   UNL     1      -2.662  14.189  21.812  0.00  0.00    +0.000 A 
ATOM     13  O   UNL     1      -2.568  14.133  20.454  0.00  0.00    +0.000 OA
ATOM     14  C   UNL     1      -1.554  13.310  19.854  0.00  0.00    +0.000 C 
ENDROOT
BRANCH  11  15
ATOM     15  N   UNL     1      -4.329  12.374  21.911  0.00  0.00    +0.000 N 
ATOM     16  C   UNL     1      -5.676  12.538  21.637  0.00  0.00    +0.000 C 
ATOM     17  O   UNL     1      -6.289  11.631  21.075  0.00  0.00    +0.000 OA
ATOM     18  H   UNL     1      -4.056  11.400  21.843  0.00  0.00    +0.000 HD
BRANCH  16  19
ATOM     19  C   UNL     1      -6.456  13.708  22.117  0.00  0.00    +0.000 A 
ATOM     20  C   UNL     1      -7.116  13.604  23.342  0.00  0.00    +0.000 A 
ATOM     21  C   UNL     1      -7.784  14.717  23.818  0.00  0.00    +0.000 A 
ATOM     22  N   UNL     1      -7.847  15.896  23.161  0.00  0.00    +0.000 NA
ATOM     23  C   UNL     1      -7.182  15.977  21.991  0.00  0.00    +0.000 A 
ATOM     24  C   UNL     1      -6.451  14.935  21.452  0.00  0.00    +0.000 A 
ENDBRANCH  16  19
ENDBRANCH  11  15
BRANCH   4  25
ATOM     25  C   UNL     1       0.910  16.567  20.503  0.00  0.00    +0.000 C 
ATOM     26  C   UNL     1       1.623  17.630  21.346  0.00  0.00    +0.000 C 
BRANCH  25  27
ATOM     27  C   UNL     1       0.237  17.191  19.264  0.00  0.00    +0.000 C 
BRANCH  27  28
ATOM     28  O   UNL     1      -0.871  16.416  18.801  0.00  0.00    +0.000 OA
ATOM     29  H   UNL     1      -1.383  16.102  19.563  0.00  0.00    +0.000 HD
ENDBRANCH  27  28
ENDBRANCH  25  27
ENDBRANCH   4  25
BRANCH  14  30
ATOM     30  C   UNL     1      -1.965  11.813  19.683  0.00  0.00    +0.000 C 
BRANCH  30  31
ATOM     31  N   UNL     1      -1.797  11.185  18.338  0.00  0.00    +0.000 NA
ATOM     32  C   UNL     1      -0.692  10.220  18.191  0.00  0.00    +0.000 C 
BRANCH  31  33
ATOM     33  S   UNL     1      -3.282  10.697  17.609  0.00  0.00    +0.000 S 
ATOM     34  C   UNL     1      -2.929  10.947  15.873  0.00  0.00    +0.000 C 
ATOM     35  O   UNL     1      -3.451   9.273  17.829  0.00  0.00    +0.000 OA
ATOM     36  O   UNL     1      -4.307  11.659  17.951  0.00  0.00    +0.000 OA
ENDBRANCH  31  33
ENDBRANCH  30  31
ENDBRANCH  14  30
TORSDOF 8
ENDMDL
MODEL 5
REMARK VINA RESULT:      -5.2      2.810      4.293
REMARK  Name = 
REMARK  12 active torsions:
REMARK  status: ('A' for Active; 'I' for Inactive)
REMARK    1  A    between atoms: C_1  and  C_2
REMARK    2  A    between atoms: N_4  and  C_5
REMARK    3  A    between atoms: C_5  and  C_6
REMARK    4  A    between atoms: C_5  and  C_7
REMARK    5  A    between atoms: C_7  and  O_8
REMARK    6  A    between atoms: C_15  and  N_16
REMARK    7  A    between atoms: C_17  and  C_19
REMARK    8  A    between atoms: C_27  and  C_28
REMARK    9  A    between atoms: C_28  and  N_29
REMARK   10  A    between atoms: N_29  and  C_30
REMARK   11  A    between atoms: N_29  and  S_31
REMARK   12  A    between atoms: S_31  and  C_32
REMARK                            x       y       z     vdW  Elec       q    Type
REMARK                         _______ _______ _______ _____ _____    ______ ____
ROOT
ATOM      1  C   UNL     1      -4.326  12.569  20.705  0.00  0.00    +0.000 C 
ATOM      2  C   UNL     1      -3.187  13.578  20.475  0.00  0.00    +0.000 C 
ATOM      3  C   UNL     1      -3.266  14.702  21.517  0.00  0.00    +0.000 C 
ATOM      4  N   UNL     1      -2.671  14.410  22.814  0.00  0.00    +0.000 N 
ATOM      5  C   UNL     1      -1.342  14.744  23.083  0.00  0.00    +0.000 C 
ATOM      6  O   UNL     1      -0.792  14.655  24.174  0.00  0.00    +0.000 OA
ATOM      7  C   UNL     1      -0.577  15.307  21.942  0.00  0.00    +0.000 A 
ATOM      8  C   UNL     1      -0.222  16.658  22.000  0.00  0.00    +0.000 A 
ATOM      9  C   UNL     1       0.359  17.264  20.886  0.00  0.00    +0.000 A 
ATOM     10  C   UNL     1       0.645  16.501  19.752  0.00  0.00    +0.000 A 
ATOM     11  C   UNL     1       0.397  15.123  19.749  0.00  0.00    +0.000 A 
ATOM     12  C   UNL     1      -0.310  14.533  20.805  0.00  0.00    +0.000 A 
ATOM     13  O   UNL     1      -0.624  13.207  20.799  0.00  0.00    +0.000 OA
ATOM     14  C   UNL     1      -1.858  12.781  20.198  0.00  0.00    +0.000 C 
ENDROOT
BRANCH  11  15
ATOM     15  N   UNL     1       0.973  14.383  18.705  0.00  0.00    +0.000 N 
ATOM     16  C   UNL     1       2.268  13.899  18.615  0.00  0.00    +0.000 C 
ATOM     17  O   UNL     1       2.600  13.254  17.621  0.00  0.00    +0.000 OA
ATOM     18  H   UNL     1       0.511  14.364  17.803  0.00  0.00    +0.000 HD
BRANCH  16  19
ATOM     19  C   UNL     1       3.323  14.244  19.603  0.00  0.00    +0.000 A 
ATOM     20  C   UNL     1       4.286  15.186  19.239  0.00  0.00    +0.000 A 
ATOM     21  C   UNL     1       5.226  15.555  20.184  0.00  0.00    +0.000 A 
ATOM     22  N   UNL     1       5.274  15.048  21.436  0.00  0.00    +0.000 NA
ATOM     23  C   UNL     1       4.318  14.157  21.769  0.00  0.00    +0.000 A 
ATOM     24  C   UNL     1       3.312  13.756  20.910  0.00  0.00    +0.000 A 
ENDBRANCH  16  19
ENDBRANCH  11  15
BRANCH   4  25
ATOM     25  C   UNL     1      -3.521  13.785  23.848  0.00  0.00    +0.000 C 
ATOM     26  C   UNL     1      -3.429  12.256  23.884  0.00  0.00    +0.000 C 
BRANCH  25  27
ATOM     27  C   UNL     1      -4.987  14.258  23.772  0.00  0.00    +0.000 C 
BRANCH  27  28
ATOM     28  O   UNL     1      -5.224  15.417  24.575  0.00  0.00    +0.000 OA
ATOM     29  H   UNL     1      -6.140  15.406  24.893  0.00  0.00    +0.000 HD
ENDBRANCH  27  28
ENDBRANCH  25  27
ENDBRANCH   4  25
BRANCH  14  30
ATOM     30  C   UNL     1      -1.773  12.558  18.654  0.00  0.00    +0.000 C 
BRANCH  30  31
ATOM     31  N   UNL     1      -1.702  11.155  18.147  0.00  0.00    +0.000 NA
ATOM     32  C   UNL     1      -1.060  10.163  19.028  0.00  0.00    +0.000 C 
BRANCH  31  33
ATOM     33  S   UNL     1      -3.156  10.616  17.391  0.00  0.00    +0.000 S 
ATOM     34  C   UNL     1      -2.667  10.560  15.671  0.00  0.00    +0.000 C 
ATOM     35  O   UNL     1      -3.416   9.256  17.825  0.00  0.00    +0.000 OA
ATOM     36  O   UNL     1      -4.150  11.662  17.491  0.00  0.00    +0.000 OA
ENDBRANCH  31  33
ENDBRANCH  30  31
ENDBRANCH  14  30
TORSDOF 8
ENDMDL
MODEL 6
REMARK VINA RESULT:      -5.2      2.799      5.193
REMARK  Name = 
REMARK  12 active torsions:
REMARK  status: ('A' for Active; 'I' for Inactive)
REMARK    1  A    between atoms: C_1  and  C_2
REMARK    2  A    between atoms: N_4  and  C_5
REMARK    3  A    between atoms: C_5  and  C_6
REMARK    4  A    between atoms: C_5  and  C_7
REMARK    5  A    between atoms: C_7  and  O_8
REMARK    6  A    between atoms: C_15  and  N_16
REMARK    7  A    between atoms: C_17  and  C_19
REMARK    8  A    between atoms: C_27  and  C_28
REMARK    9  A    between atoms: C_28  and  N_29
REMARK   10  A    between atoms: N_29  and  C_30
REMARK   11  A    between atoms: N_29  and  S_31
REMARK   12  A    between atoms: S_31  and  C_32
REMARK                            x       y       z     vdW  Elec       q    Type
REMARK                         _______ _______ _______ _____ _____    ______ ____
ROOT
ATOM      1  C   UNL     1      -1.527  13.743  23.521  0.00  0.00    +0.000 C 
ATOM      2  C   UNL     1      -1.524  12.891  22.239  0.00  0.00    +0.000 C 
ATOM      3  C   UNL     1      -2.890  12.215  22.058  0.00  0.00    +0.000 C 
ATOM      4  N   UNL     1      -3.928  13.032  21.445  0.00  0.00    +0.000 N 
ATOM      5  C   UNL     1      -4.136  13.008  20.065  0.00  0.00    +0.000 C 
ATOM      6  O   UNL     1      -5.056  13.558  19.473  0.00  0.00    +0.000 OA
ATOM      7  C   UNL     1      -3.175  12.188  19.284  0.00  0.00    +0.000 A 
ATOM      8  C   UNL     1      -3.651  11.011  18.697  0.00  0.00    +0.000 A 
ATOM      9  C   UNL     1      -2.753  10.135  18.088  0.00  0.00    +0.000 A 
ATOM     10  C   UNL     1      -1.400  10.474  18.009  0.00  0.00    +0.000 A 
ATOM     11  C   UNL     1      -0.953  11.710  18.493  0.00  0.00    +0.000 A 
ATOM     12  C   UNL     1      -1.819  12.533  19.226  0.00  0.00    +0.000 A 
ATOM     13  O   UNL     1      -1.395  13.710  19.765  0.00  0.00    +0.000 OA
ATOM     14  C   UNL     1      -0.835  13.714  21.089  0.00  0.00    +0.000 C 
ENDROOT
BRANCH  11  15
ATOM     15  N   UNL     1       0.342  12.100  18.119  0.00  0.00    +0.000 N 
ATOM     16  C   UNL     1       1.511  11.362  18.193  0.00  0.00    +0.000 C 
ATOM     17  O   UNL     1       2.565  11.866  17.806  0.00  0.00    +0.000 OA
ATOM     18  H   UNL     1       0.538  13.086  17.986  0.00  0.00    +0.000 HD
BRANCH  16  19
ATOM     19  C   UNL     1       1.579  10.031  18.851  0.00  0.00    +0.000 A 
ATOM     20  C   UNL     1       2.119   8.965  18.131  0.00  0.00    +0.000 A 
ATOM     21  C   UNL     1       2.244   7.745  18.770  0.00  0.00    +0.000 A 
ATOM     22  N   UNL     1       1.861   7.520  20.046  0.00  0.00    +0.000 NA
ATOM     23  C   UNL     1       1.363   8.573  20.727  0.00  0.00    +0.000 A 
ATOM     24  C   UNL     1       1.238   9.841  20.191  0.00  0.00    +0.000 A 
ENDBRANCH  16  19
ENDBRANCH  11  15
BRANCH   4  25
ATOM     25  C   UNL     1      -4.778  13.859  22.326  0.00  0.00    +0.000 C 
ATOM     26  C   UNL     1      -4.346  15.328  22.402  0.00  0.00    +0.000 C 
BRANCH  25  27
ATOM     27  C   UNL     1      -4.940  13.249  23.733  0.00  0.00    +0.000 C 
BRANCH  27  28
ATOM     28  O   UNL     1      -4.646  14.191  24.768  0.00  0.00    +0.000 OA
ATOM     29  H   UNL     1      -5.377  14.825  24.841  0.00  0.00    +0.000 HD
ENDBRANCH  27  28
ENDBRANCH  25  27
ENDBRANCH   4  25
BRANCH  14  30
ATOM     30  C   UNL     1       0.690  13.379  21.138  0.00  0.00    +0.000 C 
BRANCH  30  31
ATOM     31  N   UNL     1       1.660  14.513  21.200  0.00  0.00    +0.000 NA
ATOM     32  C   UNL     1       3.048  14.179  21.568  0.00  0.00    +0.000 C 
BRANCH  31  33
ATOM     33  S   UNL     1       1.509  15.629  19.894  0.00  0.00    +0.000 S 
ATOM     34  C   UNL     1       3.123  16.400  19.891  0.00  0.00    +0.000 C 
ATOM     35  O   UNL     1       1.374  14.872  18.663  0.00  0.00    +0.000 OA
ATOM     36  O   UNL     1       0.571  16.664  20.270  0.00  0.00    +0.000 OA
ENDBRANCH  31  33
ENDBRANCH  30  31
ENDBRANCH  14  30
TORSDOF 8
ENDMDL
MODEL 7
REMARK VINA RESULT:      -5.2      2.674      6.592
REMARK  Name = 
REMARK  12 active torsions:
REMARK  status: ('A' for Active; 'I' for Inactive)
REMARK    1  A    between atoms: C_1  and  C_2
REMARK    2  A    between atoms: N_4  and  C_5
REMARK    3  A    between atoms: C_5  and  C_6
REMARK    4  A    between atoms: C_5  and  C_7
REMARK    5  A    between atoms: C_7  and  O_8
REMARK    6  A    between atoms: C_15  and  N_16
REMARK    7  A    between atoms: C_17  and  C_19
REMARK    8  A    between atoms: C_27  and  C_28
REMARK    9  A    between atoms: C_28  and  N_29
REMARK   10  A    between atoms: N_29  and  C_30
REMARK   11  A    between atoms: N_29  and  S_31
REMARK   12  A    between atoms: S_31  and  C_32
REMARK                            x       y       z     vdW  Elec       q    Type
REMARK                         _______ _______ _______ _____ _____    ______ ____
ROOT
ATOM      1  C   UNL     1      -0.323  14.715  20.855  0.00  0.00    +0.000 C 
ATOM      2  C   UNL     1      -1.496  14.140  20.040  0.00  0.00    +0.000 C 
ATOM      3  C   UNL     1      -0.975  13.539  18.728  0.00  0.00    +0.000 C 
ATOM      4  N   UNL     1      -0.445  12.185  18.814  0.00  0.00    +0.000 N 
ATOM      5  C   UNL     1      -1.263  11.080  18.577  0.00  0.00    +0.000 C 
ATOM      6  O   UNL     1      -0.886   9.917  18.503  0.00  0.00    +0.000 OA
ATOM      7  C   UNL     1      -2.698  11.380  18.340  0.00  0.00    +0.000 A 
ATOM      8  C   UNL     1      -3.200  11.180  17.050  0.00  0.00    +0.000 A 
ATOM      9  C   UNL     1      -4.496  11.595  16.746  0.00  0.00    +0.000 A 
ATOM     10  C   UNL     1      -5.303  12.140  17.748  0.00  0.00    +0.000 A 
ATOM     11  C   UNL     1      -4.833  12.224  19.064  0.00  0.00    +0.000 A 
ATOM     12  C   UNL     1      -3.490  11.939  19.350  0.00  0.00    +0.000 A 
ATOM     13  O   UNL     1      -2.987  12.075  20.609  0.00  0.00    +0.000 OA
ATOM     14  C   UNL     1      -2.441  13.342  21.014  0.00  0.00    +0.000 C 
ENDROOT
BRANCH  11  15
ATOM     15  N   UNL     1      -5.785  12.501  20.056  0.00  0.00    +0.000 N 
ATOM     16  C   UNL     1      -6.856  13.377  19.990  0.00  0.00    +0.000 C 
ATOM     17  O   UNL     1      -7.603  13.486  20.962  0.00  0.00    +0.000 OA
ATOM     18  H   UNL     1      -5.590  12.232  21.014  0.00  0.00    +0.000 HD
BRANCH  16  19
ATOM     19  C   UNL     1      -7.066  14.301  18.846  0.00  0.00    +0.000 A 
ATOM     20  C   UNL     1      -6.402  15.528  18.857  0.00  0.00    +0.000 A 
ATOM     21  C   UNL     1      -6.545  16.357  17.760  0.00  0.00    +0.000 A 
ATOM     22  N   UNL     1      -7.302  16.054  16.681  0.00  0.00    +0.000 NA
ATOM     23  C   UNL     1      -7.914  14.853  16.685  0.00  0.00    +0.000 A 
ATOM     24  C   UNL     1      -7.799  13.938  17.715  0.00  0.00    +0.000 A 
ENDBRANCH  16  19
ENDBRANCH  11  15
BRANCH   4  25
ATOM     25  C   UNL     1       0.990  12.016  19.124  0.00  0.00    +0.000 C 
ATOM     26  C   UNL     1       1.286  11.857  20.619  0.00  0.00    +0.000 C 
BRANCH  25  27
ATOM     27  C   UNL     1       1.865  13.117  18.493  0.00  0.00    +0.000 C 
BRANCH  27  28
ATOM     28  O   UNL     1       2.574  12.651  17.342  0.00  0.00    +0.000 OA
ATOM     29  H   UNL     1       2.496  13.306  16.630  0.00  0.00    +0.000 HD
ENDBRANCH  27  28
ENDBRANCH  25  27
ENDBRANCH   4  25
BRANCH  14  30
ATOM     30  C   UNL     1      -3.503  14.353  21.550  0.00  0.00    +0.000 C 
BRANCH  30  31
ATOM     31  N   UNL     1      -4.405  13.910  22.655  0.00  0.00    +0.000 NA
ATOM     32  C   UNL     1      -3.799  13.080  23.713  0.00  0.00    +0.000 C 
BRANCH  31  33
ATOM     33  S   UNL     1      -5.464  15.146  23.226  0.00  0.00    +0.000 S 
ATOM     34  C   UNL     1      -4.430  15.979  24.425  0.00  0.00    +0.000 C 
ATOM     35  O   UNL     1      -5.714  16.070  22.135  0.00  0.00    +0.000 OA
ATOM     36  O   UNL     1      -6.536  14.531  23.979  0.00  0.00    +0.000 OA
ENDBRANCH  31  33
ENDBRANCH  30  31
ENDBRANCH  14  30
TORSDOF 8
ENDMDL
MODEL 8
REMARK VINA RESULT:      -5.1      2.557      6.528
REMARK  Name = 
REMARK  12 active torsions:
REMARK  status: ('A' for Active; 'I' for Inactive)
REMARK    1  A    between atoms: C_1  and  C_2
REMARK    2  A    between atoms: N_4  and  C_5
REMARK    3  A    between atoms: C_5  and  C_6
REMARK    4  A    between atoms: C_5  and  C_7
REMARK    5  A    between atoms: C_7  and  O_8
REMARK    6  A    between atoms: C_15  and  N_16
REMARK    7  A    between atoms: C_17  and  C_19
REMARK    8  A    between atoms: C_27  and  C_28
REMARK    9  A    between atoms: C_28  and  N_29
REMARK   10  A    between atoms: N_29  and  C_30
REMARK   11  A    between atoms: N_29  and  S_31
REMARK   12  A    between atoms: S_31  and  C_32
REMARK                            x       y       z     vdW  Elec       q    Type
REMARK                         _______ _______ _______ _____ _____    ______ ____
ROOT
ATOM      1  C   UNL     1      -1.061  10.874  22.510  0.00  0.00    +0.000 C 
ATOM      2  C   UNL     1      -1.027  12.409  22.408  0.00  0.00    +0.000 C 
ATOM      3  C   UNL     1       0.222  12.855  21.636  0.00  0.00    +0.000 C 
ATOM      4  N   UNL     1       0.120  12.817  20.183  0.00  0.00    +0.000 N 
ATOM      5  C   UNL     1      -0.285  13.943  19.466  0.00  0.00    +0.000 C 
ATOM      6  O   UNL     1      -0.283  14.049  18.245  0.00  0.00    +0.000 OA
ATOM      7  C   UNL     1      -0.692  15.115  20.282  0.00  0.00    +0.000 A 
ATOM      8  C   UNL     1       0.141  16.238  20.268  0.00  0.00    +0.000 A 
ATOM      9  C   UNL     1      -0.119  17.297  21.137  0.00  0.00    +0.000 A 
ATOM     10  C   UNL     1      -1.247  17.257  21.960  0.00  0.00    +0.000 A 
ATOM     11  C   UNL     1      -2.141  16.183  21.879  0.00  0.00    +0.000 A 
ATOM     12  C   UNL     1      -1.817  15.054  21.113  0.00  0.00    +0.000 A 
ATOM     13  O   UNL     1      -2.636  13.967  21.067  0.00  0.00    +0.000 OA
ATOM     14  C   UNL     1      -2.470  12.921  22.040  0.00  0.00    +0.000 C 
ENDROOT
BRANCH  11  15
ATOM     15  N   UNL     1      -3.384  16.349  22.510  0.00  0.00    +0.000 N 
ATOM     16  C   UNL     1      -3.632  16.697  23.828  0.00  0.00    +0.000 C 
ATOM     17  O   UNL     1      -4.796  16.810  24.209  0.00  0.00    +0.000 OA
ATOM     18  H   UNL     1      -4.214  15.972  22.067  0.00  0.00    +0.000 HD
BRANCH  16  19
ATOM     19  C   UNL     1      -2.555  16.804  24.845  0.00  0.00    +0.000 A 
ATOM     20  C   UNL     1      -2.198  18.075  25.297  0.00  0.00    +0.000 A 
ATOM     21  C   UNL     1      -1.243  18.168  26.294  0.00  0.00    +0.000 A 
ATOM     22  N   UNL     1      -0.626  17.100  26.847  0.00  0.00    +0.000 NA
ATOM     23  C   UNL     1      -1.006  15.883  26.409  0.00  0.00    +0.000 A 
ATOM     24  C   UNL     1      -1.980  15.685  25.448  0.00  0.00    +0.000 A 
ENDBRANCH  16  19
ENDBRANCH  11  15
BRANCH   4  25
ATOM     25  C   UNL     1       0.490  11.566  19.490  0.00  0.00    +0.000 C 
ATOM     26  C   UNL     1       1.729  11.696  18.598  0.00  0.00    +0.000 C 
BRANCH  25  27
ATOM     27  C   UNL     1      -0.693  10.945  18.720  0.00  0.00    +0.000 C 
BRANCH  27  28
ATOM     28  O   UNL     1      -0.259  10.137  17.623  0.00  0.00    +0.000 OA
ATOM     29  H   UNL     1       0.384  10.634  17.093  0.00  0.00    +0.000 HD
ENDBRANCH  27  28
ENDBRANCH  25  27
ENDBRANCH   4  25
BRANCH  14  30
ATOM     30  C   UNL     1      -3.221  13.175  23.385  0.00  0.00    +0.000 C 
BRANCH  30  31
ATOM     31  N   UNL     1      -4.508  12.454  23.621  0.00  0.00    +0.000 NA
ATOM     32  C   UNL     1      -4.930  12.292  25.024  0.00  0.00    +0.000 C 
BRANCH  31  33
ATOM     33  S   UNL     1      -5.770  12.913  22.537  0.00  0.00    +0.000 S 
ATOM     34  C   UNL     1      -7.226  12.600  23.528  0.00  0.00    +0.000 C 
ATOM     35  O   UNL     1      -5.680  14.344  22.315  0.00  0.00    +0.000 OA
ATOM     36  O   UNL     1      -5.816  11.963  21.447  0.00  0.00    +0.000 OA
ENDBRANCH  31  33
ENDBRANCH  30  31
ENDBRANCH  14  30
TORSDOF 8
ENDMDL
MODEL 9
REMARK VINA RESULT:      -5.1      2.412      5.967
REMARK  Name = 
REMARK  12 active torsions:
REMARK  status: ('A' for Active; 'I' for Inactive)
REMARK    1  A    between atoms: C_1  and  C_2
REMARK    2  A    between atoms: N_4  and  C_5
REMARK    3  A    between atoms: C_5  and  C_6
REMARK    4  A    between atoms: C_5  and  C_7
REMARK    5  A    between atoms: C_7  and  O_8
REMARK    6  A    between atoms: C_15  and  N_16
REMARK    7  A    between atoms: C_17  and  C_19
REMARK    8  A    between atoms: C_27  and  C_28
REMARK    9  A    between atoms: C_28  and  N_29
REMARK   10  A    between atoms: N_29  and  C_30
REMARK   11  A    between atoms: N_29  and  S_31
REMARK   12  A    between atoms: S_31  and  C_32
REMARK                            x       y       z     vdW  Elec       q    Type
REMARK                         _______ _______ _______ _____ _____    ______ ____
ROOT
ATOM      1  C   UNL     1       0.484  13.610  18.952  0.00  0.00    +0.000 C 
ATOM      2  C   UNL     1      -0.389  13.555  20.218  0.00  0.00    +0.000 C 
ATOM      3  C   UNL     1       0.103  14.591  21.238  0.00  0.00    +0.000 C 
ATOM      4  N   UNL     1      -0.370  15.954  21.039  0.00  0.00    +0.000 N 
ATOM      5  C   UNL     1      -1.527  16.409  21.674  0.00  0.00    +0.000 C 
ATOM      6  O   UNL     1      -1.934  17.565  21.670  0.00  0.00    +0.000 OA
ATOM      7  C   UNL     1      -2.271  15.394  22.460  0.00  0.00    +0.000 A 
ATOM      8  C   UNL     1      -2.269  15.519  23.854  0.00  0.00    +0.000 A 
ATOM      9  C   UNL     1      -2.822  14.505  24.635  0.00  0.00    +0.000 A 
ATOM     10  C   UNL     1      -3.435  13.412  24.020  0.00  0.00    +0.000 A 
ATOM     11  C   UNL     1      -3.540  13.355  22.624  0.00  0.00    +0.000 A 
ATOM     12  C   UNL     1      -2.869  14.295  21.830  0.00  0.00    +0.000 A 
ATOM     13  O   UNL     1      -2.898  14.227  20.470  0.00  0.00    +0.000 OA
ATOM     14  C   UNL     1      -1.899  13.455  19.784  0.00  0.00    +0.000 C 
ENDROOT
BRANCH  11  15
ATOM     15  N   UNL     1      -4.414  12.392  22.098  0.00  0.00    +0.000 N 
ATOM     16  C   UNL     1      -5.760  12.531  21.801  0.00  0.00    +0.000 C 
ATOM     17  O   UNL     1      -6.373  11.574  21.331  0.00  0.00    +0.000 OA
ATOM     18  H   UNL     1      -4.145  11.415  22.130  0.00  0.00    +0.000 HD
BRANCH  16  19
ATOM     19  C   UNL     1      -6.537  13.747  22.156  0.00  0.00    +0.000 A 
ATOM     20  C   UNL     1      -7.141  13.801  23.413  0.00  0.00    +0.000 A 
ATOM     21  C   UNL     1      -7.806  14.960  23.767  0.00  0.00    +0.000 A 
ATOM     22  N   UNL     1      -7.917  16.041  22.963  0.00  0.00    +0.000 NA
ATOM     23  C   UNL     1      -7.304  15.972  21.763  0.00  0.00    +0.000 A 
ATOM     24  C   UNL     1      -6.580  14.874  21.335  0.00  0.00    +0.000 A 
ENDBRANCH  16  19
ENDBRANCH  11  15
BRANCH   4  25
ATOM     25  C   UNL     1       0.427  16.851  20.177  0.00  0.00    +0.000 C 
ATOM     26  C   UNL     1      -0.088  16.944  18.737  0.00  0.00    +0.000 C 
BRANCH  25  27
ATOM     27  C   UNL     1       1.933  16.522  20.214  0.00  0.00    +0.000 C 
BRANCH  27  28
ATOM     28  O   UNL     1       2.744  17.700  20.206  0.00  0.00    +0.000 OA
ATOM     29  H   UNL     1       3.602  17.501  20.614  0.00  0.00    +0.000 HD
ENDBRANCH  27  28
ENDBRANCH  25  27
ENDBRANCH   4  25
BRANCH  14  30
ATOM     30  C   UNL     1      -2.239  11.935  19.663  0.00  0.00    +0.000 C 
BRANCH  30  31
ATOM     31  N   UNL     1      -2.061  11.276  18.334  0.00  0.00    +0.000 NA
ATOM     32  C   UNL     1      -0.937  10.329  18.209  0.00  0.00    +0.000 C 
BRANCH  31  33
ATOM     33  S   UNL     1      -3.537  10.742  17.620  0.00  0.00    +0.000 S 
ATOM     34  C   UNL     1      -3.223  11.035  15.884  0.00  0.00    +0.000 C 
ATOM     35  O   UNL     1      -3.646   9.309  17.818  0.00  0.00    +0.000 OA
ATOM     36  O   UNL     1      -4.594  11.656  17.995  0.00  0.00    +0.000 OA
ENDBRANCH  31  33
ENDBRANCH  30  31
ENDBRANCH  14  30
TORSDOF 8
ENDMDL
