MODEL 1
REMARK VINA RESULT:      -8.1      0.000      0.000
REMARK  Name = 
REMARK  5 active torsions:
REMARK  status: ('A' for Active; 'I' for Inactive)
REMARK    1  A    between atoms: C_5  and  C_6
REMARK    2  A    between atoms: C_6  and  C_7
REMARK    3  A    between atoms: C_6  and  C_15
REMARK    4  A    between atoms: C_7  and  C_8
REMARK    5  A    between atoms: C_8  and  C_9
REMARK                            x       y       z     vdW  Elec       q    Type
REMARK                         _______ _______ _______ _____ _____    ______ ____
ROOT
ATOM      1  C   UNL     1       4.191   5.233  18.212  0.00  0.00    +0.000 C 
ENDROOT
BRANCH   1   6
ATOM      2 CL   UNL     1       0.657  10.020  19.408  0.00  0.00    +0.000 Cl
ATOM      3  C   UNL     1       1.656   8.666  19.060  0.00  0.00    +0.000 A 
ATOM      4  C   UNL     1       1.868   7.689  20.034  0.00  0.00    +0.000 A 
ATOM      5  C   UNL     1       2.683   6.587  19.754  0.00  0.00    +0.000 A 
ATOM      6  C   UNL     1       3.297   6.447  18.497  0.00  0.00    +0.000 A 
ATOM      7  C   UNL     1       3.068   7.440  17.531  0.00  0.00    +0.000 A 
ATOM      8  C   UNL     1       2.255   8.546  17.812  0.00  0.00    +0.000 A 
ENDBRANCH   1   6
BRANCH   1   9
ATOM      9  C   UNL     1       5.711   5.577  18.027  0.00  0.00    +0.000 C 
ATOM     10  C   UNL     1       6.505   5.444  19.340  0.00  0.00    +0.000 C 
ATOM     11  C   UNL     1       7.978   5.810  19.147  0.00  0.00    +0.000 C 
ATOM     12  C   UNL     1       8.103   7.171  18.475  0.00  0.00    +0.000 C 
ATOM     13  C   UNL     1       7.325   7.197  17.165  0.00  0.00    +0.000 C 
ATOM     14  N   UNL     1       5.915   6.888  17.385  0.00  0.00    +0.000 NA
ATOM     15  H   UNL     1       5.427   6.920  16.490  0.00  0.00    +0.000 HD
ENDBRANCH   1   9
BRANCH   1  16
ATOM     16  C   UNL     1       3.595   4.394  17.042  0.00  0.00    +0.000 C 
BRANCH  16  17
ATOM     17  C   UNL     1       3.080   3.017  17.492  0.00  0.00    +0.000 C 
BRANCH  17  18
ATOM     18  C   UNL     1       2.483   2.932  18.876  0.00  0.00    +0.000 A 
ATOM     19  C   UNL     1       3.317   2.569  19.948  0.00  0.00    +0.000 A 
ATOM     20  C   UNL     1       2.833   2.533  21.255  0.00  0.00    +0.000 A 
ATOM     21  C   UNL     1       1.508   2.867  21.513  0.00  0.00    +0.000 A 
ATOM     22  C   UNL     1       0.669   3.235  20.464  0.00  0.00    +0.000 A 
ATOM     23  C   UNL     1       1.154   3.272  19.152  0.00  0.00    +0.000 A 
ENDBRANCH  17  18
ENDBRANCH  16  17
ENDBRANCH   1  16
TORSDOF 5
ENDMDL
MODEL 2
REMARK VINA RESULT:      -8.1      0.042      1.029
REMARK  Name = 
REMARK  5 active torsions:
REMARK  status: ('A' for Active; 'I' for Inactive)
REMARK    1  A    between atoms: C_5  and  C_6
REMARK    2  A    between atoms: C_6  and  C_7
REMARK    3  A    between atoms: C_6  and  C_15
REMARK    4  A    between atoms: C_7  and  C_8
REMARK    5  A    between atoms: C_8  and  C_9
REMARK                            x       y       z     vdW  Elec       q    Type
REMARK                         _______ _______ _______ _____ _____    ______ ____
ROOT
ATOM      1  C   UNL     1       4.175   5.224  18.213  0.00  0.00    +0.000 C 
ENDROOT
BRANCH   1   6
ATOM      2 CL   UNL     1       0.657  10.025  19.399  0.00  0.00    +0.000 Cl
ATOM      3  C   UNL     1       1.655   8.665  19.073  0.00  0.00    +0.000 A 
ATOM      4  C   UNL     1       2.245   8.520  17.816  0.00  0.00    +0.000 A 
ATOM      5  C   UNL     1       3.055   7.412  17.548  0.00  0.00    +0.000 A 
ATOM      6  C   UNL     1       3.286   6.434  18.530  0.00  0.00    +0.000 A 
ATOM      7  C   UNL     1       2.685   6.601  19.788  0.00  0.00    +0.000 A 
ATOM      8  C   UNL     1       1.870   7.708  20.057  0.00  0.00    +0.000 A 
ENDBRANCH   1   6
BRANCH   1   9
ATOM      9  C   UNL     1       5.695   5.566  18.029  0.00  0.00    +0.000 C 
ATOM     10  C   UNL     1       6.482   5.462  19.349  0.00  0.00    +0.000 C 
ATOM     11  C   UNL     1       7.955   5.826  19.155  0.00  0.00    +0.000 C 
ATOM     12  C   UNL     1       8.082   7.172  18.456  0.00  0.00    +0.000 C 
ATOM     13  C   UNL     1       7.311   7.169  17.141  0.00  0.00    +0.000 C 
ATOM     14  N   UNL     1       5.901   6.863  17.361  0.00  0.00    +0.000 NA
ATOM     15  H   UNL     1       5.418   6.875  16.462  0.00  0.00    +0.000 HD
ENDBRANCH   1   9
BRANCH   1  16
ATOM     16  C   UNL     1       3.570   4.413  17.028  0.00  0.00    +0.000 C 
BRANCH  16  17
ATOM     17  C   UNL     1       3.007   3.049  17.457  0.00  0.00    +0.000 C 
BRANCH  17  18
ATOM     18  C   UNL     1       2.449   2.953  18.857  0.00  0.00    +0.000 A 
ATOM     19  C   UNL     1       3.304   2.546  19.896  0.00  0.00    +0.000 A 
ATOM     20  C   UNL     1       2.859   2.497  21.217  0.00  0.00    +0.000 A 
ATOM     21  C   UNL     1       1.551   2.863  21.521  0.00  0.00    +0.000 A 
ATOM     22  C   UNL     1       0.693   3.275  20.505  0.00  0.00    +0.000 A 
ATOM     23  C   UNL     1       1.139   3.325  19.180  0.00  0.00    +0.000 A 
ENDBRANCH  17  18
ENDBRANCH  16  17
ENDBRANCH   1  16
TORSDOF 5
ENDMDL
MODEL 3
REMARK VINA RESULT:      -8.0      1.070      1.746
REMARK  Name = 
REMARK  5 active torsions:
REMARK  status: ('A' for Active; 'I' for Inactive)
REMARK    1  A    between atoms: C_5  and  C_6
REMARK    2  A    between atoms: C_6  and  C_7
REMARK    3  A    between atoms: C_6  and  C_15
REMARK    4  A    between atoms: C_7  and  C_8
REMARK    5  A    between atoms: C_8  and  C_9
REMARK                            x       y       z     vdW  Elec       q    Type
REMARK                         _______ _______ _______ _____ _____    ______ ____
ROOT
ATOM      1  C   UNL     1       3.439   5.570  18.454  0.00  0.00    +0.000 C 
ENDROOT
BRANCH   1   6
ATOM      2 CL   UNL     1       0.421  10.637  19.886  0.00  0.00    +0.000 Cl
ATOM      3  C   UNL     1       1.278   9.201  19.490  0.00  0.00    +0.000 A 
ATOM      4  C   UNL     1       1.806   9.037  18.208  0.00  0.00    +0.000 A 
ATOM      5  C   UNL     1       2.501   7.868  17.883  0.00  0.00    +0.000 A 
ATOM      6  C   UNL     1       2.678   6.847  18.833  0.00  0.00    +0.000 A 
ATOM      7  C   UNL     1       2.140   7.034  20.117  0.00  0.00    +0.000 A 
ATOM      8  C   UNL     1       1.440   8.203  20.443  0.00  0.00    +0.000 A 
ENDBRANCH   1   6
BRANCH   1   9
ATOM      9  C   UNL     1       4.981   5.774  18.241  0.00  0.00    +0.000 C 
ATOM     10  C   UNL     1       5.489   5.093  16.956  0.00  0.00    +0.000 C 
ATOM     11  C   UNL     1       6.997   5.279  16.780  0.00  0.00    +0.000 C 
ATOM     12  C   UNL     1       7.735   4.859  18.044  0.00  0.00    +0.000 C 
ATOM     13  C   UNL     1       7.198   5.613  19.255  0.00  0.00    +0.000 C 
ATOM     14  N   UNL     1       5.767   5.382  19.425  0.00  0.00    +0.000 NA
ATOM     15  H   UNL     1       5.445   5.897  20.245  0.00  0.00    +0.000 HD
ENDBRANCH   1   9
BRANCH   1  16
ATOM     16  C   UNL     1       2.734   4.862  17.260  0.00  0.00    +0.000 C 
BRANCH  16  17
ATOM     17  C   UNL     1       2.128   3.501  17.640  0.00  0.00    +0.000 C 
BRANCH  17  18
ATOM     18  C   UNL     1       2.135   3.139  19.106  0.00  0.00    +0.000 A 
ATOM     19  C   UNL     1       3.317   2.626  19.667  0.00  0.00    +0.000 A 
ATOM     20  C   UNL     1       3.399   2.330  21.027  0.00  0.00    +0.000 A 
ATOM     21  C   UNL     1       2.300   2.552  21.851  0.00  0.00    +0.000 A 
ATOM     22  C   UNL     1       1.123   3.065  21.314  0.00  0.00    +0.000 A 
ATOM     23  C   UNL     1       1.040   3.363  19.949  0.00  0.00    +0.000 A 
ENDBRANCH  17  18
ENDBRANCH  16  17
ENDBRANCH   1  16
TORSDOF 5
ENDMDL
MODEL 4
REMARK VINA RESULT:      -8.0      2.320      4.863
REMARK  Name = 
REMARK  5 active torsions:
REMARK  status: ('A' for Active; 'I' for Inactive)
REMARK    1  A    between atoms: C_5  and  C_6
REMARK    2  A    between atoms: C_6  and  C_7
REMARK    3  A    between atoms: C_6  and  C_15
REMARK    4  A    between atoms: C_7  and  C_8
REMARK    5  A    between atoms: C_8  and  C_9
REMARK                            x       y       z     vdW  Elec       q    Type
REMARK                         _______ _______ _______ _____ _____    ______ ____
ROOT
ATOM      1  C   UNL     1       3.346   6.402  17.384  0.00  0.00    +0.000 C 
ENDROOT
BRANCH   1   6
ATOM      2 CL   UNL     1       1.172   2.567  21.555  0.00  0.00    +0.000 Cl
ATOM      3  C   UNL     1       1.791   3.658  20.381  0.00  0.00    +0.000 A 
ATOM      4  C   UNL     1       1.240   3.687  19.099  0.00  0.00    +0.000 A 
ATOM      5  C   UNL     1       1.744   4.573  18.141  0.00  0.00    +0.000 A 
ATOM      6  C   UNL     1       2.805   5.441  18.451  0.00  0.00    +0.000 A 
ATOM      7  C   UNL     1       3.342   5.397  19.748  0.00  0.00    +0.000 A 
ATOM      8  C   UNL     1       2.841   4.508  20.707  0.00  0.00    +0.000 A 
ENDBRANCH   1   6
BRANCH   1   9
ATOM      9  C   UNL     1       4.731   5.982  16.776  0.00  0.00    +0.000 C 
ATOM     10  C   UNL     1       4.815   4.468  16.504  0.00  0.00    +0.000 C 
ATOM     11  C   UNL     1       6.181   4.074  15.938  0.00  0.00    +0.000 C 
ATOM     12  C   UNL     1       7.297   4.614  16.821  0.00  0.00    +0.000 C 
ATOM     13  C   UNL     1       7.160   6.121  16.999  0.00  0.00    +0.000 C 
ATOM     14  N   UNL     1       5.867   6.465  17.582  0.00  0.00    +0.000 NA
ATOM     15  H   UNL     1       5.814   7.478  17.690  0.00  0.00    +0.000 HD
ENDBRANCH   1   9
BRANCH   1  16
ATOM     16  C   UNL     1       3.319   7.865  17.919  0.00  0.00    +0.000 C 
BRANCH  16  17
ATOM     17  C   UNL     1       1.926   8.509  17.836  0.00  0.00    +0.000 C 
BRANCH  17  18
ATOM     18  C   UNL     1       1.300   8.948  19.139  0.00  0.00    +0.000 A 
ATOM     19  C   UNL     1       0.368  10.000  19.116  0.00  0.00    +0.000 A 
ATOM     20  C   UNL     1      -0.285  10.408  20.279  0.00  0.00    +0.000 A 
ATOM     21  C   UNL     1      -0.022   9.763  21.483  0.00  0.00    +0.000 A 
ATOM     22  C   UNL     1       0.894   8.714  21.522  0.00  0.00    +0.000 A 
ATOM     23  C   UNL     1       1.549   8.304  20.356  0.00  0.00    +0.000 A 
ENDBRANCH  17  18
ENDBRANCH  16  17
ENDBRANCH   1  16
TORSDOF 5
ENDMDL
MODEL 5
REMARK VINA RESULT:      -8.0      1.081      1.475
REMARK  Name = 
REMARK  5 active torsions:
REMARK  status: ('A' for Active; 'I' for Inactive)
REMARK    1  A    between atoms: C_5  and  C_6
REMARK    2  A    between atoms: C_6  and  C_7
REMARK    3  A    between atoms: C_6  and  C_15
REMARK    4  A    between atoms: C_7  and  C_8
REMARK    5  A    between atoms: C_8  and  C_9
REMARK                            x       y       z     vdW  Elec       q    Type
REMARK                         _______ _______ _______ _____ _____    ______ ____
ROOT
ATOM      1  C   UNL     1       3.298   5.762  18.481  0.00  0.00    +0.000 C 
ENDROOT
BRANCH   1   6
ATOM      2 CL   UNL     1       0.307  10.843  19.923  0.00  0.00    +0.000 Cl
ATOM      3  C   UNL     1       1.151   9.405  19.506  0.00  0.00    +0.000 A 
ATOM      4  C   UNL     1       1.363   8.418  20.469  0.00  0.00    +0.000 A 
ATOM      5  C   UNL     1       2.053   7.249  20.132  0.00  0.00    +0.000 A 
ATOM      6  C   UNL     1       2.540   7.050  18.829  0.00  0.00    +0.000 A 
ATOM      7  C   UNL     1       2.313   8.055  17.875  0.00  0.00    +0.000 A 
ATOM      8  C   UNL     1       1.626   9.229  18.211  0.00  0.00    +0.000 A 
ENDBRANCH   1   6
BRANCH   1   9
ATOM      9  C   UNL     1       4.837   5.959  18.246  0.00  0.00    +0.000 C 
ATOM     10  C   UNL     1       5.277   5.502  16.843  0.00  0.00    +0.000 C 
ATOM     11  C   UNL     1       6.784   5.675  16.642  0.00  0.00    +0.000 C 
ATOM     12  C   UNL     1       7.550   5.020  17.784  0.00  0.00    +0.000 C 
ATOM     13  C   UNL     1       7.081   5.563  19.128  0.00  0.00    +0.000 C 
ATOM     14  N   UNL     1       5.650   5.345  19.311  0.00  0.00    +0.000 NA
ATOM     15  H   UNL     1       5.374   5.716  20.220  0.00  0.00    +0.000 HD
ENDBRANCH   1   9
BRANCH   1  16
ATOM     16  C   UNL     1       2.580   5.018  17.316  0.00  0.00    +0.000 C 
BRANCH  16  17
ATOM     17  C   UNL     1       2.280   3.545  17.639  0.00  0.00    +0.000 C 
BRANCH  17  18
ATOM     18  C   UNL     1       2.195   3.171  19.099  0.00  0.00    +0.000 A 
ATOM     19  C   UNL     1       3.336   2.638  19.724  0.00  0.00    +0.000 A 
ATOM     20  C   UNL     1       3.334   2.331  21.084  0.00  0.00    +0.000 A 
ATOM     21  C   UNL     1       2.191   2.560  21.844  0.00  0.00    +0.000 A 
ATOM     22  C   UNL     1       1.054   3.093  21.243  0.00  0.00    +0.000 A 
ATOM     23  C   UNL     1       1.056   3.402  19.879  0.00  0.00    +0.000 A 
ENDBRANCH  17  18
ENDBRANCH  16  17
ENDBRANCH   1  16
TORSDOF 5
ENDMDL
MODEL 6
REMARK VINA RESULT:      -8.0      0.172      1.035
REMARK  Name = 
REMARK  5 active torsions:
REMARK  status: ('A' for Active; 'I' for Inactive)
REMARK    1  A    between atoms: C_5  and  C_6
REMARK    2  A    between atoms: C_6  and  C_7
REMARK    3  A    between atoms: C_6  and  C_15
REMARK    4  A    between atoms: C_7  and  C_8
REMARK    5  A    between atoms: C_8  and  C_9
REMARK                            x       y       z     vdW  Elec       q    Type
REMARK                         _______ _______ _______ _____ _____    ______ ____
ROOT
ATOM      1  C   UNL     1       4.167   5.224  18.138  0.00  0.00    +0.000 C 
ENDROOT
BRANCH   1   6
ATOM      2 CL   UNL     1       0.682  10.019  19.442  0.00  0.00    +0.000 Cl
ATOM      3  C   UNL     1       1.666   8.663  19.064  0.00  0.00    +0.000 A 
ATOM      4  C   UNL     1       1.916   7.692  20.035  0.00  0.00    +0.000 A 
ATOM      5  C   UNL     1       2.720   6.588  19.729  0.00  0.00    +0.000 A 
ATOM      6  C   UNL     1       3.284   6.440  18.451  0.00  0.00    +0.000 A 
ATOM      7  C   UNL     1       3.018   7.428  17.489  0.00  0.00    +0.000 A 
ATOM      8  C   UNL     1       2.217   8.535  17.794  0.00  0.00    +0.000 A 
ENDBRANCH   1   6
BRANCH   1   9
ATOM      9  C   UNL     1       5.696   5.552  17.999  0.00  0.00    +0.000 C 
ATOM     10  C   UNL     1       6.440   5.449  19.344  0.00  0.00    +0.000 C 
ATOM     11  C   UNL     1       7.922   5.798  19.194  0.00  0.00    +0.000 C 
ATOM     12  C   UNL     1       8.083   7.139  18.490  0.00  0.00    +0.000 C 
ATOM     13  C   UNL     1       7.353   7.135  17.153  0.00  0.00    +0.000 C 
ATOM     14  N   UNL     1       5.934   6.843  17.330  0.00  0.00    +0.000 NA
ATOM     15  H   UNL     1       5.479   6.853  16.417  0.00  0.00    +0.000 HD
ENDBRANCH   1   9
BRANCH   1  16
ATOM     16  C   UNL     1       3.585   4.440  16.925  0.00  0.00    +0.000 C 
BRANCH  16  17
ATOM     17  C   UNL     1       2.674   3.274  17.344  0.00  0.00    +0.000 C 
BRANCH  17  18
ATOM     18  C   UNL     1       2.402   3.120  18.821  0.00  0.00    +0.000 A 
ATOM     19  C   UNL     1       1.104   3.379  19.296  0.00  0.00    +0.000 A 
ATOM     20  C   UNL     1       0.780   3.196  20.640  0.00  0.00    +0.000 A 
ATOM     21  C   UNL     1       1.749   2.743  21.530  0.00  0.00    +0.000 A 
ATOM     22  C   UNL     1       3.037   2.475  21.075  0.00  0.00    +0.000 A 
ATOM     23  C   UNL     1       3.363   2.658  19.727  0.00  0.00    +0.000 A 
ENDBRANCH  17  18
ENDBRANCH  16  17
ENDBRANCH   1  16
TORSDOF 5
ENDMDL
MODEL 7
REMARK VINA RESULT:      -7.9      2.320      4.837
REMARK  Name = 
REMARK  5 active torsions:
REMARK  status: ('A' for Active; 'I' for Inactive)
REMARK    1  A    between atoms: C_5  and  C_6
REMARK    2  A    between atoms: C_6  and  C_7
REMARK    3  A    between atoms: C_6  and  C_15
REMARK    4  A    between atoms: C_7  and  C_8
REMARK    5  A    between atoms: C_8  and  C_9
REMARK                            x       y       z     vdW  Elec       q    Type
REMARK                         _______ _______ _______ _____ _____    ______ ____
ROOT
ATOM      1  C   UNL     1       3.370   6.392  17.326  0.00  0.00    +0.000 C 
ENDROOT
BRANCH   1   6
ATOM      2 CL   UNL     1       1.190   2.626  21.556  0.00  0.00    +0.000 Cl
ATOM      3  C   UNL     1       1.804   3.686  20.352  0.00  0.00    +0.000 A 
ATOM      4  C   UNL     1       2.860   4.548  20.656  0.00  0.00    +0.000 A 
ATOM      5  C   UNL     1       3.359   5.413  19.677  0.00  0.00    +0.000 A 
ATOM      6  C   UNL     1       2.811   5.431  18.383  0.00  0.00    +0.000 A 
ATOM      7  C   UNL     1       1.751   4.555  18.099  0.00  0.00    +0.000 A 
ATOM      8  C   UNL     1       1.247   3.689  19.078  0.00  0.00    +0.000 A 
ENDBRANCH   1   6
BRANCH   1   9
ATOM      9  C   UNL     1       4.780   5.990  16.766  0.00  0.00    +0.000 C 
ATOM     10  C   UNL     1       4.873   4.488  16.439  0.00  0.00    +0.000 C 
ATOM     11  C   UNL     1       6.262   4.109  15.921  0.00  0.00    +0.000 C 
ATOM     12  C   UNL     1       7.338   4.611  16.874  0.00  0.00    +0.000 C 
ATOM     13  C   UNL     1       7.197   6.111  17.104  0.00  0.00    +0.000 C 
ATOM     14  N   UNL     1       5.879   6.437  17.640  0.00  0.00    +0.000 NA
ATOM     15  H   UNL     1       5.823   7.445  17.784  0.00  0.00    +0.000 HD
ENDBRANCH   1   9
BRANCH   1  16
ATOM     16  C   UNL     1       3.302   7.858  17.848  0.00  0.00    +0.000 C 
BRANCH  16  17
ATOM     17  C   UNL     1       1.866   8.402  17.927  0.00  0.00    +0.000 C 
BRANCH  17  18
ATOM     18  C   UNL     1       1.424   8.965  19.257  0.00  0.00    +0.000 A 
ATOM     19  C   UNL     1       0.880  10.261  19.292  0.00  0.00    +0.000 A 
ATOM     20  C   UNL     1       0.401  10.808  20.481  0.00  0.00    +0.000 A 
ATOM     21  C   UNL     1       0.451  10.064  21.656  0.00  0.00    +0.000 A 
ATOM     22  C   UNL     1       0.981   8.776  21.638  0.00  0.00    +0.000 A 
ATOM     23  C   UNL     1       1.461   8.226  20.445  0.00  0.00    +0.000 A 
ENDBRANCH  17  18
ENDBRANCH  16  17
ENDBRANCH   1  16
TORSDOF 5
ENDMDL
MODEL 8
REMARK VINA RESULT:      -7.9      1.116      1.791
REMARK  Name = 
REMARK  5 active torsions:
REMARK  status: ('A' for Active; 'I' for Inactive)
REMARK    1  A    between atoms: C_5  and  C_6
REMARK    2  A    between atoms: C_6  and  C_7
REMARK    3  A    between atoms: C_6  and  C_15
REMARK    4  A    between atoms: C_7  and  C_8
REMARK    5  A    between atoms: C_8  and  C_9
REMARK                            x       y       z     vdW  Elec       q    Type
REMARK                         _______ _______ _______ _____ _____    ______ ____
ROOT
ATOM      1  C   UNL     1       3.323   5.787  18.432  0.00  0.00    +0.000 C 
ENDROOT
BRANCH   1   6
ATOM      2 CL   UNL     1       0.423  10.970  19.679  0.00  0.00    +0.000 Cl
ATOM      3  C   UNL     1       1.242   9.504  19.317  0.00  0.00    +0.000 A 
ATOM      4  C   UNL     1       1.372   8.519  20.297  0.00  0.00    +0.000 A 
ATOM      5  C   UNL     1       2.041   7.326  20.005  0.00  0.00    +0.000 A 
ATOM      6  C   UNL     1       2.589   7.101  18.730  0.00  0.00    +0.000 A 
ATOM      7  C   UNL     1       2.444   8.104  17.759  0.00  0.00    +0.000 A 
ATOM      8  C   UNL     1       1.778   9.301  18.050  0.00  0.00    +0.000 A 
ENDBRANCH   1   6
BRANCH   1   9
ATOM      9  C   UNL     1       4.864   5.947  18.184  0.00  0.00    +0.000 C 
ATOM     10  C   UNL     1       5.301   5.370  16.824  0.00  0.00    +0.000 C 
ATOM     11  C   UNL     1       6.810   5.510  16.612  0.00  0.00    +0.000 C 
ATOM     12  C   UNL     1       7.568   4.944  17.805  0.00  0.00    +0.000 C 
ATOM     13  C   UNL     1       7.104   5.603  19.099  0.00  0.00    +0.000 C 
ATOM     14  N   UNL     1       5.670   5.415  19.297  0.00  0.00    +0.000 NA
ATOM     15  H   UNL     1       5.397   5.864  20.172  0.00  0.00    +0.000 HD
ENDBRANCH   1   9
BRANCH   1  16
ATOM     16  C   UNL     1       2.588   5.009  17.300  0.00  0.00    +0.000 C 
BRANCH  16  17
ATOM     17  C   UNL     1       1.725   3.851  17.829  0.00  0.00    +0.000 C 
BRANCH  17  18
ATOM     18  C   UNL     1       2.009   3.377  19.234  0.00  0.00    +0.000 A 
ATOM     19  C   UNL     1       0.990   3.477  20.197  0.00  0.00    +0.000 A 
ATOM     20  C   UNL     1       1.176   3.001  21.494  0.00  0.00    +0.000 A 
ATOM     21  C   UNL     1       2.385   2.410  21.848  0.00  0.00    +0.000 A 
ATOM     22  C   UNL     1       3.403   2.297  20.905  0.00  0.00    +0.000 A 
ATOM     23  C   UNL     1       3.217   2.774  19.604  0.00  0.00    +0.000 A 
ENDBRANCH  17  18
ENDBRANCH  16  17
ENDBRANCH   1  16
TORSDOF 5
ENDMDL
MODEL 9
REMARK VINA RESULT:      -7.9      2.313      4.777
REMARK  Name = 
REMARK  5 active torsions:
REMARK  status: ('A' for Active; 'I' for Inactive)
REMARK    1  A    between atoms: C_5  and  C_6
REMARK    2  A    between atoms: C_6  and  C_7
REMARK    3  A    between atoms: C_6  and  C_15
REMARK    4  A    between atoms: C_7  and  C_8
REMARK    5  A    between atoms: C_8  and  C_9
REMARK                            x       y       z     vdW  Elec       q    Type
REMARK                         _______ _______ _______ _____ _____    ______ ____
ROOT
ATOM      1  C   UNL     1       3.390   6.398  17.341  0.00  0.00    +0.000 C 
ENDROOT
BRANCH   1   6
ATOM      2 CL   UNL     1       1.182   2.622  21.548  0.00  0.00    +0.000 Cl
ATOM      3  C   UNL     1       1.804   3.685  20.351  0.00  0.00    +0.000 A 
ATOM      4  C   UNL     1       2.858   4.545  20.663  0.00  0.00    +0.000 A 
ATOM      5  C   UNL     1       3.364   5.413  19.690  0.00  0.00    +0.000 A 
ATOM      6  C   UNL     1       2.824   5.434  18.393  0.00  0.00    +0.000 A 
ATOM      7  C   UNL     1       1.765   4.559  18.100  0.00  0.00    +0.000 A 
ATOM      8  C   UNL     1       1.255   3.692  19.074  0.00  0.00    +0.000 A 
ENDBRANCH   1   6
BRANCH   1   9
ATOM      9  C   UNL     1       4.808   6.002  16.796  0.00  0.00    +0.000 C 
ATOM     10  C   UNL     1       4.897   4.508  16.431  0.00  0.00    +0.000 C 
ATOM     11  C   UNL     1       6.293   4.134  15.928  0.00  0.00    +0.000 C 
ATOM     12  C   UNL     1       7.355   4.603  16.913  0.00  0.00    +0.000 C 
ATOM     13  C   UNL     1       7.219   6.097  17.180  0.00  0.00    +0.000 C 
ATOM     14  N   UNL     1       5.894   6.418  17.701  0.00  0.00    +0.000 NA
ATOM     15  H   UNL     1       5.841   7.422  17.872  0.00  0.00    +0.000 HD
ENDBRANCH   1   9
BRANCH   1  16
ATOM     16  C   UNL     1       3.311   7.864  17.863  0.00  0.00    +0.000 C 
BRANCH  16  17
ATOM     17  C   UNL     1       1.880   8.426  17.860  0.00  0.00    +0.000 C 
BRANCH  17  18
ATOM     18  C   UNL     1       1.381   9.022  19.155  0.00  0.00    +0.000 A 
ATOM     19  C   UNL     1       1.481   8.257  20.330  0.00  0.00    +0.000 A 
ATOM     20  C   UNL     1       1.091   8.779  21.563  0.00  0.00    +0.000 A 
ATOM     21  C   UNL     1       0.602  10.078  21.642  0.00  0.00    +0.000 A 
ATOM     22  C   UNL     1       0.502  10.853  20.489  0.00  0.00    +0.000 A 
ATOM     23  C   UNL     1       0.894  10.331  19.252  0.00  0.00    +0.000 A 
ENDBRANCH  17  18
ENDBRANCH  16  17
ENDBRANCH   1  16
TORSDOF 5
ENDMDL
