MODEL 1
REMARK VINA RESULT:      -8.2      0.000      0.000
REMARK  Name = 
REMARK  2 active torsions:
REMARK  status: ('A' for Active; 'I' for Inactive)
REMARK    1  A    between atoms: C_5  and  C_6
REMARK    2  A    between atoms: C_6  and  C_7
REMARK                            x       y       z     vdW  Elec       q    Type
REMARK                         _______ _______ _______ _____ _____    ______ ____
ROOT
ATOM      1  N   UNL     1       8.525   5.225  20.414  0.00  0.00    +0.000 N 
ATOM      2  C   UNL     1       7.877   5.612  19.285  0.00  0.00    +0.000 A 
ATOM      3  N   UNL     1       7.039   4.791  18.714  0.00  0.00    +0.000 NA
ATOM      4  C   UNL     1       6.419   5.310  17.574  0.00  0.00    +0.000 A 
ATOM      5  C   UNL     1       5.431   4.700  16.769  0.00  0.00    +0.000 A 
ATOM      6  C   UNL     1       5.128   5.642  15.790  0.00  0.00    +0.000 A 
ATOM      7  N   UNL     1       5.907   6.759  15.990  0.00  0.00    +0.000 N 
ATOM      8  C   UNL     1       6.688   6.558  17.091  0.00  0.00    +0.000 A 
ATOM      9  C   UNL     1       7.610   7.440  17.713  0.00  0.00    +0.000 A 
ATOM     10  O   UNL     1       7.881   8.572  17.332  0.00  0.00    +0.000 OA
ATOM     11  N   UNL     1       8.181   6.875  18.831  0.00  0.00    +0.000 N 
ATOM     12  H   UNL     1       8.449   4.225  20.580  0.00  0.00    +0.000 HD
ATOM     13  H   UNL     1       9.453   5.589  20.572  0.00  0.00    +0.000 HD
ATOM     14  H   UNL     1       5.888   7.607  15.436  0.00  0.00    +0.000 HD
ATOM     15  H   UNL     1       8.807   7.465  19.349  0.00  0.00    +0.000 HD
ENDROOT
BRANCH   5  16
ATOM     16  C   UNL     1       4.798   3.360  16.962  0.00  0.00    +0.000 C 
BRANCH  16  17
ATOM     17  C   UNL     1       3.638   3.537  17.915  0.00  0.00    +0.000 A 
ATOM     18  C   UNL     1       2.351   3.806  17.446  0.00  0.00    +0.000 A 
ATOM     19  C   UNL     1       1.310   3.951  18.359  0.00  0.00    +0.000 A 
ATOM     20  C   UNL     1       1.568   3.801  19.715  0.00  0.00    +0.000 A 
ATOM     21  C   UNL     1       2.864   3.506  20.102  0.00  0.00    +0.000 A 
ATOM     22  N   UNL     1       3.897   3.371  19.241  0.00  0.00    +0.000 NA
ENDBRANCH  16  17
ENDBRANCH   5  16
TORSDOF 2
ENDMDL
MODEL 2
REMARK VINA RESULT:      -7.9      0.661      1.130
REMARK  Name = 
REMARK  2 active torsions:
REMARK  status: ('A' for Active; 'I' for Inactive)
REMARK    1  A    between atoms: C_5  and  C_6
REMARK    2  A    between atoms: C_6  and  C_7
REMARK                            x       y       z     vdW  Elec       q    Type
REMARK                         _______ _______ _______ _____ _____    ______ ____
ROOT
ATOM      1  N   UNL     1       8.528   5.219  20.419  0.00  0.00    +0.000 N 
ATOM      2  C   UNL     1       7.871   5.601  19.294  0.00  0.00    +0.000 A 
ATOM      3  N   UNL     1       7.024   4.778  18.737  0.00  0.00    +0.000 NA
ATOM      4  C   UNL     1       6.396   5.291  17.599  0.00  0.00    +0.000 A 
ATOM      5  C   UNL     1       5.397   4.678  16.809  0.00  0.00    +0.000 A 
ATOM      6  C   UNL     1       5.088   5.615  15.826  0.00  0.00    +0.000 A 
ATOM      7  N   UNL     1       5.873   6.730  16.010  0.00  0.00    +0.000 N 
ATOM      8  C   UNL     1       6.664   6.535  17.104  0.00  0.00    +0.000 A 
ATOM      9  C   UNL     1       7.596   7.418  17.710  0.00  0.00    +0.000 A 
ATOM     10  O   UNL     1       7.867   8.545  17.318  0.00  0.00    +0.000 OA
ATOM     11  N   UNL     1       8.175   6.859  18.827  0.00  0.00    +0.000 N 
ATOM     12  H   UNL     1       8.451   4.221  20.593  0.00  0.00    +0.000 HD
ATOM     13  H   UNL     1       9.460   5.582  20.565  0.00  0.00    +0.000 HD
ATOM     14  H   UNL     1       5.851   7.573  15.449  0.00  0.00    +0.000 HD
ATOM     15  H   UNL     1       8.809   7.450  19.334  0.00  0.00    +0.000 HD
ENDROOT
BRANCH   5  16
ATOM     16  C   UNL     1       4.762   3.343  17.018  0.00  0.00    +0.000 C 
BRANCH  16  17
ATOM     17  C   UNL     1       3.584   3.539  17.946  0.00  0.00    +0.000 A 
ATOM     18  C   UNL     1       3.741   3.498  19.333  0.00  0.00    +0.000 A 
ATOM     19  C   UNL     1       2.631   3.694  20.149  0.00  0.00    +0.000 A 
ATOM     20  C   UNL     1       1.396   3.950  19.569  0.00  0.00    +0.000 A 
ATOM     21  C   UNL     1       1.324   4.004  18.188  0.00  0.00    +0.000 A 
ATOM     22  N   UNL     1       2.381   3.806  17.369  0.00  0.00    +0.000 NA
ENDBRANCH  16  17
ENDBRANCH   5  16
TORSDOF 2
ENDMDL
MODEL 3
REMARK VINA RESULT:      -7.7      1.807      2.984
REMARK  Name = 
REMARK  2 active torsions:
REMARK  status: ('A' for Active; 'I' for Inactive)
REMARK    1  A    between atoms: C_5  and  C_6
REMARK    2  A    between atoms: C_6  and  C_7
REMARK                            x       y       z     vdW  Elec       q    Type
REMARK                         _______ _______ _______ _____ _____    ______ ____
ROOT
ATOM      1  N   UNL     1       6.674   3.762  13.606  0.00  0.00    +0.000 N 
ATOM      2  C   UNL     1       6.456   4.263  14.849  0.00  0.00    +0.000 A 
ATOM      3  N   UNL     1       5.587   3.682  15.630  0.00  0.00    +0.000 NA
ATOM      4  C   UNL     1       5.466   4.276  16.890  0.00  0.00    +0.000 A 
ATOM      5  C   UNL     1       4.661   3.857  17.972  0.00  0.00    +0.000 A 
ATOM      6  C   UNL     1       4.930   4.762  18.995  0.00  0.00    +0.000 A 
ATOM      7  N   UNL     1       5.843   5.687  18.543  0.00  0.00    +0.000 N 
ATOM      8  C   UNL     1       6.179   5.380  17.257  0.00  0.00    +0.000 A 
ATOM      9  C   UNL     1       7.114   6.012  16.396  0.00  0.00    +0.000 A 
ATOM     10  O   UNL     1       7.788   6.995  16.675  0.00  0.00    +0.000 OA
ATOM     11  N   UNL     1       7.192   5.379  15.176  0.00  0.00    +0.000 N 
ATOM     12  H   UNL     1       5.960   3.095  13.327  0.00  0.00    +0.000 HD
ATOM     13  H   UNL     1       6.927   4.411  12.875  0.00  0.00    +0.000 HD
ATOM     14  H   UNL     1       6.230   6.455  19.079  0.00  0.00    +0.000 HD
ATOM     15  H   UNL     1       7.872   5.745  14.535  0.00  0.00    +0.000 HD
ENDROOT
BRANCH   5  16
ATOM     16  C   UNL     1       3.764   2.663  18.033  0.00  0.00    +0.000 C 
BRANCH  16  17
ATOM     17  C   UNL     1       2.873   2.823  19.244  0.00  0.00    +0.000 A 
ATOM     18  C   UNL     1       1.558   3.275  19.120  0.00  0.00    +0.000 A 
ATOM     19  C   UNL     1       0.770   3.397  20.261  0.00  0.00    +0.000 A 
ATOM     20  C   UNL     1       1.300   3.043  21.495  0.00  0.00    +0.000 A 
ATOM     21  C   UNL     1       2.602   2.575  21.535  0.00  0.00    +0.000 A 
ATOM     22  N   UNL     1       3.395   2.457  20.447  0.00  0.00    +0.000 NA
ENDBRANCH  16  17
ENDBRANCH   5  16
TORSDOF 2
ENDMDL
MODEL 4
REMARK VINA RESULT:      -7.6      1.932      2.321
REMARK  Name = 
REMARK  2 active torsions:
REMARK  status: ('A' for Active; 'I' for Inactive)
REMARK    1  A    between atoms: C_5  and  C_6
REMARK    2  A    between atoms: C_6  and  C_7
REMARK                            x       y       z     vdW  Elec       q    Type
REMARK                         _______ _______ _______ _____ _____    ______ ____
ROOT
ATOM      1  N   UNL     1       8.364   5.268  20.537  0.00  0.00    +0.000 N 
ATOM      2  C   UNL     1       7.496   5.182  19.497  0.00  0.00    +0.000 A 
ATOM      3  N   UNL     1       6.231   5.431  19.698  0.00  0.00    +0.000 NA
ATOM      4  C   UNL     1       5.441   5.330  18.549  0.00  0.00    +0.000 A 
ATOM      5  C   UNL     1       4.057   5.589  18.422  0.00  0.00    +0.000 A 
ATOM      6  C   UNL     1       3.772   5.376  17.076  0.00  0.00    +0.000 A 
ATOM      7  N   UNL     1       4.926   4.994  16.430  0.00  0.00    +0.000 N 
ATOM      8  C   UNL     1       5.949   4.979  17.332  0.00  0.00    +0.000 A 
ATOM      9  C   UNL     1       7.325   4.699  17.126  0.00  0.00    +0.000 A 
ATOM     10  O   UNL     1       7.838   4.392  16.058  0.00  0.00    +0.000 OA
ATOM     11  N   UNL     1       8.050   4.820  18.291  0.00  0.00    +0.000 N 
ATOM     12  H   UNL     1       7.891   5.309  21.435  0.00  0.00    +0.000 HD
ATOM     13  H   UNL     1       9.166   4.654  20.533  0.00  0.00    +0.000 HD
ATOM     14  H   UNL     1       5.015   4.787  15.443  0.00  0.00    +0.000 HD
ATOM     15  H   UNL     1       9.041   4.684  18.206  0.00  0.00    +0.000 HD
ENDROOT
BRANCH   5  16
ATOM     16  C   UNL     1       3.116   6.055  19.484  0.00  0.00    +0.000 C 
BRANCH  16  17
ATOM     17  C   UNL     1       2.395   4.839  20.021  0.00  0.00    +0.000 A 
ATOM     18  C   UNL     1       1.476   4.139  19.237  0.00  0.00    +0.000 A 
ATOM     19  C   UNL     1       0.843   3.018  19.768  0.00  0.00    +0.000 A 
ATOM     20  C   UNL     1       1.157   2.606  21.056  0.00  0.00    +0.000 A 
ATOM     21  C   UNL     1       2.101   3.333  21.761  0.00  0.00    +0.000 A 
ATOM     22  N   UNL     1       2.722   4.431  21.277  0.00  0.00    +0.000 NA
ENDBRANCH  16  17
ENDBRANCH   5  16
TORSDOF 2
ENDMDL
MODEL 5
REMARK VINA RESULT:      -7.6      2.122      3.366
REMARK  Name = 
REMARK  2 active torsions:
REMARK  status: ('A' for Active; 'I' for Inactive)
REMARK    1  A    between atoms: C_5  and  C_6
REMARK    2  A    between atoms: C_6  and  C_7
REMARK                            x       y       z     vdW  Elec       q    Type
REMARK                         _______ _______ _______ _____ _____    ______ ____
ROOT
ATOM      1  N   UNL     1       6.194   3.755  14.132  0.00  0.00    +0.000 N 
ATOM      2  C   UNL     1       6.211   4.138  15.435  0.00  0.00    +0.000 A 
ATOM      3  N   UNL     1       5.118   4.594  15.982  0.00  0.00    +0.000 NA
ATOM      4  C   UNL     1       5.255   4.935  17.331  0.00  0.00    +0.000 A 
ATOM      5  C   UNL     1       4.255   5.400  18.215  0.00  0.00    +0.000 A 
ATOM      6  C   UNL     1       4.898   5.555  19.439  0.00  0.00    +0.000 A 
ATOM      7  N   UNL     1       6.223   5.213  19.294  0.00  0.00    +0.000 N 
ATOM      8  C   UNL     1       6.436   4.821  18.005  0.00  0.00    +0.000 A 
ATOM      9  C   UNL     1       7.624   4.335  17.397  0.00  0.00    +0.000 A 
ATOM     10  O   UNL     1       8.705   4.200  17.955  0.00  0.00    +0.000 OA
ATOM     11  N   UNL     1       7.423   4.012  16.074  0.00  0.00    +0.000 N 
ATOM     12  H   UNL     1       5.362   4.076  13.646  0.00  0.00    +0.000 HD
ATOM     13  H   UNL     1       7.042   3.871  13.597  0.00  0.00    +0.000 HD
ATOM     14  H   UNL     1       6.924   5.218  20.026  0.00  0.00    +0.000 HD
ATOM     15  H   UNL     1       8.211   3.613  15.596  0.00  0.00    +0.000 HD
ENDROOT
BRANCH   5  16
ATOM     16  C   UNL     1       2.806   5.616  17.919  0.00  0.00    +0.000 C 
BRANCH  16  17
ATOM     17  C   UNL     1       2.030   4.526  18.622  0.00  0.00    +0.000 A 
ATOM     18  C   UNL     1       1.648   4.658  19.959  0.00  0.00    +0.000 A 
ATOM     19  C   UNL     1       0.925   3.634  20.564  0.00  0.00    +0.000 A 
ATOM     20  C   UNL     1       0.577   2.515  19.820  0.00  0.00    +0.000 A 
ATOM     21  C   UNL     1       0.966   2.469  18.492  0.00  0.00    +0.000 A 
ATOM     22  N   UNL     1       1.678   3.441  17.881  0.00  0.00    +0.000 NA
ENDBRANCH  16  17
ENDBRANCH   5  16
TORSDOF 2
ENDMDL
MODEL 6
REMARK VINA RESULT:      -7.6      1.981      3.020
REMARK  Name = 
REMARK  2 active torsions:
REMARK  status: ('A' for Active; 'I' for Inactive)
REMARK    1  A    between atoms: C_5  and  C_6
REMARK    2  A    between atoms: C_6  and  C_7
REMARK                            x       y       z     vdW  Elec       q    Type
REMARK                         _______ _______ _______ _____ _____    ______ ____
ROOT
ATOM      1  N   UNL     1       6.463   3.431  13.879  0.00  0.00    +0.000 N 
ATOM      2  C   UNL     1       6.140   4.251  14.912  0.00  0.00    +0.000 A 
ATOM      3  N   UNL     1       5.003   4.083  15.530  0.00  0.00    +0.000 NA
ATOM      4  C   UNL     1       4.793   4.973  16.587  0.00  0.00    +0.000 A 
ATOM      5  C   UNL     1       3.698   5.017  17.480  0.00  0.00    +0.000 A 
ATOM      6  C   UNL     1       3.989   6.056  18.359  0.00  0.00    +0.000 A 
ATOM      7  N   UNL     1       5.194   6.618  18.002  0.00  0.00    +0.000 N 
ATOM      8  C   UNL     1       5.690   5.944  16.925  0.00  0.00    +0.000 A 
ATOM      9  C   UNL     1       6.919   6.127  16.238  0.00  0.00    +0.000 A 
ATOM     10  O   UNL     1       7.765   6.971  16.504  0.00  0.00    +0.000 OA
ATOM     11  N   UNL     1       7.070   5.219  15.214  0.00  0.00    +0.000 N 
ATOM     12  H   UNL     1       5.667   2.895  13.546  0.00  0.00    +0.000 HD
ATOM     13  H   UNL     1       7.030   3.813  13.135  0.00  0.00    +0.000 HD
ATOM     14  H   UNL     1       5.657   7.385  18.475  0.00  0.00    +0.000 HD
ATOM     15  H   UNL     1       7.942   5.259  14.718  0.00  0.00    +0.000 HD
ENDROOT
BRANCH   5  16
ATOM     16  C   UNL     1       2.516   4.105  17.517  0.00  0.00    +0.000 C 
BRANCH  16  17
ATOM     17  C   UNL     1       2.364   3.611  18.938  0.00  0.00    +0.000 A 
ATOM     18  C   UNL     1       1.178   3.806  19.648  0.00  0.00    +0.000 A 
ATOM     19  C   UNL     1       1.079   3.326  20.951  0.00  0.00    +0.000 A 
ATOM     20  C   UNL     1       2.151   2.643  21.508  0.00  0.00    +0.000 A 
ATOM     21  C   UNL     1       3.283   2.463  20.732  0.00  0.00    +0.000 A 
ATOM     22  N   UNL     1       3.413   2.927  19.470  0.00  0.00    +0.000 NA
ENDBRANCH  16  17
ENDBRANCH   5  16
TORSDOF 2
ENDMDL
MODEL 7
REMARK VINA RESULT:      -7.6      2.100      3.268
REMARK  Name = 
REMARK  2 active torsions:
REMARK  status: ('A' for Active; 'I' for Inactive)
REMARK    1  A    between atoms: C_5  and  C_6
REMARK    2  A    between atoms: C_6  and  C_7
REMARK                            x       y       z     vdW  Elec       q    Type
REMARK                         _______ _______ _______ _____ _____    ______ ____
ROOT
ATOM      1  N   UNL     1       6.187   4.177  14.015  0.00  0.00    +0.000 N 
ATOM      2  C   UNL     1       6.225   4.434  15.348  0.00  0.00    +0.000 A 
ATOM      3  N   UNL     1       5.156   4.886  15.943  0.00  0.00    +0.000 NA
ATOM      4  C   UNL     1       5.313   5.092  17.317  0.00  0.00    +0.000 A 
ATOM      5  C   UNL     1       4.338   5.518  18.248  0.00  0.00    +0.000 A 
ATOM      6  C   UNL     1       4.991   5.527  19.477  0.00  0.00    +0.000 A 
ATOM      7  N   UNL     1       6.299   5.139  19.291  0.00  0.00    +0.000 N 
ATOM      8  C   UNL     1       6.489   4.860  17.969  0.00  0.00    +0.000 A 
ATOM      9  C   UNL     1       7.651   4.380  17.310  0.00  0.00    +0.000 A 
ATOM     10  O   UNL     1       8.727   4.144  17.844  0.00  0.00    +0.000 OA
ATOM     11  N   UNL     1       7.432   4.192  15.963  0.00  0.00    +0.000 N 
ATOM     12  H   UNL     1       5.369   4.579  13.567  0.00  0.00    +0.000 HD
ATOM     13  H   UNL     1       7.038   4.303  13.486  0.00  0.00    +0.000 HD
ATOM     14  H   UNL     1       7.001   5.043  20.014  0.00  0.00    +0.000 HD
ATOM     15  H   UNL     1       8.199   3.805  15.444  0.00  0.00    +0.000 HD
ENDROOT
BRANCH   5  16
ATOM     16  C   UNL     1       2.901   5.827  17.984  0.00  0.00    +0.000 C 
BRANCH  16  17
ATOM     17  C   UNL     1       2.074   4.736  18.626  0.00  0.00    +0.000 A 
ATOM     18  C   UNL     1       1.762   3.564  17.934  0.00  0.00    +0.000 A 
ATOM     19  C   UNL     1       1.007   2.581  18.567  0.00  0.00    +0.000 A 
ATOM     20  C   UNL     1       0.601   2.774  19.881  0.00  0.00    +0.000 A 
ATOM     21  C   UNL     1       0.975   3.949  20.511  0.00  0.00    +0.000 A 
ATOM     22  N   UNL     1       1.696   4.926  19.919  0.00  0.00    +0.000 NA
ENDBRANCH  16  17
ENDBRANCH   5  16
TORSDOF 2
ENDMDL
MODEL 8
REMARK VINA RESULT:      -7.5      1.960      2.535
REMARK  Name = 
REMARK  2 active torsions:
REMARK  status: ('A' for Active; 'I' for Inactive)
REMARK    1  A    between atoms: C_5  and  C_6
REMARK    2  A    between atoms: C_6  and  C_7
REMARK                            x       y       z     vdW  Elec       q    Type
REMARK                         _______ _______ _______ _____ _____    ______ ____
ROOT
ATOM      1  N   UNL     1       8.413   5.258  20.488  0.00  0.00    +0.000 N 
ATOM      2  C   UNL     1       7.540   5.181  19.451  0.00  0.00    +0.000 A 
ATOM      3  N   UNL     1       6.275   5.422  19.660  0.00  0.00    +0.000 NA
ATOM      4  C   UNL     1       5.481   5.333  18.513  0.00  0.00    +0.000 A 
ATOM      5  C   UNL     1       4.096   5.587  18.396  0.00  0.00    +0.000 A 
ATOM      6  C   UNL     1       3.805   5.392  17.048  0.00  0.00    +0.000 A 
ATOM      7  N   UNL     1       4.958   5.024  16.392  0.00  0.00    +0.000 N 
ATOM      8  C   UNL     1       5.985   5.002  17.289  0.00  0.00    +0.000 A 
ATOM      9  C   UNL     1       7.362   4.730  17.074  0.00  0.00    +0.000 A 
ATOM     10  O   UNL     1       7.871   4.441  15.999  0.00  0.00    +0.000 OA
ATOM     11  N   UNL     1       8.091   4.839  18.237  0.00  0.00    +0.000 N 
ATOM     12  H   UNL     1       7.943   5.284  21.388  0.00  0.00    +0.000 HD
ATOM     13  H   UNL     1       9.218   4.648  20.472  0.00  0.00    +0.000 HD
ATOM     14  H   UNL     1       5.044   4.831  15.401  0.00  0.00    +0.000 HD
ATOM     15  H   UNL     1       9.082   4.709  18.146  0.00  0.00    +0.000 HD
ENDROOT
BRANCH   5  16
ATOM     16  C   UNL     1       3.157   6.034  19.468  0.00  0.00    +0.000 C 
BRANCH  16  17
ATOM     17  C   UNL     1       2.455   4.805  20.001  0.00  0.00    +0.000 A 
ATOM     18  C   UNL     1       2.704   4.332  21.291  0.00  0.00    +0.000 A 
ATOM     19  C   UNL     1       2.028   3.203  21.744  0.00  0.00    +0.000 A 
ATOM     20  C   UNL     1       1.102   2.586  20.915  0.00  0.00    +0.000 A 
ATOM     21  C   UNL     1       0.886   3.131  19.660  0.00  0.00    +0.000 A 
ATOM     22  N   UNL     1       1.536   4.217  19.188  0.00  0.00    +0.000 NA
ENDBRANCH  16  17
ENDBRANCH   5  16
TORSDOF 2
ENDMDL
MODEL 9
REMARK VINA RESULT:      -7.5      2.845      5.531
REMARK  Name = 
REMARK  2 active torsions:
REMARK  status: ('A' for Active; 'I' for Inactive)
REMARK    1  A    between atoms: C_5  and  C_6
REMARK    2  A    between atoms: C_6  and  C_7
REMARK                            x       y       z     vdW  Elec       q    Type
REMARK                         _______ _______ _______ _____ _____    ______ ____
ROOT
ATOM      1  N   UNL     1       2.109   7.266  20.458  0.00  0.00    +0.000 N 
ATOM      2  C   UNL     1       2.366   5.955  20.214  0.00  0.00    +0.000 A 
ATOM      3  N   UNL     1       2.916   5.611  19.082  0.00  0.00    +0.000 NA
ATOM      4  C   UNL     1       3.150   4.238  18.956  0.00  0.00    +0.000 A 
ATOM      5  C   UNL     1       3.776   3.559  17.887  0.00  0.00    +0.000 A 
ATOM      6  C   UNL     1       3.791   2.220  18.268  0.00  0.00    +0.000 A 
ATOM      7  N   UNL     1       3.191   2.100  19.501  0.00  0.00    +0.000 N 
ATOM      8  C   UNL     1       2.811   3.340  19.926  0.00  0.00    +0.000 A 
ATOM      9  C   UNL     1       2.202   3.723  21.150  0.00  0.00    +0.000 A 
ATOM     10  O   UNL     1       1.888   2.964  22.057  0.00  0.00    +0.000 OA
ATOM     11  N   UNL     1       2.003   5.084  21.215  0.00  0.00    +0.000 N 
ATOM     12  H   UNL     1       2.176   7.836  19.620  0.00  0.00    +0.000 HD
ATOM     13  H   UNL     1       1.310   7.490  21.033  0.00  0.00    +0.000 HD
ATOM     14  H   UNL     1       3.075   1.242  20.026  0.00  0.00    +0.000 HD
ATOM     15  H   UNL     1       1.622   5.430  22.077  0.00  0.00    +0.000 HD
ENDROOT
BRANCH   5  16
ATOM     16  C   UNL     1       4.356   4.154  16.645  0.00  0.00    +0.000 C 
BRANCH  16  17
ATOM     17  C   UNL     1       5.509   5.040  17.059  0.00  0.00    +0.000 A 
ATOM     18  C   UNL     1       5.501   6.410  16.789  0.00  0.00    +0.000 A 
ATOM     19  C   UNL     1       6.579   7.190  17.198  0.00  0.00    +0.000 A 
ATOM     20  C   UNL     1       7.627   6.595  17.886  0.00  0.00    +0.000 A 
ATOM     21  C   UNL     1       7.550   5.237  18.143  0.00  0.00    +0.000 A 
ATOM     22  N   UNL     1       6.524   4.452  17.749  0.00  0.00    +0.000 NA
ENDBRANCH  16  17
ENDBRANCH   5  16
TORSDOF 2
ENDMDL
