MODEL 1
REMARK VINA RESULT:      -6.3      0.000      0.000
REMARK  Name = 
REMARK  4 active torsions:
REMARK  status: ('A' for Active; 'I' for Inactive)
REMARK    1  A    between atoms: C_1  and  C_2
REMARK    2  A    between atoms: C_7  and  C_8
REMARK    3  A    between atoms: C_8  and  N_9
REMARK    4  A    between atoms: C_8  and  C_10
REMARK                            x       y       z     vdW  Elec       q    Type
REMARK                         _______ _______ _______ _____ _____    ______ ____
ROOT
ATOM      1  C   UNL     1       5.031   4.556  18.058  0.00  0.00    +0.000 C 
ENDROOT
BRANCH   1   8
ATOM      2  C   UNL     1       2.371   6.053  18.087  0.00  0.00    +0.000 C 
ATOM      3  C   UNL     1       2.454   4.557  18.244  0.00  0.00    +0.000 A 
ATOM      4  C   UNL     1       1.258   3.858  18.484  0.00  0.00    +0.000 A 
ATOM      5  C   UNL     1       1.254   2.476  18.667  0.00  0.00    +0.000 A 
ATOM      6  C   UNL     1       2.447   1.770  18.603  0.00  0.00    +0.000 A 
ATOM      7  C   UNL     1       3.646   2.446  18.373  0.00  0.00    +0.000 A 
ATOM      8  C   UNL     1       3.681   3.849  18.210  0.00  0.00    +0.000 A 
ENDBRANCH   1   8
BRANCH   1   9
ATOM      9  C   UNL     1       5.556   4.618  16.635  0.00  0.00    +0.000 A 
ATOM     10  C   UNL     1       4.978   4.173  15.456  0.00  0.00    +0.000 A 
ATOM     11  C   UNL     1       5.846   4.290  14.332  0.00  0.00    +0.000 A 
ATOM     12  C   UNL     1       7.058   4.844  14.674  0.00  0.00    +0.000 A 
ATOM     13  S   UNL     1       7.140   5.229  16.337  0.00  0.00    +0.000 S 
ENDBRANCH   1   9
BRANCH   1  14
ATOM     14  N   UNL     1       6.023   3.950  18.966  0.00  0.00    +0.000 NA
ATOM     15  H   UNL     1       6.362   3.089  18.543  0.00  0.00    +0.000 HD
ATOM     16  H   UNL     1       5.529   3.662  19.809  0.00  0.00    +0.000 HD
ENDBRANCH   1  14
TORSDOF 3
ENDMDL
MODEL 2
REMARK VINA RESULT:      -6.2      2.675      5.343
REMARK  Name = 
REMARK  4 active torsions:
REMARK  status: ('A' for Active; 'I' for Inactive)
REMARK    1  A    between atoms: C_1  and  C_2
REMARK    2  A    between atoms: C_7  and  C_8
REMARK    3  A    between atoms: C_8  and  N_9
REMARK    4  A    between atoms: C_8  and  C_10
REMARK                            x       y       z     vdW  Elec       q    Type
REMARK                         _______ _______ _______ _____ _____    ______ ____
ROOT
ATOM      1  C   UNL     1       4.210   4.434  17.890  0.00  0.00    +0.000 C 
ENDROOT
BRANCH   1   8
ATOM      2  C   UNL     1       5.063   6.553  15.866  0.00  0.00    +0.000 C 
ATOM      3  C   UNL     1       5.859   6.265  17.113  0.00  0.00    +0.000 A 
ATOM      4  C   UNL     1       7.069   6.957  17.290  0.00  0.00    +0.000 A 
ATOM      5  C   UNL     1       7.876   6.728  18.404  0.00  0.00    +0.000 A 
ATOM      6  C   UNL     1       7.478   5.807  19.363  0.00  0.00    +0.000 A 
ATOM      7  C   UNL     1       6.283   5.104  19.202  0.00  0.00    +0.000 A 
ATOM      8  C   UNL     1       5.461   5.299  18.071  0.00  0.00    +0.000 A 
ENDBRANCH   1   8
BRANCH   1   9
ATOM      9  C   UNL     1       3.218   4.509  19.037  0.00  0.00    +0.000 A 
ATOM     10  C   UNL     1       2.409   5.559  19.443  0.00  0.00    +0.000 A 
ATOM     11  C   UNL     1       1.708   5.287  20.653  0.00  0.00    +0.000 A 
ATOM     12  C   UNL     1       1.980   4.025  21.131  0.00  0.00    +0.000 A 
ATOM     13  S   UNL     1       3.063   3.176  20.119  0.00  0.00    +0.000 S 
ENDBRANCH   1   9
BRANCH   1  14
ATOM     14  N   UNL     1       4.597   3.038  17.612  0.00  0.00    +0.000 NA
ATOM     15  H   UNL     1       4.872   2.600  18.489  0.00  0.00    +0.000 HD
ATOM     16  H   UNL     1       5.444   3.064  17.046  0.00  0.00    +0.000 HD
ENDBRANCH   1  14
TORSDOF 3
ENDMDL
MODEL 3
REMARK VINA RESULT:      -6.2      2.190      5.016
REMARK  Name = 
REMARK  4 active torsions:
REMARK  status: ('A' for Active; 'I' for Inactive)
REMARK    1  A    between atoms: C_1  and  C_2
REMARK    2  A    between atoms: C_7  and  C_8
REMARK    3  A    between atoms: C_8  and  N_9
REMARK    4  A    between atoms: C_8  and  C_10
REMARK                            x       y       z     vdW  Elec       q    Type
REMARK                         _______ _______ _______ _____ _____    ______ ____
ROOT
ATOM      1  C   UNL     1       4.361   3.304  18.231  0.00  0.00    +0.000 C 
ENDROOT
BRANCH   1   8
ATOM      2  C   UNL     1       5.839   3.579  15.575  0.00  0.00    +0.000 C 
ATOM      3  C   UNL     1       5.179   4.751  16.253  0.00  0.00    +0.000 A 
ATOM      4  C   UNL     1       5.325   6.017  15.660  0.00  0.00    +0.000 A 
ATOM      5  C   UNL     1       4.767   7.155  16.240  0.00  0.00    +0.000 A 
ATOM      6  C   UNL     1       4.044   7.041  17.420  0.00  0.00    +0.000 A 
ATOM      7  C   UNL     1       3.893   5.795  18.029  0.00  0.00    +0.000 A 
ATOM      8  C   UNL     1       4.471   4.631  17.475  0.00  0.00    +0.000 A 
ENDBRANCH   1   8
BRANCH   1   9
ATOM      9  C   UNL     1       2.993   3.027  18.829  0.00  0.00    +0.000 A 
ATOM     10  C   UNL     1       1.783   2.782  18.199  0.00  0.00    +0.000 A 
ATOM     11  C   UNL     1       0.688   2.701  19.107  0.00  0.00    +0.000 A 
ATOM     12  C   UNL     1       1.092   2.861  20.413  0.00  0.00    +0.000 A 
ATOM     13  S   UNL     1       2.779   3.097  20.538  0.00  0.00    +0.000 S 
ENDBRANCH   1   9
BRANCH   1  14
ATOM     14  N   UNL     1       5.417   3.217  19.257  0.00  0.00    +0.000 NA
ATOM     15  H   UNL     1       5.214   3.899  19.985  0.00  0.00    +0.000 HD
ATOM     16  H   UNL     1       6.286   3.532  18.828  0.00  0.00    +0.000 HD
ENDBRANCH   1  14
TORSDOF 3
ENDMDL
MODEL 4
REMARK VINA RESULT:      -6.1      1.480      1.717
REMARK  Name = 
REMARK  4 active torsions:
REMARK  status: ('A' for Active; 'I' for Inactive)
REMARK    1  A    between atoms: C_1  and  C_2
REMARK    2  A    between atoms: C_7  and  C_8
REMARK    3  A    between atoms: C_8  and  N_9
REMARK    4  A    between atoms: C_8  and  C_10
REMARK                            x       y       z     vdW  Elec       q    Type
REMARK                         _______ _______ _______ _____ _____    ______ ____
ROOT
ATOM      1  C   UNL     1       4.514   4.475  18.984  0.00  0.00    +0.000 C 
ENDROOT
BRANCH   1   8
ATOM      2  C   UNL     1       2.200   5.789  20.478  0.00  0.00    +0.000 C 
ATOM      3  C   UNL     1       2.048   4.476  19.754  0.00  0.00    +0.000 A 
ATOM      4  C   UNL     1       0.809   3.819  19.844  0.00  0.00    +0.000 A 
ATOM      5  C   UNL     1       0.597   2.589  19.224  0.00  0.00    +0.000 A 
ATOM      6  C   UNL     1       1.621   2.001  18.494  0.00  0.00    +0.000 A 
ATOM      7  C   UNL     1       2.861   2.634  18.397  0.00  0.00    +0.000 A 
ATOM      8  C   UNL     1       3.109   3.869  19.037  0.00  0.00    +0.000 A 
ENDBRANCH   1   8
BRANCH   1   9
ATOM      9  C   UNL     1       4.854   5.170  17.677  0.00  0.00    +0.000 A 
ATOM     10  C   UNL     1       4.554   6.455  17.252  0.00  0.00    +0.000 A 
ATOM     11  C   UNL     1       4.931   6.697  15.899  0.00  0.00    +0.000 A 
ATOM     12  C   UNL     1       5.532   5.598  15.330  0.00  0.00    +0.000 A 
ATOM     13  S   UNL     1       5.648   4.291  16.425  0.00  0.00    +0.000 S 
ENDBRANCH   1   9
BRANCH   1  14
ATOM     14  N   UNL     1       5.521   3.450  19.318  0.00  0.00    +0.000 NA
ATOM     15  H   UNL     1       5.041   2.563  19.457  0.00  0.00    +0.000 HD
ATOM     16  H   UNL     1       5.910   3.692  20.228  0.00  0.00    +0.000 HD
ENDBRANCH   1  14
TORSDOF 3
ENDMDL
MODEL 5
REMARK VINA RESULT:      -6.1      1.485      1.586
REMARK  Name = 
REMARK  4 active torsions:
REMARK  status: ('A' for Active; 'I' for Inactive)
REMARK    1  A    between atoms: C_1  and  C_2
REMARK    2  A    between atoms: C_7  and  C_8
REMARK    3  A    between atoms: C_8  and  N_9
REMARK    4  A    between atoms: C_8  and  C_10
REMARK                            x       y       z     vdW  Elec       q    Type
REMARK                         _______ _______ _______ _____ _____    ______ ____
ROOT
ATOM      1  C   UNL     1       4.513   4.421  18.852  0.00  0.00    +0.000 C 
ENDROOT
BRANCH   1   8
ATOM      2  C   UNL     1       2.277   5.866  20.345  0.00  0.00    +0.000 C 
ATOM      3  C   UNL     1       2.088   4.498  19.742  0.00  0.00    +0.000 A 
ATOM      4  C   UNL     1       0.856   3.857  19.951  0.00  0.00    +0.000 A 
ATOM      5  C   UNL     1       0.612   2.579  19.449  0.00  0.00    +0.000 A 
ATOM      6  C   UNL     1       1.598   1.928  18.720  0.00  0.00    +0.000 A 
ATOM      7  C   UNL     1       2.831   2.544  18.507  0.00  0.00    +0.000 A 
ATOM      8  C   UNL     1       3.112   3.827  19.027  0.00  0.00    +0.000 A 
ENDBRANCH   1   8
BRANCH   1   9
ATOM      9  C   UNL     1       4.795   4.977  17.467  0.00  0.00    +0.000 A 
ATOM     10  C   UNL     1       5.285   4.339  16.338  0.00  0.00    +0.000 A 
ATOM     11  C   UNL     1       5.542   5.234  15.260  0.00  0.00    +0.000 A 
ATOM     12  C   UNL     1       5.219   6.532  15.582  0.00  0.00    +0.000 A 
ATOM     13  S   UNL     1       4.601   6.664  17.170  0.00  0.00    +0.000 S 
ENDBRANCH   1   9
BRANCH   1  14
ATOM     14  N   UNL     1       5.534   3.433  19.247  0.00  0.00    +0.000 NA
ATOM     15  H   UNL     1       6.275   3.441  18.549  0.00  0.00    +0.000 HD
ATOM     16  H   UNL     1       5.108   2.510  19.177  0.00  0.00    +0.000 HD
ENDBRANCH   1  14
TORSDOF 3
ENDMDL
MODEL 6
REMARK VINA RESULT:      -6.1      2.428      3.124
REMARK  Name = 
REMARK  4 active torsions:
REMARK  status: ('A' for Active; 'I' for Inactive)
REMARK    1  A    between atoms: C_1  and  C_2
REMARK    2  A    between atoms: C_7  and  C_8
REMARK    3  A    between atoms: C_8  and  N_9
REMARK    4  A    between atoms: C_8  and  C_10
REMARK                            x       y       z     vdW  Elec       q    Type
REMARK                         _______ _______ _______ _____ _____    ______ ____
ROOT
ATOM      1  C   UNL     1       3.522   6.019  17.866  0.00  0.00    +0.000 C 
ENDROOT
BRANCH   1   8
ATOM      2  C   UNL     1       2.832   3.182  16.974  0.00  0.00    +0.000 C 
ATOM      3  C   UNL     1       2.333   3.761  18.273  0.00  0.00    +0.000 A 
ATOM      4  C   UNL     1       1.464   2.974  19.048  0.00  0.00    +0.000 A 
ATOM      5  C   UNL     1       0.938   3.448  20.248  0.00  0.00    +0.000 A 
ATOM      6  C   UNL     1       1.284   4.715  20.698  0.00  0.00    +0.000 A 
ATOM      7  C   UNL     1       2.140   5.515  19.940  0.00  0.00    +0.000 A 
ATOM      8  C   UNL     1       2.666   5.068  18.708  0.00  0.00    +0.000 A 
ENDBRANCH   1   8
BRANCH   1   9
ATOM      9  C   UNL     1       5.014   5.928  18.130  0.00  0.00    +0.000 A 
ATOM     10  C   UNL     1       5.698   5.266  19.138  0.00  0.00    +0.000 A 
ATOM     11  C   UNL     1       7.098   5.529  19.127  0.00  0.00    +0.000 A 
ATOM     12  C   UNL     1       7.455   6.367  18.096  0.00  0.00    +0.000 A 
ATOM     13  S   UNL     1       6.110   6.821  17.144  0.00  0.00    +0.000 S 
ENDBRANCH   1   9
BRANCH   1  14
ATOM     14  N   UNL     1       3.038   7.403  18.018  0.00  0.00    +0.000 NA
ATOM     15  H   UNL     1       3.785   7.962  18.426  0.00  0.00    +0.000 HD
ATOM     16  H   UNL     1       2.296   7.392  18.716  0.00  0.00    +0.000 HD
ENDBRANCH   1  14
TORSDOF 3
ENDMDL
MODEL 7
REMARK VINA RESULT:      -6.0      1.478      1.506
REMARK  Name = 
REMARK  4 active torsions:
REMARK  status: ('A' for Active; 'I' for Inactive)
REMARK    1  A    between atoms: C_1  and  C_2
REMARK    2  A    between atoms: C_7  and  C_8
REMARK    3  A    between atoms: C_8  and  N_9
REMARK    4  A    between atoms: C_8  and  C_10
REMARK                            x       y       z     vdW  Elec       q    Type
REMARK                         _______ _______ _______ _____ _____    ______ ____
ROOT
ATOM      1  C   UNL     1       5.201   5.382  18.880  0.00  0.00    +0.000 C 
ENDROOT
BRANCH   1   8
ATOM      2  C   UNL     1       2.582   6.854  19.421  0.00  0.00    +0.000 C 
ATOM      3  C   UNL     1       2.752   5.383  19.703  0.00  0.00    +0.000 A 
ATOM      4  C   UNL     1       1.677   4.704  20.302  0.00  0.00    +0.000 A 
ATOM      5  C   UNL     1       1.765   3.350  20.618  0.00  0.00    +0.000 A 
ATOM      6  C   UNL     1       2.929   2.650  20.329  0.00  0.00    +0.000 A 
ATOM      7  C   UNL     1       4.010   3.307  19.740  0.00  0.00    +0.000 A 
ATOM      8  C   UNL     1       3.956   4.685  19.434  0.00  0.00    +0.000 A 
ENDBRANCH   1   8
BRANCH   1   9
ATOM      9  C   UNL     1       5.538   5.028  17.443  0.00  0.00    +0.000 A 
ATOM     10  C   UNL     1       4.698   4.821  16.360  0.00  0.00    +0.000 A 
ATOM     11  C   UNL     1       5.388   4.371  15.197  0.00  0.00    +0.000 A 
ATOM     12  C   UNL     1       6.743   4.267  15.413  0.00  0.00    +0.000 A 
ATOM     13  S   UNL     1       7.176   4.722  17.002  0.00  0.00    +0.000 S 
ENDBRANCH   1   9
BRANCH   1  14
ATOM     14  N   UNL     1       6.352   5.144  19.771  0.00  0.00    +0.000 NA
ATOM     15  H   UNL     1       6.299   4.188  20.116  0.00  0.00    +0.000 HD
ATOM     16  H   UNL     1       6.230   5.735  20.591  0.00  0.00    +0.000 HD
ENDBRANCH   1  14
TORSDOF 3
ENDMDL
MODEL 8
REMARK VINA RESULT:      -6.0      2.507      5.311
REMARK  Name = 
REMARK  4 active torsions:
REMARK  status: ('A' for Active; 'I' for Inactive)
REMARK    1  A    between atoms: C_1  and  C_2
REMARK    2  A    between atoms: C_7  and  C_8
REMARK    3  A    between atoms: C_8  and  N_9
REMARK    4  A    between atoms: C_8  and  C_10
REMARK                            x       y       z     vdW  Elec       q    Type
REMARK                         _______ _______ _______ _____ _____    ______ ____
ROOT
ATOM      1  C   UNL     1       4.526   3.466  18.805  0.00  0.00    +0.000 C 
ENDROOT
BRANCH   1   8
ATOM      2  C   UNL     1       4.818   4.383  15.908  0.00  0.00    +0.000 C 
ATOM      3  C   UNL     1       5.677   4.933  17.016  0.00  0.00    +0.000 A 
ATOM      4  C   UNL     1       6.688   5.845  16.668  0.00  0.00    +0.000 A 
ATOM      5  C   UNL     1       7.542   6.379  17.631  0.00  0.00    +0.000 A 
ATOM      6  C   UNL     1       7.390   6.016  18.962  0.00  0.00    +0.000 A 
ATOM      7  C   UNL     1       6.397   5.107  19.329  0.00  0.00    +0.000 A 
ATOM      8  C   UNL     1       5.535   4.532  18.368  0.00  0.00    +0.000 A 
ENDBRANCH   1   8
BRANCH   1   9
ATOM      9  C   UNL     1       3.249   4.016  19.413  0.00  0.00    +0.000 A 
ATOM     10  C   UNL     1       2.967   5.288  19.885  0.00  0.00    +0.000 A 
ATOM     11  C   UNL     1       1.690   5.381  20.510  0.00  0.00    +0.000 A 
ATOM     12  C   UNL     1       1.015   4.182  20.478  0.00  0.00    +0.000 A 
ATOM     13  S   UNL     1       1.914   2.961  19.691  0.00  0.00    +0.000 S 
ENDBRANCH   1   9
BRANCH   1  14
ATOM     14  N   UNL     1       5.173   2.498  19.710  0.00  0.00    +0.000 NA
ATOM     15  H   UNL     1       6.137   2.791  19.858  0.00  0.00    +0.000 HD
ATOM     16  H   UNL     1       5.234   1.610  19.214  0.00  0.00    +0.000 HD
ENDBRANCH   1  14
TORSDOF 3
ENDMDL
MODEL 9
REMARK VINA RESULT:      -6.0      2.050      2.881
REMARK  Name = 
REMARK  4 active torsions:
REMARK  status: ('A' for Active; 'I' for Inactive)
REMARK    1  A    between atoms: C_1  and  C_2
REMARK    2  A    between atoms: C_7  and  C_8
REMARK    3  A    between atoms: C_8  and  N_9
REMARK    4  A    between atoms: C_8  and  C_10
REMARK                            x       y       z     vdW  Elec       q    Type
REMARK                         _______ _______ _______ _____ _____    ______ ____
ROOT
ATOM      1  C   UNL     1       3.772   5.601  17.590  0.00  0.00    +0.000 C 
ENDROOT
BRANCH   1   8
ATOM      2  C   UNL     1       2.515   2.848  17.193  0.00  0.00    +0.000 C 
ATOM      3  C   UNL     1       2.262   3.678  18.425  0.00  0.00    +0.000 A 
ATOM      4  C   UNL     1       1.357   3.177  19.376  0.00  0.00    +0.000 A 
ATOM      5  C   UNL     1       1.050   3.897  20.529  0.00  0.00    +0.000 A 
ATOM      6  C   UNL     1       1.653   5.127  20.754  0.00  0.00    +0.000 A 
ATOM      7  C   UNL     1       2.551   5.645  19.819  0.00  0.00    +0.000 A 
ATOM      8  C   UNL     1       2.859   4.947  18.630  0.00  0.00    +0.000 A 
ENDBRANCH   1   8
BRANCH   1   9
ATOM      9  C   UNL     1       5.243   5.250  17.729  0.00  0.00    +0.000 A 
ATOM     10  C   UNL     1       6.141   5.577  18.734  0.00  0.00    +0.000 A 
ATOM     11  C   UNL     1       7.476   5.174  18.439  0.00  0.00    +0.000 A 
ATOM     12  C   UNL     1       7.562   4.529  17.227  0.00  0.00    +0.000 A 
ATOM     13  S   UNL     1       6.041   4.401  16.459  0.00  0.00    +0.000 S 
ENDBRANCH   1   9
BRANCH   1  14
ATOM     14  N   UNL     1       3.572   7.062  17.587  0.00  0.00    +0.000 NA
ATOM     15  H   UNL     1       2.778   7.278  18.187  0.00  0.00    +0.000 HD
ATOM     16  H   UNL     1       3.281   7.328  16.648  0.00  0.00    +0.000 HD
ENDBRANCH   1  14
TORSDOF 3
ENDMDL
