MODEL 1
REMARK VINA RESULT:      -7.2      0.000      0.000
REMARK  Name = 
REMARK  7 active torsions:
REMARK  status: ('A' for Active; 'I' for Inactive)
REMARK    1  A    between atoms: C_1  and  O_2
REMARK    2  A    between atoms: O_2  and  C_3
REMARK    3  A    between atoms: C_7  and  S_8
REMARK    4  A    between atoms: S_8  and  N_11
REMARK    5  A    between atoms: CA_15  and  C_16
REMARK    6  A    between atoms: C_16  and  O_17
REMARK    7  A    between atoms: C_22  and  C_23
REMARK                            x       y       z     vdW  Elec       q    Type
REMARK                         _______ _______ _______ _____ _____    ______ ____
ROOT
ATOM      1  N   UNL     1      -5.071  13.793  22.651  0.00  0.00    +0.000 NA
ATOM      2  C   UNL     1      -4.958  13.413  24.129  0.00  0.00    +0.000 C 
ATOM      3  C   UNL     1      -3.748  12.526  24.351  0.00  0.00    +0.000 C 
ATOM      4  C   UNL     1      -3.163  12.238  23.002  0.00  0.00    +0.000 C 
ATOM      5  CA  UNL     1      -1.691  12.596  22.932  0.00  0.00    +0.000 C 
ATOM      6  N   UNL     1      -1.209  12.030  21.631  0.00  0.00    +0.000 N 
ATOM      7  C   UNL     1      -2.207  12.174  20.490  0.00  0.00    +0.000 A 
ATOM      8  C   UNL     1      -1.767  11.837  19.221  0.00  0.00    +0.000 A 
ATOM      9  C   UNL     1      -0.873  12.693  18.605  0.00  0.00    +0.000 A 
ATOM     10  C   UNL     1      -0.597  13.911  19.218  0.00  0.00    +0.000 A 
ATOM     11  C   UNL     1      -1.690  14.338  20.195  0.00  0.00    +0.000 A 
ATOM     12  C   UNL     1      -2.766  13.420  20.657  0.00  0.00    +0.000 A 
ATOM     13  C   UNL     1      -3.885  13.054  21.871  0.00  0.00    +0.000 C 
ATOM     14  H   UNL     1      -0.939  11.045  21.652  0.00  0.00    +0.000 HD
ENDROOT
BRANCH  10  15
ATOM     15  C   UNL     1       0.810  14.502  18.778  0.00  0.00    +0.000 C 
ATOM     16  C   UNL     1       1.168  15.808  18.820  0.00  0.00    +0.000 C 
ATOM     17  C   UNL     1       2.547  16.363  18.443  0.00  0.00    +0.000 C 
ATOM     18  C   UNL     1       3.440  15.412  17.643  0.00  0.00    +0.000 C 
ATOM     19  C   UNL     1       3.435  14.053  18.299  0.00  0.00    +0.000 C 
ATOM     20  C   UNL     1       1.992  13.509  18.489  0.00  0.00    +0.000 C 
ENDBRANCH  10  15
BRANCH   1  21
ATOM     21  S   UNL     1      -6.724  13.111  22.170  0.00  0.00    +0.000 S 
ATOM     22  O   UNL     1      -7.540  14.268  21.799  0.00  0.00    +0.000 OA
ATOM     23  O   UNL     1      -7.128  12.187  23.219  0.00  0.00    +0.000 OA
BRANCH  21  28
ATOM     24  C   UNL     1      -5.763  11.952  18.297  0.00  0.00    +0.000 A 
ATOM     25  C   UNL     1      -6.260  10.645  18.261  0.00  0.00    +0.000 A 
ATOM     26  C   UNL     1      -6.897  10.101  19.373  0.00  0.00    +0.000 A 
ATOM     27  C   UNL     1      -7.023  10.846  20.561  0.00  0.00    +0.000 A 
ATOM     28  C   UNL     1      -6.500  12.140  20.627  0.00  0.00    +0.000 A 
ATOM     29  C   UNL     1      -5.875  12.702  19.487  0.00  0.00    +0.000 A 
BRANCH  24  31
ATOM     30  C   UNL     1      -4.341  11.374  16.475  0.00  0.00    +0.000 C 
ATOM     31  O   UNL     1      -5.157  12.335  17.133  0.00  0.00    +0.000 OA
ENDBRANCH  24  31
ENDBRANCH  21  28
ENDBRANCH   1  21
BRANCH   5  32
ATOM     32  C   UNL     1      -1.583  14.170  23.214  0.00  0.00    +0.000 C 
BRANCH  32  33
ATOM     33  O   UNL     1      -0.869  14.601  24.355  0.00  0.00    +0.000 OA
ATOM     34  H   UNL     1      -1.297  15.424  24.635  0.00  0.00    +0.000 HD
ENDBRANCH  32  33
ENDBRANCH   5  32
TORSDOF 6
ENDMDL
MODEL 2
REMARK VINA RESULT:      -7.0      4.099      5.448
REMARK  Name = 
REMARK  7 active torsions:
REMARK  status: ('A' for Active; 'I' for Inactive)
REMARK    1  A    between atoms: C_1  and  O_2
REMARK    2  A    between atoms: O_2  and  C_3
REMARK    3  A    between atoms: C_7  and  S_8
REMARK    4  A    between atoms: S_8  and  N_11
REMARK    5  A    between atoms: CA_15  and  C_16
REMARK    6  A    between atoms: C_16  and  O_17
REMARK    7  A    between atoms: C_22  and  C_23
REMARK                            x       y       z     vdW  Elec       q    Type
REMARK                         _______ _______ _______ _____ _____    ______ ____
ROOT
ATOM      1  N   UNL     1      -1.925  13.145  19.695  0.00  0.00    +0.000 NA
ATOM      2  C   UNL     1      -1.339  14.558  19.640  0.00  0.00    +0.000 C 
ATOM      3  C   UNL     1       0.053  14.572  20.241  0.00  0.00    +0.000 C 
ATOM      4  C   UNL     1       0.306  13.201  20.790  0.00  0.00    +0.000 C 
ATOM      5  CA  UNL     1       1.587  12.598  20.246  0.00  0.00    +0.000 C 
ATOM      6  N   UNL     1       1.819  11.364  21.062  0.00  0.00    +0.000 N 
ATOM      7  C   UNL     1       0.547  10.591  21.384  0.00  0.00    +0.000 A 
ATOM      8  C   UNL     1       0.698   9.350  21.981  0.00  0.00    +0.000 A 
ATOM      9  C   UNL     1       1.179   8.317  21.198  0.00  0.00    +0.000 A 
ATOM     10  C   UNL     1       1.327   8.538  19.832  0.00  0.00    +0.000 A 
ATOM     11  C   UNL     1       0.467   9.695  19.328  0.00  0.00    +0.000 A 
ATOM     12  C   UNL     1      -0.212  10.656  20.239  0.00  0.00    +0.000 A 
ATOM     13  C   UNL     1      -0.854  12.208  20.429  0.00  0.00    +0.000 C 
ATOM     14  H   UNL     1       2.299  11.507  21.952  0.00  0.00    +0.000 HD
ENDROOT
BRANCH  10  15
ATOM     15  C   UNL     1       2.396   7.564  19.176  0.00  0.00    +0.000 C 
ATOM     16  C   UNL     1       2.625   6.279  19.541  0.00  0.00    +0.000 C 
ATOM     17  C   UNL     1       3.623   5.330  18.866  0.00  0.00    +0.000 C 
ATOM     18  C   UNL     1       4.658   6.001  17.962  0.00  0.00    +0.000 C 
ATOM     19  C   UNL     1       3.962   6.980  17.048  0.00  0.00    +0.000 C 
ATOM     20  C   UNL     1       3.103   8.002  17.843  0.00  0.00    +0.000 C 
ENDBRANCH  10  15
BRANCH   1  21
ATOM     21  S   UNL     1      -3.449  13.365  20.723  0.00  0.00    +0.000 S 
ATOM     22  O   UNL     1      -3.831  14.769  20.575  0.00  0.00    +0.000 OA
ATOM     23  O   UNL     1      -3.177  12.772  22.024  0.00  0.00    +0.000 OA
BRANCH  21  28
ATOM     24  C   UNL     1      -6.832  11.036  20.089  0.00  0.00    +0.000 A 
ATOM     25  C   UNL     1      -6.786  10.841  18.704  0.00  0.00    +0.000 A 
ATOM     26  C   UNL     1      -5.749  11.381  17.950  0.00  0.00    +0.000 A 
ATOM     27  C   UNL     1      -4.747  12.158  18.563  0.00  0.00    +0.000 A 
ATOM     28  C   UNL     1      -4.796  12.393  19.939  0.00  0.00    +0.000 A 
ATOM     29  C   UNL     1      -5.839  11.821  20.710  0.00  0.00    +0.000 A 
BRANCH  24  31
ATOM     30  C   UNL     1      -7.866   9.047  20.895  0.00  0.00    +0.000 C 
ATOM     31  O   UNL     1      -7.916  10.452  20.685  0.00  0.00    +0.000 OA
ENDBRANCH  24  31
ENDBRANCH  21  28
ENDBRANCH   1  21
BRANCH   5  32
ATOM     32  C   UNL     1       1.409  12.491  18.656  0.00  0.00    +0.000 C 
BRANCH  32  33
ATOM     33  O   UNL     1       2.528  12.114  17.878  0.00  0.00    +0.000 OA
ATOM     34  H   UNL     1       2.935  12.945  17.590  0.00  0.00    +0.000 HD
ENDBRANCH  32  33
ENDBRANCH   5  32
TORSDOF 6
ENDMDL
MODEL 3
REMARK VINA RESULT:      -6.9      0.745      1.124
REMARK  Name = 
REMARK  7 active torsions:
REMARK  status: ('A' for Active; 'I' for Inactive)
REMARK    1  A    between atoms: C_1  and  O_2
REMARK    2  A    between atoms: O_2  and  C_3
REMARK    3  A    between atoms: C_7  and  S_8
REMARK    4  A    between atoms: S_8  and  N_11
REMARK    5  A    between atoms: CA_15  and  C_16
REMARK    6  A    between atoms: C_16  and  O_17
REMARK    7  A    between atoms: C_22  and  C_23
REMARK                            x       y       z     vdW  Elec       q    Type
REMARK                         _______ _______ _______ _____ _____    ______ ____
ROOT
ATOM      1  N   UNL     1      -5.016  13.845  22.481  0.00  0.00    +0.000 NA
ATOM      2  C   UNL     1      -4.958  13.453  23.960  0.00  0.00    +0.000 C 
ATOM      3  C   UNL     1      -3.742  12.586  24.225  0.00  0.00    +0.000 C 
ATOM      4  C   UNL     1      -3.096  12.323  22.899  0.00  0.00    +0.000 C 
ATOM      5  CA  UNL     1      -1.628  12.709  22.896  0.00  0.00    +0.000 C 
ATOM      6  N   UNL     1      -1.081  12.165  21.612  0.00  0.00    +0.000 N 
ATOM      7  C   UNL     1      -2.032  12.302  20.430  0.00  0.00    +0.000 A 
ATOM      8  C   UNL     1      -1.532  11.986  19.178  0.00  0.00    +0.000 A 
ATOM      9  C   UNL     1      -0.629  12.864  18.609  0.00  0.00    +0.000 A 
ATOM     10  C   UNL     1      -0.403  14.082  19.245  0.00  0.00    +0.000 A 
ATOM     11  C   UNL     1      -1.544  14.479  20.178  0.00  0.00    +0.000 A 
ATOM     12  C   UNL     1      -2.621  13.535  20.585  0.00  0.00    +0.000 A 
ATOM     13  C   UNL     1      -3.783  13.136  21.747  0.00  0.00    +0.000 C 
ATOM     14  H   UNL     1      -0.793  11.185  21.635  0.00  0.00    +0.000 HD
ENDROOT
BRANCH  10  15
ATOM     15  C   UNL     1       1.011  14.703  18.871  0.00  0.00    +0.000 C 
ATOM     16  C   UNL     1       1.270  16.018  18.677  0.00  0.00    +0.000 C 
ATOM     17  C   UNL     1       2.650  16.615  18.368  0.00  0.00    +0.000 C 
ATOM     18  C   UNL     1       3.710  15.611  17.910  0.00  0.00    +0.000 C 
ATOM     19  C   UNL     1       3.701  14.419  18.837  0.00  0.00    +0.000 C 
ATOM     20  C   UNL     1       2.286  13.789  18.954  0.00  0.00    +0.000 C 
ENDBRANCH  10  15
BRANCH   1  21
ATOM     21  S   UNL     1      -6.634  13.138  21.924  0.00  0.00    +0.000 S 
ATOM     22  O   UNL     1      -7.636  14.167  22.203  0.00  0.00    +0.000 OA
ATOM     23  O   UNL     1      -6.729  11.797  22.481  0.00  0.00    +0.000 OA
BRANCH  21  28
ATOM     24  C   UNL     1      -5.795  11.851  18.063  0.00  0.00    +0.000 A 
ATOM     25  C   UNL     1      -6.434  12.828  17.294  0.00  0.00    +0.000 A 
ATOM     26  C   UNL     1      -7.104  13.883  17.907  0.00  0.00    +0.000 A 
ATOM     27  C   UNL     1      -7.175  13.966  19.311  0.00  0.00    +0.000 A 
ATOM     28  C   UNL     1      -6.573  12.979  20.095  0.00  0.00    +0.000 A 
ATOM     29  C   UNL     1      -5.870  11.920  19.470  0.00  0.00    +0.000 A 
BRANCH  24  31
ATOM     30  C   UNL     1      -4.200  11.292  16.384  0.00  0.00    +0.000 C 
ATOM     31  O   UNL     1      -5.192  10.878  17.315  0.00  0.00    +0.000 OA
ENDBRANCH  24  31
ENDBRANCH  21  28
ENDBRANCH   1  21
BRANCH   5  32
ATOM     32  C   UNL     1      -1.563  14.282  23.197  0.00  0.00    +0.000 C 
BRANCH  32  33
ATOM     33  O   UNL     1      -0.746  14.729  24.261  0.00  0.00    +0.000 OA
ATOM     34  H   UNL     1      -0.853  14.072  24.964  0.00  0.00    +0.000 HD
ENDBRANCH  32  33
ENDBRANCH   5  32
TORSDOF 6
ENDMDL
MODEL 4
REMARK VINA RESULT:      -6.8      4.055      5.163
REMARK  Name = 
REMARK  7 active torsions:
REMARK  status: ('A' for Active; 'I' for Inactive)
REMARK    1  A    between atoms: C_1  and  O_2
REMARK    2  A    between atoms: O_2  and  C_3
REMARK    3  A    between atoms: C_7  and  S_8
REMARK    4  A    between atoms: S_8  and  N_11
REMARK    5  A    between atoms: CA_15  and  C_16
REMARK    6  A    between atoms: C_16  and  O_17
REMARK    7  A    between atoms: C_22  and  C_23
REMARK                            x       y       z     vdW  Elec       q    Type
REMARK                         _______ _______ _______ _____ _____    ______ ____
ROOT
ATOM      1  N   UNL     1      -2.143  13.046  20.340  0.00  0.00    +0.000 NA
ATOM      2  C   UNL     1      -1.619  14.480  20.231  0.00  0.00    +0.000 C 
ATOM      3  C   UNL     1      -0.154  14.534  20.621  0.00  0.00    +0.000 C 
ATOM      4  C   UNL     1       0.222  13.164  21.098  0.00  0.00    +0.000 C 
ATOM      5  CA  UNL     1       1.428  12.616  20.359  0.00  0.00    +0.000 C 
ATOM      6  N   UNL     1       1.818  11.378  21.106  0.00  0.00    +0.000 N 
ATOM      7  C   UNL     1       0.634  10.555  21.594  0.00  0.00    +0.000 A 
ATOM      8  C   UNL     1       0.911   9.310  22.136  0.00  0.00    +0.000 A 
ATOM      9  C   UNL     1       1.306   8.309  21.268  0.00  0.00    +0.000 A 
ATOM     10  C   UNL     1       1.244   8.557  19.901  0.00  0.00    +0.000 A 
ATOM     11  C   UNL     1       0.281   9.690  19.553  0.00  0.00    +0.000 A 
ATOM     12  C   UNL     1      -0.288  10.611  20.574  0.00  0.00    +0.000 A 
ATOM     13  C   UNL     1      -0.946  12.137  20.889  0.00  0.00    +0.000 C 
ATOM     14  H   UNL     1       2.419  11.524  21.919  0.00  0.00    +0.000 HD
ENDROOT
BRANCH  10  15
ATOM     15  C   UNL     1       2.236   7.632  19.074  0.00  0.00    +0.000 C 
ATOM     16  C   UNL     1       2.916   7.998  17.961  0.00  0.00    +0.000 C 
ATOM     17  C   UNL     1       3.912   7.115  17.199  0.00  0.00    +0.000 C 
ATOM     18  C   UNL     1       3.852   5.623  17.531  0.00  0.00    +0.000 C 
ATOM     19  C   UNL     1       3.828   5.445  19.030  0.00  0.00    +0.000 C 
ATOM     20  C   UNL     1       2.678   6.256  19.689  0.00  0.00    +0.000 C 
ENDBRANCH  10  15
BRANCH   1  21
ATOM     21  S   UNL     1      -3.506  13.194  21.585  0.00  0.00    +0.000 S 
ATOM     22  O   UNL     1      -3.613  14.621  21.891  0.00  0.00    +0.000 OA
ATOM     23  O   UNL     1      -3.252  12.201  22.617  0.00  0.00    +0.000 OA
BRANCH  21  28
ATOM     24  C   UNL     1      -6.433  12.480  18.723  0.00  0.00    +0.000 A 
ATOM     25  C   UNL     1      -7.527  12.125  19.520  0.00  0.00    +0.000 A 
ATOM     26  C   UNL     1      -7.415  12.111  20.906  0.00  0.00    +0.000 A 
ATOM     27  C   UNL     1      -6.190  12.421  21.530  0.00  0.00    +0.000 A 
ATOM     28  C   UNL     1      -5.077  12.741  20.749  0.00  0.00    +0.000 A 
ATOM     29  C   UNL     1      -5.199  12.781  19.338  0.00  0.00    +0.000 A 
BRANCH  24  31
ATOM     30  C   UNL     1      -7.243  13.607  16.788  0.00  0.00    +0.000 C 
ATOM     31  O   UNL     1      -6.699  12.436  17.382  0.00  0.00    +0.000 OA
ENDBRANCH  24  31
ENDBRANCH  21  28
ENDBRANCH   1  21
BRANCH   5  32
ATOM     32  C   UNL     1       1.022  12.529  18.810  0.00  0.00    +0.000 C 
BRANCH  32  33
ATOM     33  O   UNL     1       2.053  12.543  17.843  0.00  0.00    +0.000 OA
ATOM     34  H   UNL     1       1.881  13.321  17.292  0.00  0.00    +0.000 HD
ENDBRANCH  32  33
ENDBRANCH   5  32
TORSDOF 6
ENDMDL
MODEL 5
REMARK VINA RESULT:      -6.8      0.673      1.096
REMARK  Name = 
REMARK  7 active torsions:
REMARK  status: ('A' for Active; 'I' for Inactive)
REMARK    1  A    between atoms: C_1  and  O_2
REMARK    2  A    between atoms: O_2  and  C_3
REMARK    3  A    between atoms: C_7  and  S_8
REMARK    4  A    between atoms: S_8  and  N_11
REMARK    5  A    between atoms: CA_15  and  C_16
REMARK    6  A    between atoms: C_16  and  O_17
REMARK    7  A    between atoms: C_22  and  C_23
REMARK                            x       y       z     vdW  Elec       q    Type
REMARK                         _______ _______ _______ _____ _____    ______ ____
ROOT
ATOM      1  N   UNL     1      -5.262  14.398  22.522  0.00  0.00    +0.000 NA
ATOM      2  C   UNL     1      -5.345  13.881  23.961  0.00  0.00    +0.000 C 
ATOM      3  C   UNL     1      -4.321  12.784  24.182  0.00  0.00    +0.000 C 
ATOM      4  C   UNL     1      -3.675  12.514  22.858  0.00  0.00    +0.000 C 
ATOM      5  CA  UNL     1      -2.163  12.618  22.931  0.00  0.00    +0.000 C 
ATOM      6  N   UNL     1      -1.668  12.090  21.620  0.00  0.00    +0.000 N 
ATOM      7  C   UNL     1      -2.524  12.499  20.428  0.00  0.00    +0.000 A 
ATOM      8  C   UNL     1      -2.034  12.199  19.168  0.00  0.00    +0.000 A 
ATOM      9  C   UNL     1      -0.961  12.938  18.706  0.00  0.00    +0.000 A 
ATOM     10  C   UNL     1      -0.544  14.035  19.454  0.00  0.00    +0.000 A 
ATOM     11  C   UNL     1      -1.634  14.559  20.386  0.00  0.00    +0.000 A 
ATOM     12  C   UNL     1      -2.883  13.804  20.675  0.00  0.00    +0.000 A 
ATOM     13  C   UNL     1      -4.149  13.534  21.763  0.00  0.00    +0.000 C 
ATOM     14  H   UNL     1      -1.566  11.075  21.563  0.00  0.00    +0.000 HD
ENDROOT
BRANCH  10  15
ATOM     15  C   UNL     1       0.975  14.410  19.178  0.00  0.00    +0.000 C 
ATOM     16  C   UNL     1       1.906  13.590  18.634  0.00  0.00    +0.000 C 
ATOM     17  C   UNL     1       3.357  13.979  18.323  0.00  0.00    +0.000 C 
ATOM     18  C   UNL     1       3.853  15.258  19.000  0.00  0.00    +0.000 C 
ATOM     19  C   UNL     1       2.826  16.349  18.816  0.00  0.00    +0.000 C 
ATOM     20  C   UNL     1       1.422  15.910  19.313  0.00  0.00    +0.000 C 
ENDBRANCH  10  15
BRANCH   1  21
ATOM     21  S   UNL     1      -6.956  14.054  21.858  0.00  0.00    +0.000 S 
ATOM     22  O   UNL     1      -7.359  15.267  21.146  0.00  0.00    +0.000 OA
ATOM     23  O   UNL     1      -7.741  13.503  22.952  0.00  0.00    +0.000 OA
BRANCH  21  28
ATOM     24  C   UNL     1      -6.310  12.047  18.277  0.00  0.00    +0.000 A 
ATOM     25  C   UNL     1      -6.655  10.736  18.621  0.00  0.00    +0.000 A 
ATOM     26  C   UNL     1      -7.097  10.436  19.906  0.00  0.00    +0.000 A 
ATOM     27  C   UNL     1      -7.173  11.442  20.889  0.00  0.00    +0.000 A 
ATOM     28  C   UNL     1      -6.797  12.750  20.574  0.00  0.00    +0.000 A 
ATOM     29  C   UNL     1      -6.372  13.058  19.258  0.00  0.00    +0.000 A 
BRANCH  24  31
ATOM     30  C   UNL     1      -4.629  11.601  16.648  0.00  0.00    +0.000 C 
ATOM     31  O   UNL     1      -5.886  12.176  16.983  0.00  0.00    +0.000 OA
ENDBRANCH  24  31
ENDBRANCH  21  28
ENDBRANCH   1  21
BRANCH   5  32
ATOM     32  C   UNL     1      -1.824  14.121  23.374  0.00  0.00    +0.000 C 
BRANCH  32  33
ATOM     33  O   UNL     1      -0.486  14.440  23.700  0.00  0.00    +0.000 OA
ATOM     34  H   UNL     1      -0.458  15.406  23.767  0.00  0.00    +0.000 HD
ENDBRANCH  32  33
ENDBRANCH   5  32
TORSDOF 6
ENDMDL
MODEL 6
REMARK VINA RESULT:      -6.7      3.642      6.363
REMARK  Name = 
REMARK  7 active torsions:
REMARK  status: ('A' for Active; 'I' for Inactive)
REMARK    1  A    between atoms: C_1  and  O_2
REMARK    2  A    between atoms: O_2  and  C_3
REMARK    3  A    between atoms: C_7  and  S_8
REMARK    4  A    between atoms: S_8  and  N_11
REMARK    5  A    between atoms: CA_15  and  C_16
REMARK    6  A    between atoms: C_16  and  O_17
REMARK    7  A    between atoms: C_22  and  C_23
REMARK                            x       y       z     vdW  Elec       q    Type
REMARK                         _______ _______ _______ _____ _____    ______ ____
ROOT
ATOM      1  N   UNL     1      -1.316  16.012  21.188  0.00  0.00    +0.000 NA
ATOM      2  C   UNL     1      -2.163  16.137  22.457  0.00  0.00    +0.000 C 
ATOM      3  C   UNL     1      -3.016  14.897  22.641  0.00  0.00    +0.000 C 
ATOM      4  C   UNL     1      -2.808  14.039  21.431  0.00  0.00    +0.000 C 
ATOM      5  CA  UNL     1      -2.379  12.631  21.800  0.00  0.00    +0.000 C 
ATOM      6  N   UNL     1      -2.453  11.850  20.524  0.00  0.00    +0.000 N 
ATOM      7  C   UNL     1      -1.982  12.624  19.300  0.00  0.00    +0.000 A 
ATOM      8  C   UNL     1      -1.854  11.915  18.117  0.00  0.00    +0.000 A 
ATOM      9  C   UNL     1      -0.800  11.026  18.014  0.00  0.00    +0.000 A 
ATOM     10  C   UNL     1       0.154  11.014  19.027  0.00  0.00    +0.000 A 
ATOM     11  C   UNL     1       0.178  12.314  19.828  0.00  0.00    +0.000 A 
ATOM     12  C   UNL     1      -0.892  13.344  19.729  0.00  0.00    +0.000 A 
ATOM     13  C   UNL     1      -1.695  14.622  20.491  0.00  0.00    +0.000 C 
ATOM     14  H   UNL     1      -3.374  11.476  20.288  0.00  0.00    +0.000 HD
ENDROOT
BRANCH  10  15
ATOM     15  C   UNL     1       0.923   9.626  19.114  0.00  0.00    +0.000 C 
ATOM     16  C   UNL     1       1.742   9.115  18.164  0.00  0.00    +0.000 C 
ATOM     17  C   UNL     1       2.521   7.799  18.279  0.00  0.00    +0.000 C 
ATOM     18  C   UNL     1       2.057   6.857  19.392  0.00  0.00    +0.000 C 
ATOM     19  C   UNL     1       1.895   7.640  20.672  0.00  0.00    +0.000 C 
ATOM     20  C   UNL     1       0.955   8.863  20.486  0.00  0.00    +0.000 C 
ENDBRANCH  10  15
BRANCH   1  21
ATOM     21  S   UNL     1      -1.873  17.455  20.169  0.00  0.00    +0.000 S 
ATOM     22  O   UNL     1      -1.771  18.623  21.044  0.00  0.00    +0.000 OA
ATOM     23  O   UNL     1      -3.126  17.072  19.535  0.00  0.00    +0.000 OA
BRANCH  21  28
ATOM     24  C   UNL     1       1.670  17.606  18.004  0.00  0.00    +0.000 A 
ATOM     25  C   UNL     1       1.250  18.209  16.815  0.00  0.00    +0.000 A 
ATOM     26  C   UNL     1      -0.078  18.591  16.648  0.00  0.00    +0.000 A 
ATOM     27  C   UNL     1      -1.026  18.347  17.661  0.00  0.00    +0.000 A 
ATOM     28  C   UNL     1      -0.631  17.713  18.841  0.00  0.00    +0.000 A 
ATOM     29  C   UNL     1       0.726  17.348  19.020  0.00  0.00    +0.000 A 
BRANCH  24  31
ATOM     30  C   UNL     1       3.371  16.048  17.406  0.00  0.00    +0.000 C 
ATOM     31  O   UNL     1       2.999  17.281  18.009  0.00  0.00    +0.000 OA
ENDBRANCH  24  31
ENDBRANCH  21  28
ENDBRANCH   1  21
BRANCH   5  32
ATOM     32  C   UNL     1      -0.987  12.761  22.584  0.00  0.00    +0.000 C 
BRANCH  32  33
ATOM     33  O   UNL     1      -0.383  11.584  23.082  0.00  0.00    +0.000 OA
ATOM     34  H   UNL     1      -0.652  11.528  24.012  0.00  0.00    +0.000 HD
ENDBRANCH  32  33
ENDBRANCH   5  32
TORSDOF 6
ENDMDL
MODEL 7
REMARK VINA RESULT:      -6.6      3.881      5.170
REMARK  Name = 
REMARK  7 active torsions:
REMARK  status: ('A' for Active; 'I' for Inactive)
REMARK    1  A    between atoms: C_1  and  O_2
REMARK    2  A    between atoms: O_2  and  C_3
REMARK    3  A    between atoms: C_7  and  S_8
REMARK    4  A    between atoms: S_8  and  N_11
REMARK    5  A    between atoms: CA_15  and  C_16
REMARK    6  A    between atoms: C_16  and  O_17
REMARK    7  A    between atoms: C_22  and  C_23
REMARK                            x       y       z     vdW  Elec       q    Type
REMARK                         _______ _______ _______ _____ _____    ______ ____
ROOT
ATOM      1  N   UNL     1      -2.326  13.443  20.253  0.00  0.00    +0.000 NA
ATOM      2  C   UNL     1      -1.762  14.858  20.112  0.00  0.00    +0.000 C 
ATOM      3  C   UNL     1      -0.303  14.884  20.527  0.00  0.00    +0.000 C 
ATOM      4  C   UNL     1       0.027  13.519  21.049  0.00  0.00    +0.000 C 
ATOM      5  CA  UNL     1       1.231  12.918  20.347  0.00  0.00    +0.000 C 
ATOM      6  N   UNL     1       1.574  11.691  21.135  0.00  0.00    +0.000 N 
ATOM      7  C   UNL     1       0.359  10.914  21.625  0.00  0.00    +0.000 A 
ATOM      8  C   UNL     1       0.594   9.679  22.206  0.00  0.00    +0.000 A 
ATOM      9  C   UNL     1       0.976   8.643  21.374  0.00  0.00    +0.000 A 
ATOM     10  C   UNL     1       0.944   8.854  19.999  0.00  0.00    +0.000 A 
ATOM     11  C   UNL     1       0.019  10.002  19.603  0.00  0.00    +0.000 A 
ATOM     12  C   UNL     1      -0.542  10.967  20.588  0.00  0.00    +0.000 A 
ATOM     13  C   UNL     1      -1.164  12.517  20.848  0.00  0.00    +0.000 C 
ATOM     14  H   UNL     1       2.165  11.845  21.954  0.00  0.00    +0.000 HD
ENDROOT
BRANCH  10  15
ATOM     15  C   UNL     1       1.925   7.880  19.217  0.00  0.00    +0.000 C 
ATOM     16  C   UNL     1       2.607   8.185  18.087  0.00  0.00    +0.000 C 
ATOM     17  C   UNL     1       3.593   7.255  17.368  0.00  0.00    +0.000 C 
ATOM     18  C   UNL     1       3.517   5.781  17.770  0.00  0.00    +0.000 C 
ATOM     19  C   UNL     1       3.492   5.676  19.276  0.00  0.00    +0.000 C 
ATOM     20  C   UNL     1       2.352   6.529  19.896  0.00  0.00    +0.000 C 
ENDBRANCH  10  15
BRANCH   1  21
ATOM     21  S   UNL     1      -3.706  13.662  21.469  0.00  0.00    +0.000 S 
ATOM     22  O   UNL     1      -3.829  15.106  21.675  0.00  0.00    +0.000 OA
ATOM     23  O   UNL     1      -3.457  12.743  22.568  0.00  0.00    +0.000 OA
BRANCH  21  28
ATOM     24  C   UNL     1      -7.120  11.564  20.369  0.00  0.00    +0.000 A 
ATOM     25  C   UNL     1      -7.593  12.332  19.300  0.00  0.00    +0.000 A 
ATOM     26  C   UNL     1      -6.900  13.465  18.885  0.00  0.00    +0.000 A 
ATOM     27  C   UNL     1      -5.730  13.875  19.554  0.00  0.00    +0.000 A 
ATOM     28  C   UNL     1      -5.263  13.140  20.646  0.00  0.00    +0.000 A 
ATOM     29  C   UNL     1      -5.955  11.972  21.052  0.00  0.00    +0.000 A 
BRANCH  24  31
ATOM     30  C   UNL     1      -7.445   9.206  20.277  0.00  0.00    +0.000 C 
ATOM     31  O   UNL     1      -7.916  10.491  20.662  0.00  0.00    +0.000 OA
ENDBRANCH  24  31
ENDBRANCH  21  28
ENDBRANCH   1  21
BRANCH   5  32
ATOM     32  C   UNL     1       0.849  12.798  18.795  0.00  0.00    +0.000 C 
BRANCH  32  33
ATOM     33  O   UNL     1       1.742  13.333  17.839  0.00  0.00    +0.000 OA
ATOM     34  H   UNL     1       2.410  12.647  17.695  0.00  0.00    +0.000 HD
ENDBRANCH  32  33
ENDBRANCH   5  32
TORSDOF 6
ENDMDL
MODEL 8
REMARK VINA RESULT:      -6.6      3.926      5.021
REMARK  Name = 
REMARK  7 active torsions:
REMARK  status: ('A' for Active; 'I' for Inactive)
REMARK    1  A    between atoms: C_1  and  O_2
REMARK    2  A    between atoms: O_2  and  C_3
REMARK    3  A    between atoms: C_7  and  S_8
REMARK    4  A    between atoms: S_8  and  N_11
REMARK    5  A    between atoms: CA_15  and  C_16
REMARK    6  A    between atoms: C_16  and  O_17
REMARK    7  A    between atoms: C_22  and  C_23
REMARK                            x       y       z     vdW  Elec       q    Type
REMARK                         _______ _______ _______ _____ _____    ______ ____
ROOT
ATOM      1  N   UNL     1      -2.318  13.026  20.585  0.00  0.00    +0.000 NA
ATOM      2  C   UNL     1      -1.827  14.471  20.468  0.00  0.00    +0.000 C 
ATOM      3  C   UNL     1      -0.361  14.559  20.845  0.00  0.00    +0.000 C 
ATOM      4  C   UNL     1       0.050  13.199  21.322  0.00  0.00    +0.000 C 
ATOM      5  CA  UNL     1       1.262  12.677  20.574  0.00  0.00    +0.000 C 
ATOM      6  N   UNL     1       1.686  11.449  21.320  0.00  0.00    +0.000 N 
ATOM      7  C   UNL     1       0.524  10.601  21.821  0.00  0.00    +0.000 A 
ATOM      8  C   UNL     1       0.834   9.364  22.363  0.00  0.00    +0.000 A 
ATOM      9  C   UNL     1       1.244   8.370  21.494  0.00  0.00    +0.000 A 
ATOM     10  C   UNL     1       1.165   8.614  20.127  0.00  0.00    +0.000 A 
ATOM     11  C   UNL     1       0.174   9.724  19.784  0.00  0.00    +0.000 A 
ATOM     12  C   UNL     1      -0.407  10.634  20.809  0.00  0.00    +0.000 A 
ATOM     13  C   UNL     1      -1.096  12.145  21.126  0.00  0.00    +0.000 C 
ATOM     14  H   UNL     1       2.290  11.611  22.128  0.00  0.00    +0.000 HD
ENDROOT
BRANCH  10  15
ATOM     15  C   UNL     1       2.171   7.709  19.294  0.00  0.00    +0.000 C 
ATOM     16  C   UNL     1       2.437   6.401  19.526  0.00  0.00    +0.000 C 
ATOM     17  C   UNL     1       3.370   5.523  18.684  0.00  0.00    +0.000 C 
ATOM     18  C   UNL     1       4.314   6.278  17.747  0.00  0.00    +0.000 C 
ATOM     19  C   UNL     1       3.532   7.324  16.988  0.00  0.00    +0.000 C 
ATOM     20  C   UNL     1       2.749   8.265  17.943  0.00  0.00    +0.000 C 
ENDBRANCH  10  15
BRANCH   1  21
ATOM     21  S   UNL     1      -3.673  13.147  21.841  0.00  0.00    +0.000 S 
ATOM     22  O   UNL     1      -3.835  14.574  22.117  0.00  0.00    +0.000 OA
ATOM     23  O   UNL     1      -3.370  12.187  22.891  0.00  0.00    +0.000 OA
BRANCH  21  28
ATOM     24  C   UNL     1      -6.516  12.008  19.032  0.00  0.00    +0.000 A 
ATOM     25  C   UNL     1      -7.663  11.886  19.823  0.00  0.00    +0.000 A 
ATOM     26  C   UNL     1      -7.611  12.154  21.188  0.00  0.00    +0.000 A 
ATOM     27  C   UNL     1      -6.396  12.521  21.799  0.00  0.00    +0.000 A 
ATOM     28  C   UNL     1      -5.233  12.613  21.031  0.00  0.00    +0.000 A 
ATOM     29  C   UNL     1      -5.293  12.365  19.637  0.00  0.00    +0.000 A 
BRANCH  24  31
ATOM     30  C   UNL     1      -5.583  11.590  16.880  0.00  0.00    +0.000 C 
ATOM     31  O   UNL     1      -6.728  11.701  17.716  0.00  0.00    +0.000 OA
ENDBRANCH  24  31
ENDBRANCH  21  28
ENDBRANCH   1  21
BRANCH   5  32
ATOM     32  C   UNL     1       0.845  12.576  19.029  0.00  0.00    +0.000 C 
BRANCH  32  33
ATOM     33  O   UNL     1       1.851  12.294  18.078  0.00  0.00    +0.000 OA
ATOM     34  H   UNL     1       2.654  12.121  18.593  0.00  0.00    +0.000 HD
ENDBRANCH  32  33
ENDBRANCH   5  32
TORSDOF 6
ENDMDL
MODEL 9
REMARK VINA RESULT:      -6.6      3.829      6.187
REMARK  Name = 
REMARK  7 active torsions:
REMARK  status: ('A' for Active; 'I' for Inactive)
REMARK    1  A    between atoms: C_1  and  O_2
REMARK    2  A    between atoms: O_2  and  C_3
REMARK    3  A    between atoms: C_7  and  S_8
REMARK    4  A    between atoms: S_8  and  N_11
REMARK    5  A    between atoms: CA_15  and  C_16
REMARK    6  A    between atoms: C_16  and  O_17
REMARK    7  A    between atoms: C_22  and  C_23
REMARK                            x       y       z     vdW  Elec       q    Type
REMARK                         _______ _______ _______ _____ _____    ______ ____
ROOT
ATOM      1  N   UNL     1      -3.128  12.695  21.355  0.00  0.00    +0.000 NA
ATOM      2  C   UNL     1      -2.907  14.179  21.051  0.00  0.00    +0.000 C 
ATOM      3  C   UNL     1      -1.428  14.510  21.106  0.00  0.00    +0.000 C 
ATOM      4  C   UNL     1      -0.719  13.273  21.566  0.00  0.00    +0.000 C 
ATOM      5  CA  UNL     1       0.388  12.864  20.613  0.00  0.00    +0.000 C 
ATOM      6  N   UNL     1       1.142  11.783  21.325  0.00  0.00    +0.000 N 
ATOM      7  C   UNL     1       0.253  10.826  22.108  0.00  0.00    +0.000 A 
ATOM      8  C   UNL     1       0.857   9.702  22.646  0.00  0.00    +0.000 A 
ATOM      9  C   UNL     1       1.240   8.701  21.772  0.00  0.00    +0.000 A 
ATOM     10  C   UNL     1       0.852   8.805  20.439  0.00  0.00    +0.000 A 
ATOM     11  C   UNL     1      -0.351   9.726  20.247  0.00  0.00    +0.000 A 
ATOM     12  C   UNL     1      -0.854  10.633  21.315  0.00  0.00    +0.000 A 
ATOM     13  C   UNL     1      -1.699  12.052  21.679  0.00  0.00    +0.000 C 
ATOM     14  H   UNL     1       1.861  12.103  21.977  0.00  0.00    +0.000 HD
ENDROOT
BRANCH  10  15
ATOM     15  C   UNL     1       1.804   7.982  19.469  0.00  0.00    +0.000 C 
ATOM     16  C   UNL     1       2.364   8.449  18.327  0.00  0.00    +0.000 C 
ATOM     17  C   UNL     1       3.324   7.664  17.425  0.00  0.00    +0.000 C 
ATOM     18  C   UNL     1       3.357   6.153  17.660  0.00  0.00    +0.000 C 
ATOM     19  C   UNL     1       3.476   5.881  19.140  0.00  0.00    +0.000 C 
ATOM     20  C   UNL     1       2.358   6.593  19.950  0.00  0.00    +0.000 C 
ENDBRANCH  10  15
BRANCH   1  21
ATOM     21  S   UNL     1      -4.208  12.734  22.859  0.00  0.00    +0.000 S 
ATOM     22  O   UNL     1      -3.584  11.825  23.821  0.00  0.00    +0.000 OA
ATOM     23  O   UNL     1      -5.579  12.555  22.405  0.00  0.00    +0.000 OA
BRANCH  21  28
ATOM     24  C   UNL     1      -2.860  16.098  24.892  0.00  0.00    +0.000 A 
ATOM     25  C   UNL     1      -3.961  16.954  24.783  0.00  0.00    +0.000 A 
ATOM     26  C   UNL     1      -5.115  16.540  24.125  0.00  0.00    +0.000 A 
ATOM     27  C   UNL     1      -5.182  15.266  23.529  0.00  0.00    +0.000 A 
ATOM     28  C   UNL     1      -4.079  14.411  23.596  0.00  0.00    +0.000 A 
ATOM     29  C   UNL     1      -2.914  14.824  24.289  0.00  0.00    +0.000 A 
BRANCH  24  31
ATOM     30  C   UNL     1      -1.068  15.809  26.435  0.00  0.00    +0.000 C 
ATOM     31  O   UNL     1      -1.802  16.654  25.557  0.00  0.00    +0.000 OA
ENDBRANCH  24  31
ENDBRANCH  21  28
ENDBRANCH   1  21
BRANCH   5  32
ATOM     32  C   UNL     1      -0.307  12.564  19.199  0.00  0.00    +0.000 C 
BRANCH  32  33
ATOM     33  O   UNL     1       0.518  12.443  18.058  0.00  0.00    +0.000 OA
ATOM     34  H   UNL     1      -0.070  12.160  17.341  0.00  0.00    +0.000 HD
ENDBRANCH  32  33
ENDBRANCH   5  32
TORSDOF 6
ENDMDL
