MODEL 1
REMARK VINA RESULT:      -6.4      0.000      0.000
REMARK  Name = 
REMARK  7 active torsions:
REMARK  status: ('A' for Active; 'I' for Inactive)
REMARK    1  A    between atoms: N_1  and  C_2
REMARK    2  A    between atoms: N_10  and  C_11
REMARK    3  A    between atoms: C_11  and  C_12
REMARK    4  A    between atoms: C_12  and  N_13
REMARK    5  A    between atoms: N_13  and  C_14
REMARK    6  A    between atoms: C_14  and  C_15
REMARK    7  A    between atoms: C_15  and  O_17
REMARK                            x       y       z     vdW  Elec       q    Type
REMARK                         _______ _______ _______ _____ _____    ______ ____
ROOT
ATOM      1  C   UNL     1       6.996   5.991  16.659  0.00  0.00    +0.000 A 
ATOM      2  N   UNL     1       7.227   5.486  15.426  0.00  0.00    +0.000 NA
ATOM      3  C   UNL     1       6.560   4.371  15.055  0.00  0.00    +0.000 A 
ATOM      4  N   UNL     1       5.647   3.666  15.754  0.00  0.00    +0.000 NA
ATOM      5  C   UNL     1       5.444   4.217  16.963  0.00  0.00    +0.000 A 
ATOM      6  C   UNL     1       6.052   5.349  17.480  0.00  0.00    +0.000 A 
ATOM      7  N   UNL     1       5.588   5.622  18.752  0.00  0.00    +0.000 NA
ATOM      8  C   UNL     1       4.734   4.654  19.009  0.00  0.00    +0.000 A 
ATOM      9  N   UNL     1       4.609   3.787  17.957  0.00  0.00    +0.000 N 
ENDROOT
BRANCH   1  10
ATOM     10  N   UNL     1       7.695   7.126  17.048  0.00  0.00    +0.000 N 
ATOM     11  H   UNL     1       7.143   7.729  17.644  0.00  0.00    +0.000 HD
ATOM     12  H   UNL     1       8.652   6.933  17.325  0.00  0.00    +0.000 HD
ENDBRANCH   1  10
BRANCH   9  13
ATOM     13  C   UNL     1       3.802   2.588  17.935  0.00  0.00    +0.000 C 
BRANCH  13  14
ATOM     14  C   UNL     1       2.297   2.839  18.113  0.00  0.00    +0.000 C 
BRANCH  14  15
ATOM     15  N   UNL     1       1.750   2.244  19.346  0.00  0.00    +0.000 NA
ATOM     16  H   UNL     1       2.531   1.845  19.881  0.00  0.00    +0.000 HD
BRANCH  15  17
ATOM     17  C   UNL     1       1.127   3.313  20.174  0.00  0.00    +0.000 C 
BRANCH  17  18
ATOM     18  C   UNL     1       2.044   3.650  21.345  0.00  0.00    +0.000 C 
ATOM     19  O   UNL     1       2.494   2.829  22.130  0.00  0.00    +0.000 OA
BRANCH  18  20
ATOM     20  O   UNL     1       2.337   4.973  21.397  0.00  0.00    +0.000 OA
ATOM     21  H   UNL     1       3.083   5.137  20.772  0.00  0.00    +0.000 HD
ENDBRANCH  18  20
ENDBRANCH  17  18
ENDBRANCH  15  17
ENDBRANCH  14  15
ENDBRANCH  13  14
ENDBRANCH   9  13
TORSDOF 7
ENDMDL
MODEL 2
REMARK VINA RESULT:      -6.3      1.086      1.162
REMARK  Name = 
REMARK  7 active torsions:
REMARK  status: ('A' for Active; 'I' for Inactive)
REMARK    1  A    between atoms: N_1  and  C_2
REMARK    2  A    between atoms: N_10  and  C_11
REMARK    3  A    between atoms: C_11  and  C_12
REMARK    4  A    between atoms: C_12  and  N_13
REMARK    5  A    between atoms: N_13  and  C_14
REMARK    6  A    between atoms: C_14  and  C_15
REMARK    7  A    between atoms: C_15  and  O_17
REMARK                            x       y       z     vdW  Elec       q    Type
REMARK                         _______ _______ _______ _____ _____    ______ ____
ROOT
ATOM      1  C   UNL     1       6.628   6.324  16.711  0.00  0.00    +0.000 A 
ATOM      2  N   UNL     1       7.325   5.523  15.873  0.00  0.00    +0.000 NA
ATOM      3  C   UNL     1       6.777   4.341  15.514  0.00  0.00    +0.000 A 
ATOM      4  N   UNL     1       5.582   3.826  15.868  0.00  0.00    +0.000 NA
ATOM      5  C   UNL     1       4.926   4.666  16.688  0.00  0.00    +0.000 A 
ATOM      6  C   UNL     1       5.359   5.901  17.142  0.00  0.00    +0.000 A 
ATOM      7  N   UNL     1       4.413   6.484  17.961  0.00  0.00    +0.000 NA
ATOM      8  C   UNL     1       3.437   5.604  18.024  0.00  0.00    +0.000 A 
ATOM      9  N   UNL     1       3.699   4.494  17.266  0.00  0.00    +0.000 N 
ENDROOT
BRANCH   1  10
ATOM     10  N   UNL     1       7.199   7.531  17.095  0.00  0.00    +0.000 N 
ATOM     11  H   UNL     1       8.143   7.634  16.748  0.00  0.00    +0.000 HD
ATOM     12  H   UNL     1       6.569   8.320  17.000  0.00  0.00    +0.000 HD
ENDBRANCH   1  10
BRANCH   9  13
ATOM     13  C   UNL     1       2.864   3.318  17.163  0.00  0.00    +0.000 C 
BRANCH  13  14
ATOM     14  C   UNL     1       3.179   2.230  18.200  0.00  0.00    +0.000 C 
BRANCH  14  15
ATOM     15  N   UNL     1       1.973   1.607  18.775  0.00  0.00    +0.000 NA
ATOM     16  H   UNL     1       2.229   1.189  19.677  0.00  0.00    +0.000 HD
BRANCH  15  17
ATOM     17  C   UNL     1       0.951   2.659  19.032  0.00  0.00    +0.000 C 
BRANCH  17  18
ATOM     18  C   UNL     1       1.119   3.196  20.449  0.00  0.00    +0.000 C 
ATOM     19  O   UNL     1       1.355   2.505  21.428  0.00  0.00    +0.000 OA
BRANCH  18  20
ATOM     20  O   UNL     1       1.013   4.548  20.496  0.00  0.00    +0.000 OA
ATOM     21  H   UNL     1       0.131   4.790  20.124  0.00  0.00    +0.000 HD
ENDBRANCH  18  20
ENDBRANCH  17  18
ENDBRANCH  15  17
ENDBRANCH  14  15
ENDBRANCH  13  14
ENDBRANCH   9  13
TORSDOF 7
ENDMDL
MODEL 3
REMARK VINA RESULT:      -6.3      0.736      1.059
REMARK  Name = 
REMARK  7 active torsions:
REMARK  status: ('A' for Active; 'I' for Inactive)
REMARK    1  A    between atoms: N_1  and  C_2
REMARK    2  A    between atoms: N_10  and  C_11
REMARK    3  A    between atoms: C_11  and  C_12
REMARK    4  A    between atoms: C_12  and  N_13
REMARK    5  A    between atoms: N_13  and  C_14
REMARK    6  A    between atoms: C_14  and  C_15
REMARK    7  A    between atoms: C_15  and  O_17
REMARK                            x       y       z     vdW  Elec       q    Type
REMARK                         _______ _______ _______ _____ _____    ______ ____
ROOT
ATOM      1  C   UNL     1       7.043   6.030  16.723  0.00  0.00    +0.000 A 
ATOM      2  N   UNL     1       7.267   5.503  15.497  0.00  0.00    +0.000 NA
ATOM      3  C   UNL     1       6.577   4.398  15.140  0.00  0.00    +0.000 A 
ATOM      4  N   UNL     1       5.648   3.721  15.846  0.00  0.00    +0.000 NA
ATOM      5  C   UNL     1       5.454   4.293  17.048  0.00  0.00    +0.000 A 
ATOM      6  C   UNL     1       6.085   5.419  17.550  0.00  0.00    +0.000 A 
ATOM      7  N   UNL     1       5.623   5.719  18.817  0.00  0.00    +0.000 NA
ATOM      8  C   UNL     1       4.749   4.773  19.086  0.00  0.00    +0.000 A 
ATOM      9  N   UNL     1       4.608   3.894  18.045  0.00  0.00    +0.000 N 
ENDROOT
BRANCH   1  10
ATOM     10  N   UNL     1       7.765   7.156  17.098  0.00  0.00    +0.000 N 
ATOM     11  H   UNL     1       8.764   7.007  17.036  0.00  0.00    +0.000 HD
ATOM     12  H   UNL     1       7.390   8.018  16.718  0.00  0.00    +0.000 HD
ENDBRANCH   1  10
BRANCH   9  13
ATOM     13  C   UNL     1       3.776   2.712  18.037  0.00  0.00    +0.000 C 
BRANCH  13  14
ATOM     14  C   UNL     1       2.381   2.928  17.432  0.00  0.00    +0.000 C 
BRANCH  14  15
ATOM     15  N   UNL     1       1.286   2.556  18.346  0.00  0.00    +0.000 NA
ATOM     16  H   UNL     1       0.809   1.736  17.953  0.00  0.00    +0.000 HD
BRANCH  15  17
ATOM     17  C   UNL     1       1.856   2.166  19.664  0.00  0.00    +0.000 C 
BRANCH  17  18
ATOM     18  C   UNL     1       1.344   3.117  20.741  0.00  0.00    +0.000 C 
ATOM     19  O   UNL     1       0.800   4.188  20.518  0.00  0.00    +0.000 OA
BRANCH  18  20
ATOM     20  O   UNL     1       1.529   2.618  21.989  0.00  0.00    +0.000 OA
ATOM     21  H   UNL     1       2.250   3.142  22.415  0.00  0.00    +0.000 HD
ENDBRANCH  18  20
ENDBRANCH  17  18
ENDBRANCH  15  17
ENDBRANCH  14  15
ENDBRANCH  13  14
ENDBRANCH   9  13
TORSDOF 7
ENDMDL
MODEL 4
REMARK VINA RESULT:      -6.2      2.655      5.500
REMARK  Name = 
REMARK  7 active torsions:
REMARK  status: ('A' for Active; 'I' for Inactive)
REMARK    1  A    between atoms: N_1  and  C_2
REMARK    2  A    between atoms: N_10  and  C_11
REMARK    3  A    between atoms: C_11  and  C_12
REMARK    4  A    between atoms: C_12  and  N_13
REMARK    5  A    between atoms: N_13  and  C_14
REMARK    6  A    between atoms: C_14  and  C_15
REMARK    7  A    between atoms: C_15  and  O_17
REMARK                            x       y       z     vdW  Elec       q    Type
REMARK                         _______ _______ _______ _____ _____    ______ ____
ROOT
ATOM      1  C   UNL     1       1.683   3.473  19.480  0.00  0.00    +0.000 A 
ATOM      2  N   UNL     1       1.993   2.168  19.314  0.00  0.00    +0.000 NA
ATOM      3  C   UNL     1       3.011   1.852  18.483  0.00  0.00    +0.000 A 
ATOM      4  N   UNL     1       3.807   2.680  17.777  0.00  0.00    +0.000 NA
ATOM      5  C   UNL     1       3.467   3.964  17.988  0.00  0.00    +0.000 A 
ATOM      6  C   UNL     1       2.452   4.437  18.804  0.00  0.00    +0.000 A 
ATOM      7  N   UNL     1       2.403   5.816  18.781  0.00  0.00    +0.000 NA
ATOM      8  C   UNL     1       3.354   6.170  17.943  0.00  0.00    +0.000 A 
ATOM      9  N   UNL     1       4.027   5.086  17.445  0.00  0.00    +0.000 N 
ENDROOT
BRANCH   1  10
ATOM     10  N   UNL     1       0.625   3.798  20.320  0.00  0.00    +0.000 N 
ATOM     11  H   UNL     1       0.300   3.000  20.850  0.00  0.00    +0.000 HD
ATOM     12  H   UNL     1       0.759   4.673  20.814  0.00  0.00    +0.000 HD
ENDBRANCH   1  10
BRANCH   9  13
ATOM     13  C   UNL     1       5.085   5.121  16.460  0.00  0.00    +0.000 C 
BRANCH  13  14
ATOM     14  C   UNL     1       5.880   6.434  16.437  0.00  0.00    +0.000 C 
BRANCH  14  15
ATOM     15  N   UNL     1       7.312   6.254  16.739  0.00  0.00    +0.000 NA
ATOM     16  H   UNL     1       7.670   7.135  17.125  0.00  0.00    +0.000 HD
BRANCH  15  17
ATOM     17  C   UNL     1       7.466   5.201  17.781  0.00  0.00    +0.000 C 
BRANCH  17  18
ATOM     18  C   UNL     1       7.818   5.853  19.114  0.00  0.00    +0.000 C 
ATOM     19  O   UNL     1       7.614   5.348  20.207  0.00  0.00    +0.000 OA
BRANCH  18  20
ATOM     20  O   UNL     1       8.425   7.055  18.947  0.00  0.00    +0.000 OA
ATOM     21  H   UNL     1       7.971   7.517  18.203  0.00  0.00    +0.000 HD
ENDBRANCH  18  20
ENDBRANCH  17  18
ENDBRANCH  15  17
ENDBRANCH  14  15
ENDBRANCH  13  14
ENDBRANCH   9  13
TORSDOF 7
ENDMDL
MODEL 5
REMARK VINA RESULT:      -6.2      1.385      1.618
REMARK  Name = 
REMARK  7 active torsions:
REMARK  status: ('A' for Active; 'I' for Inactive)
REMARK    1  A    between atoms: N_1  and  C_2
REMARK    2  A    between atoms: N_10  and  C_11
REMARK    3  A    between atoms: C_11  and  C_12
REMARK    4  A    between atoms: C_12  and  N_13
REMARK    5  A    between atoms: N_13  and  C_14
REMARK    6  A    between atoms: C_14  and  C_15
REMARK    7  A    between atoms: C_15  and  O_17
REMARK                            x       y       z     vdW  Elec       q    Type
REMARK                         _______ _______ _______ _____ _____    ______ ____
ROOT
ATOM      1  C   UNL     1       7.234   5.279  18.391  0.00  0.00    +0.000 A 
ATOM      2  N   UNL     1       7.748   4.880  17.206  0.00  0.00    +0.000 NA
ATOM      3  C   UNL     1       6.913   4.322  16.301  0.00  0.00    +0.000 A 
ATOM      4  N   UNL     1       5.585   4.109  16.403  0.00  0.00    +0.000 NA
ATOM      5  C   UNL     1       5.124   4.535  17.592  0.00  0.00    +0.000 A 
ATOM      6  C   UNL     1       5.855   5.120  18.612  0.00  0.00    +0.000 A 
ATOM      7  N   UNL     1       5.042   5.437  19.682  0.00  0.00    +0.000 NA
ATOM      8  C   UNL     1       3.845   5.024  19.326  0.00  0.00    +0.000 A 
ATOM      9  N   UNL     1       3.844   4.479  18.069  0.00  0.00    +0.000 N 
ENDROOT
BRANCH   1  10
ATOM     10  N   UNL     1       8.095   5.836  19.328  0.00  0.00    +0.000 N 
ATOM     11  H   UNL     1       8.264   6.818  19.156  0.00  0.00    +0.000 HD
ATOM     12  H   UNL     1       7.891   5.550  20.280  0.00  0.00    +0.000 HD
ENDBRANCH   1  10
BRANCH   9  13
ATOM     13  C   UNL     1       2.709   3.880  17.404  0.00  0.00    +0.000 C 
BRANCH  13  14
ATOM     14  C   UNL     1       2.557   2.372  17.654  0.00  0.00    +0.000 C 
BRANCH  14  15
ATOM     15  N   UNL     1       1.423   2.039  18.533  0.00  0.00    +0.000 NA
ATOM     16  H   UNL     1       1.030   1.143  18.222  0.00  0.00    +0.000 HD
BRANCH  15  17
ATOM     17  C   UNL     1       1.915   1.864  19.927  0.00  0.00    +0.000 C 
BRANCH  17  18
ATOM     18  C   UNL     1       1.303   2.937  20.822  0.00  0.00    +0.000 C 
ATOM     19  O   UNL     1       0.680   3.906  20.414  0.00  0.00    +0.000 OA
BRANCH  18  20
ATOM     20  O   UNL     1       1.498   2.672  22.138  0.00  0.00    +0.000 OA
ATOM     21  H   UNL     1       2.176   3.306  22.471  0.00  0.00    +0.000 HD
ENDBRANCH  18  20
ENDBRANCH  17  18
ENDBRANCH  15  17
ENDBRANCH  14  15
ENDBRANCH  13  14
ENDBRANCH   9  13
TORSDOF 7
ENDMDL
MODEL 6
REMARK VINA RESULT:      -6.2      2.695      5.625
REMARK  Name = 
REMARK  7 active torsions:
REMARK  status: ('A' for Active; 'I' for Inactive)
REMARK    1  A    between atoms: N_1  and  C_2
REMARK    2  A    between atoms: N_10  and  C_11
REMARK    3  A    between atoms: C_11  and  C_12
REMARK    4  A    between atoms: C_12  and  N_13
REMARK    5  A    between atoms: N_13  and  C_14
REMARK    6  A    between atoms: C_14  and  C_15
REMARK    7  A    between atoms: C_15  and  O_17
REMARK                            x       y       z     vdW  Elec       q    Type
REMARK                         _______ _______ _______ _____ _____    ______ ____
ROOT
ATOM      1  C   UNL     1       2.653   2.858  21.062  0.00  0.00    +0.000 A 
ATOM      2  N   UNL     1       3.749   2.078  21.202  0.00  0.00    +0.000 NA
ATOM      3  C   UNL     1       4.765   2.236  20.325  0.00  0.00    +0.000 A 
ATOM      4  N   UNL     1       4.860   3.104  19.297  0.00  0.00    +0.000 NA
ATOM      5  C   UNL     1       3.754   3.863  19.211  0.00  0.00    +0.000 A 
ATOM      6  C   UNL     1       2.638   3.813  20.030  0.00  0.00    +0.000 A 
ATOM      7  N   UNL     1       1.701   4.752  19.646  0.00  0.00    +0.000 NA
ATOM      8  C   UNL     1       2.230   5.340  18.593  0.00  0.00    +0.000 A 
ATOM      9  N   UNL     1       3.471   4.841  18.297  0.00  0.00    +0.000 N 
ENDROOT
BRANCH   1  10
ATOM     10  N   UNL     1       1.601   2.683  21.952  0.00  0.00    +0.000 N 
ATOM     11  H   UNL     1       1.627   1.777  22.400  0.00  0.00    +0.000 HD
ATOM     12  H   UNL     1       1.428   3.496  22.533  0.00  0.00    +0.000 HD
ENDBRANCH   1  10
BRANCH   9  13
ATOM     13  C   UNL     1       4.295   5.224  17.174  0.00  0.00    +0.000 C 
BRANCH  13  14
ATOM     14  C   UNL     1       5.111   6.505  17.400  0.00  0.00    +0.000 C 
BRANCH  14  15
ATOM     15  N   UNL     1       6.446   6.462  16.777  0.00  0.00    +0.000 NA
ATOM     16  H   UNL     1       6.515   7.243  16.114  0.00  0.00    +0.000 HD
BRANCH  15  17
ATOM     17  C   UNL     1       7.485   6.660  17.825  0.00  0.00    +0.000 C 
BRANCH  17  18
ATOM     18  C   UNL     1       7.503   5.453  18.758  0.00  0.00    +0.000 C 
ATOM     19  O   UNL     1       7.394   5.516  19.973  0.00  0.00    +0.000 OA
BRANCH  18  20
ATOM     20  O   UNL     1       7.616   4.286  18.077  0.00  0.00    +0.000 OA
ATOM     21  H   UNL     1       6.723   4.058  17.725  0.00  0.00    +0.000 HD
ENDBRANCH  18  20
ENDBRANCH  17  18
ENDBRANCH  15  17
ENDBRANCH  14  15
ENDBRANCH  13  14
ENDBRANCH   9  13
TORSDOF 7
ENDMDL
MODEL 7
REMARK VINA RESULT:      -6.2      2.027      2.385
REMARK  Name = 
REMARK  7 active torsions:
REMARK  status: ('A' for Active; 'I' for Inactive)
REMARK    1  A    between atoms: N_1  and  C_2
REMARK    2  A    between atoms: N_10  and  C_11
REMARK    3  A    between atoms: C_11  and  C_12
REMARK    4  A    between atoms: C_12  and  N_13
REMARK    5  A    between atoms: N_13  and  C_14
REMARK    6  A    between atoms: C_14  and  C_15
REMARK    7  A    between atoms: C_15  and  O_17
REMARK                            x       y       z     vdW  Elec       q    Type
REMARK                         _______ _______ _______ _____ _____    ______ ____
ROOT
ATOM      1  C   UNL     1       7.338   4.562  17.313  0.00  0.00    +0.000 A 
ATOM      2  N   UNL     1       7.306   4.633  15.963  0.00  0.00    +0.000 NA
ATOM      3  C   UNL     1       6.147   4.993  15.368  0.00  0.00    +0.000 A 
ATOM      4  N   UNL     1       4.973   5.321  15.945  0.00  0.00    +0.000 NA
ATOM      5  C   UNL     1       5.063   5.248  17.284  0.00  0.00    +0.000 A 
ATOM      6  C   UNL     1       6.175   4.893  18.030  0.00  0.00    +0.000 A 
ATOM      7  N   UNL     1       5.897   4.939  19.382  0.00  0.00    +0.000 NA
ATOM      8  C   UNL     1       4.630   5.288  19.451  0.00  0.00    +0.000 A 
ATOM      9  N   UNL     1       4.087   5.491  18.210  0.00  0.00    +0.000 N 
ENDROOT
BRANCH   1  10
ATOM     10  N   UNL     1       8.524   4.174  17.924  0.00  0.00    +0.000 N 
ATOM     11  H   UNL     1       8.436   4.125  18.931  0.00  0.00    +0.000 HD
ATOM     12  H   UNL     1       8.986   3.405  17.451  0.00  0.00    +0.000 HD
ENDBRANCH   1  10
BRANCH   9  13
ATOM     13  C   UNL     1       2.708   5.824  17.930  0.00  0.00    +0.000 C 
BRANCH  13  14
ATOM     14  C   UNL     1       1.722   4.670  18.165  0.00  0.00    +0.000 C 
BRANCH  14  15
ATOM     15  N   UNL     1       1.984   3.498  17.310  0.00  0.00    +0.000 NA
ATOM     16  H   UNL     1       2.935   3.584  16.934  0.00  0.00    +0.000 HD
BRANCH  15  17
ATOM     17  C   UNL     1       1.931   2.263  18.140  0.00  0.00    +0.000 C 
BRANCH  17  18
ATOM     18  C   UNL     1       3.303   2.000  18.750  0.00  0.00    +0.000 C 
ATOM     19  O   UNL     1       3.573   2.139  19.934  0.00  0.00    +0.000 OA
BRANCH  18  20
ATOM     20  O   UNL     1       4.193   1.555  17.828  0.00  0.00    +0.000 OA
ATOM     21  H   UNL     1       4.024   2.047  16.990  0.00  0.00    +0.000 HD
ENDBRANCH  18  20
ENDBRANCH  17  18
ENDBRANCH  15  17
ENDBRANCH  14  15
ENDBRANCH  13  14
ENDBRANCH   9  13
TORSDOF 7
ENDMDL
MODEL 8
REMARK VINA RESULT:      -6.2      2.587      5.555
REMARK  Name = 
REMARK  7 active torsions:
REMARK  status: ('A' for Active; 'I' for Inactive)
REMARK    1  A    between atoms: N_1  and  C_2
REMARK    2  A    between atoms: N_10  and  C_11
REMARK    3  A    between atoms: C_11  and  C_12
REMARK    4  A    between atoms: C_12  and  N_13
REMARK    5  A    between atoms: N_13  and  C_14
REMARK    6  A    between atoms: C_14  and  C_15
REMARK    7  A    between atoms: C_15  and  O_17
REMARK                            x       y       z     vdW  Elec       q    Type
REMARK                         _______ _______ _______ _____ _____    ______ ____
ROOT
ATOM      1  C   UNL     1       1.522   3.323  19.499  0.00  0.00    +0.000 A 
ATOM      2  N   UNL     1       1.611   2.150  18.834  0.00  0.00    +0.000 NA
ATOM      3  C   UNL     1       2.467   2.068  17.791  0.00  0.00    +0.000 A 
ATOM      4  N   UNL     1       3.292   3.017  17.304  0.00  0.00    +0.000 NA
ATOM      5  C   UNL     1       3.175   4.156  18.009  0.00  0.00    +0.000 A 
ATOM      6  C   UNL     1       2.344   4.389  19.092  0.00  0.00    +0.000 A 
ATOM      7  N   UNL     1       2.501   5.676  19.567  0.00  0.00    +0.000 NA
ATOM      8  C   UNL     1       3.391   6.221  18.766  0.00  0.00    +0.000 A 
ATOM      9  N   UNL     1       3.831   5.340  17.814  0.00  0.00    +0.000 N 
ENDROOT
BRANCH   1  10
ATOM     10  N   UNL     1       0.629   3.414  20.559  0.00  0.00    +0.000 N 
ATOM     11  H   UNL     1       0.441   4.373  20.820  0.00  0.00    +0.000 HD
ATOM     12  H   UNL     1      -0.160   2.782  20.474  0.00  0.00    +0.000 HD
ENDBRANCH   1  10
BRANCH   9  13
ATOM     13  C   UNL     1       4.761   5.635  16.748  0.00  0.00    +0.000 C 
BRANCH  13  14
ATOM     14  C   UNL     1       5.545   6.942  16.940  0.00  0.00    +0.000 C 
BRANCH  14  15
ATOM     15  N   UNL     1       6.999   6.781  16.762  0.00  0.00    +0.000 NA
ATOM     16  H   UNL     1       7.344   7.580  16.217  0.00  0.00    +0.000 HD
BRANCH  15  17
ATOM     17  C   UNL     1       7.664   6.812  18.093  0.00  0.00    +0.000 C 
BRANCH  17  18
ATOM     18  C   UNL     1       7.631   5.418  18.711  0.00  0.00    +0.000 C 
ATOM     19  O   UNL     1       7.991   4.400  18.142  0.00  0.00    +0.000 OA
BRANCH  18  20
ATOM     20  O   UNL     1       7.186   5.442  19.993  0.00  0.00    +0.000 OA
ATOM     21  H   UNL     1       7.743   6.088  20.489  0.00  0.00    +0.000 HD
ENDBRANCH  18  20
ENDBRANCH  17  18
ENDBRANCH  15  17
ENDBRANCH  14  15
ENDBRANCH  13  14
ENDBRANCH   9  13
TORSDOF 7
ENDMDL
MODEL 9
REMARK VINA RESULT:      -6.1      2.094      2.647
REMARK  Name = 
REMARK  7 active torsions:
REMARK  status: ('A' for Active; 'I' for Inactive)
REMARK    1  A    between atoms: N_1  and  C_2
REMARK    2  A    between atoms: N_10  and  C_11
REMARK    3  A    between atoms: C_11  and  C_12
REMARK    4  A    between atoms: C_12  and  N_13
REMARK    5  A    between atoms: N_13  and  C_14
REMARK    6  A    between atoms: C_14  and  C_15
REMARK    7  A    between atoms: C_15  and  O_17
REMARK                            x       y       z     vdW  Elec       q    Type
REMARK                         _______ _______ _______ _____ _____    ______ ____
ROOT
ATOM      1  C   UNL     1       6.672   5.016  16.979  0.00  0.00    +0.000 A 
ATOM      2  N   UNL     1       6.380   5.919  16.015  0.00  0.00    +0.000 NA
ATOM      3  C   UNL     1       5.221   6.608  16.113  0.00  0.00    +0.000 A 
ATOM      4  N   UNL     1       4.280   6.537  17.076  0.00  0.00    +0.000 NA
ATOM      5  C   UNL     1       4.625   5.637  18.014  0.00  0.00    +0.000 A 
ATOM      6  C   UNL     1       5.771   4.860  18.046  0.00  0.00    +0.000 A 
ATOM      7  N   UNL     1       5.789   4.056  19.169  0.00  0.00    +0.000 NA
ATOM      8  C   UNL     1       4.660   4.323  19.790  0.00  0.00    +0.000 A 
ATOM      9  N   UNL     1       3.927   5.276  19.133  0.00  0.00    +0.000 N 
ENDROOT
BRANCH   1  10
ATOM     10  N   UNL     1       7.854   4.295  16.869  0.00  0.00    +0.000 N 
ATOM     11  H   UNL     1       8.574   4.646  17.486  0.00  0.00    +0.000 HD
ATOM     12  H   UNL     1       7.709   3.291  16.832  0.00  0.00    +0.000 HD
ENDBRANCH   1  10
BRANCH   9  13
ATOM     13  C   UNL     1       2.617   5.752  19.514  0.00  0.00    +0.000 C 
BRANCH  13  14
ATOM     14  C   UNL     1       2.003   5.014  20.712  0.00  0.00    +0.000 C 
BRANCH  14  15
ATOM     15  N   UNL     1       0.904   4.107  20.336  0.00  0.00    +0.000 NA
ATOM     16  H   UNL     1       0.625   4.325  19.372  0.00  0.00    +0.000 HD
BRANCH  15  17
ATOM     17  C   UNL     1       1.396   2.702  20.362  0.00  0.00    +0.000 C 
BRANCH  17  18
ATOM     18  C   UNL     1       1.509   2.176  18.935  0.00  0.00    +0.000 C 
ATOM     19  O   UNL     1       2.563   1.972  18.353  0.00  0.00    +0.000 OA
BRANCH  18  20
ATOM     20  O   UNL     1       0.293   1.921  18.390  0.00  0.00    +0.000 OA
ATOM     21  H   UNL     1      -0.245   1.448  19.069  0.00  0.00    +0.000 HD
ENDBRANCH  18  20
ENDBRANCH  17  18
ENDBRANCH  15  17
ENDBRANCH  14  15
ENDBRANCH  13  14
ENDBRANCH   9  13
TORSDOF 7
ENDMDL
