MODEL 1
REMARK VINA RESULT:     -10.2      0.000      0.000
REMARK  Name = 
REMARK  7 active torsions:
REMARK  status: ('A' for Active; 'I' for Inactive)
REMARK    1  A    between atoms: C_1  and  C_2
REMARK    2  A    between atoms: N_10  and  C_11
REMARK    3  A    between atoms: C_11  and  C_12
REMARK    4  A    between atoms: C_15  and  C_16
REMARK    5  A    between atoms: C_16  and  C_18
REMARK    6  A    between atoms: N_23  and  C_24
REMARK    7  A    between atoms: N_23  and  C_25
REMARK                            x       y       z     vdW  Elec       q    Type
REMARK                         _______ _______ _______ _____ _____    ______ ____
ROOT
ATOM      1  C   UNL     1       2.443   6.846  19.441  0.00  0.00    +0.000 A 
ATOM      2  C   UNL     1       2.599   7.374  18.150  0.00  0.00    +0.000 A 
ATOM      3  C   UNL     1       2.134   8.659  17.854  0.00  0.00    +0.000 A 
ATOM      4  C   UNL     1       1.533   9.430  18.854  0.00  0.00    +0.000 A 
ATOM      5  C   UNL     1       1.231   8.846  20.087  0.00  0.00    +0.000 A 
ATOM      6  C   UNL     1       1.676   7.558  20.373  0.00  0.00    +0.000 A 
ENDROOT
BRANCH   4   7
ATOM      7  C   UNL     1       1.279  10.874  18.600  0.00  0.00    +0.000 C 
ATOM      8  O   UNL     1       2.195  11.566  18.178  0.00  0.00    +0.000 OA
BRANCH   7   9
ATOM      9  C   UNL     1      -0.046  11.420  18.923  0.00  0.00    +0.000 A 
ATOM     10  C   UNL     1      -0.325  12.435  19.831  0.00  0.00    +0.000 A 
ATOM     11  N   UNL     1      -1.695  12.643  19.898  0.00  0.00    +0.000 N 
ATOM     12  C   UNL     1      -2.404  13.466  20.806  0.00  0.00    +0.000 C 
ATOM     13  O   UNL     1      -3.378  12.983  21.372  0.00  0.00    +0.000 OA
ATOM     14  N   UNL     1      -1.950  14.774  20.970  0.00  0.00    +0.000 N 
ATOM     15  C   UNL     1      -1.038  15.506  20.096  0.00  0.00    +0.000 C 
ATOM     16  C   UNL     1      -2.718  15.617  21.879  0.00  0.00    +0.000 C 
ATOM     17  C   UNL     1      -2.301  11.756  19.010  0.00  0.00    +0.000 A 
ATOM     18  C   UNL     1      -3.668  11.572  18.709  0.00  0.00    +0.000 A 
ATOM     19  C   UNL     1      -4.023  10.629  17.747  0.00  0.00    +0.000 A 
ATOM     20  C   UNL     1      -3.050   9.879  17.101  0.00  0.00    +0.000 A 
ATOM     21  C   UNL     1      -1.701  10.061  17.412  0.00  0.00    +0.000 A 
ATOM     22  F   UNL     1      -0.798   9.292  16.790  0.00  0.00    +0.000 F 
ATOM     23  C   UNL     1      -1.302  11.019  18.369  0.00  0.00    +0.000 A 
ENDBRANCH   7   9
ENDBRANCH   4   7
BRANCH   1  24
ATOM     24  C   UNL     1       3.179   5.595  19.868  0.00  0.00    +0.000 C 
BRANCH  24  34
ATOM     25  C   UNL     1       1.723   3.834  17.801  0.00  0.00    +0.000 C 
ATOM     26  C   UNL     1       3.163   4.194  17.758  0.00  0.00    +0.000 A 
ATOM     27  N   UNL     1       3.990   3.848  16.792  0.00  0.00    +0.000 NA
ATOM     28  C   UNL     1       5.223   4.328  17.157  0.00  0.00    +0.000 A 
ATOM     29  C   UNL     1       6.449   4.249  16.490  0.00  0.00    +0.000 A 
ATOM     30  N   UNL     1       7.570   4.787  17.039  0.00  0.00    +0.000 NA
ATOM     31  C   UNL     1       7.475   5.365  18.256  0.00  0.00    +0.000 A 
ATOM     32  C   UNL     1       6.306   5.480  19.000  0.00  0.00    +0.000 A 
ATOM     33  C   UNL     1       5.157   4.965  18.394  0.00  0.00    +0.000 A 
ATOM     34  N   UNL     1       3.815   4.938  18.724  0.00  0.00    +0.000 N 
ENDBRANCH  24  34
ENDBRANCH   1  24
TORSDOF 4
ENDMDL
MODEL 2
REMARK VINA RESULT:      -9.9      1.030      1.081
REMARK  Name = 
REMARK  7 active torsions:
REMARK  status: ('A' for Active; 'I' for Inactive)
REMARK    1  A    between atoms: C_1  and  C_2
REMARK    2  A    between atoms: N_10  and  C_11
REMARK    3  A    between atoms: C_11  and  C_12
REMARK    4  A    between atoms: C_15  and  C_16
REMARK    5  A    between atoms: C_16  and  C_18
REMARK    6  A    between atoms: N_23  and  C_24
REMARK    7  A    between atoms: N_23  and  C_25
REMARK                            x       y       z     vdW  Elec       q    Type
REMARK                         _______ _______ _______ _____ _____    ______ ____
ROOT
ATOM      1  C   UNL     1       2.442   6.656  19.509  0.00  0.00    +0.000 A 
ATOM      2  C   UNL     1       2.578   7.222  18.232  0.00  0.00    +0.000 A 
ATOM      3  C   UNL     1       2.126   8.522  17.986  0.00  0.00    +0.000 A 
ATOM      4  C   UNL     1       1.559   9.270  19.023  0.00  0.00    +0.000 A 
ATOM      5  C   UNL     1       1.276   8.653  20.244  0.00  0.00    +0.000 A 
ATOM      6  C   UNL     1       1.707   7.350  20.480  0.00  0.00    +0.000 A 
ENDROOT
BRANCH   4   7
ATOM      7  C   UNL     1       1.323  10.726  18.821  0.00  0.00    +0.000 C 
ATOM      8  O   UNL     1       2.113  11.359  18.134  0.00  0.00    +0.000 OA
BRANCH   7   9
ATOM      9  C   UNL     1       0.182  11.352  19.501  0.00  0.00    +0.000 A 
ATOM     10  C   UNL     1       0.206  12.009  20.726  0.00  0.00    +0.000 A 
ATOM     11  N   UNL     1      -1.074  12.424  21.062  0.00  0.00    +0.000 N 
ATOM     12  C   UNL     1      -1.510  12.984  22.288  0.00  0.00    +0.000 C 
ATOM     13  O   UNL     1      -2.521  12.516  22.800  0.00  0.00    +0.000 OA
ATOM     14  N   UNL     1      -0.765  14.042  22.807  0.00  0.00    +0.000 N 
ATOM     15  C   UNL     1       0.216  14.859  22.099  0.00  0.00    +0.000 C 
ATOM     16  C   UNL     1      -1.254  14.630  24.048  0.00  0.00    +0.000 C 
ATOM     17  C   UNL     1      -1.928  12.038  20.032  0.00  0.00    +0.000 A 
ATOM     18  C   UNL     1      -3.322  12.224  19.895  0.00  0.00    +0.000 A 
ATOM     19  C   UNL     1      -3.950  11.766  18.740  0.00  0.00    +0.000 A 
ATOM     20  C   UNL     1      -3.221  11.132  17.743  0.00  0.00    +0.000 A 
ATOM     21  C   UNL     1      -1.846  10.944  17.890  0.00  0.00    +0.000 A 
ATOM     22  F   UNL     1      -1.187  10.297  16.921  0.00  0.00    +0.000 F 
ATOM     23  C   UNL     1      -1.172  11.409  19.040  0.00  0.00    +0.000 A 
ENDBRANCH   7   9
ENDBRANCH   4   7
BRANCH   1  24
ATOM     24  C   UNL     1       3.167   5.381  19.881  0.00  0.00    +0.000 C 
BRANCH  24  34
ATOM     25  C   UNL     1       1.801   3.668  17.714  0.00  0.00    +0.000 C 
ATOM     26  C   UNL     1       3.229   4.077  17.710  0.00  0.00    +0.000 A 
ATOM     27  N   UNL     1       4.081   3.802  16.743  0.00  0.00    +0.000 NA
ATOM     28  C   UNL     1       5.291   4.305  17.149  0.00  0.00    +0.000 A 
ATOM     29  C   UNL     1       6.529   4.297  16.499  0.00  0.00    +0.000 A 
ATOM     30  N   UNL     1       7.623   4.846  17.088  0.00  0.00    +0.000 NA
ATOM     31  C   UNL     1       7.491   5.365  18.329  0.00  0.00    +0.000 A 
ATOM     32  C   UNL     1       6.309   5.408  19.058  0.00  0.00    +0.000 A 
ATOM     33  C   UNL     1       5.186   4.884  18.411  0.00  0.00    +0.000 A 
ATOM     34  N   UNL     1       3.841   4.797  18.719  0.00  0.00    +0.000 N 
ENDBRANCH  24  34
ENDBRANCH   1  24
TORSDOF 4
ENDMDL
MODEL 3
REMARK VINA RESULT:      -9.7      1.758      2.953
REMARK  Name = 
REMARK  7 active torsions:
REMARK  status: ('A' for Active; 'I' for Inactive)
REMARK    1  A    between atoms: C_1  and  C_2
REMARK    2  A    between atoms: N_10  and  C_11
REMARK    3  A    between atoms: C_11  and  C_12
REMARK    4  A    between atoms: C_15  and  C_16
REMARK    5  A    between atoms: C_16  and  C_18
REMARK    6  A    between atoms: N_23  and  C_24
REMARK    7  A    between atoms: N_23  and  C_25
REMARK                            x       y       z     vdW  Elec       q    Type
REMARK                         _______ _______ _______ _____ _____    ______ ____
ROOT
ATOM      1  C   UNL     1       2.594   6.862  19.572  0.00  0.00    +0.000 A 
ATOM      2  C   UNL     1       1.881   7.584  20.542  0.00  0.00    +0.000 A 
ATOM      3  C   UNL     1       1.146   8.716  20.177  0.00  0.00    +0.000 A 
ATOM      4  C   UNL     1       1.102   9.117  18.838  0.00  0.00    +0.000 A 
ATOM      5  C   UNL     1       1.939   8.499  17.905  0.00  0.00    +0.000 A 
ATOM      6  C   UNL     1       2.687   7.385  18.275  0.00  0.00    +0.000 A 
ENDROOT
BRANCH   4   7
ATOM      7  C   UNL     1       0.120  10.157  18.425  0.00  0.00    +0.000 C 
ATOM      8  O   UNL     1      -0.631   9.917  17.490  0.00  0.00    +0.000 OA
BRANCH   7   9
ATOM      9  C   UNL     1       0.133  11.449  19.122  0.00  0.00    +0.000 A 
ATOM     10  C   UNL     1      -0.824  11.921  20.012  0.00  0.00    +0.000 A 
ATOM     11  N   UNL     1      -0.491  13.202  20.428  0.00  0.00    +0.000 N 
ATOM     12  C   UNL     1      -1.273  14.093  21.202  0.00  0.00    +0.000 C 
ATOM     13  O   UNL     1      -1.387  15.246  20.801  0.00  0.00    +0.000 OA
ATOM     14  N   UNL     1      -1.836  13.594  22.376  0.00  0.00    +0.000 N 
ATOM     15  C   UNL     1      -1.466  12.369  23.078  0.00  0.00    +0.000 C 
ATOM     16  C   UNL     1      -2.603  14.539  23.179  0.00  0.00    +0.000 C 
ATOM     17  C   UNL     1       0.705  13.551  19.804  0.00  0.00    +0.000 A 
ATOM     18  C   UNL     1       1.458  14.742  19.895  0.00  0.00    +0.000 A 
ATOM     19  C   UNL     1       2.653  14.837  19.186  0.00  0.00    +0.000 A 
ATOM     20  C   UNL     1       3.093  13.782  18.399  0.00  0.00    +0.000 A 
ATOM     21  C   UNL     1       2.338  12.611  18.307  0.00  0.00    +0.000 A 
ATOM     22  F   UNL     1       2.781  11.631  17.509  0.00  0.00    +0.000 F 
ATOM     23  C   UNL     1       1.130  12.472  19.024  0.00  0.00    +0.000 A 
ENDBRANCH   7   9
ENDBRANCH   4   7
BRANCH   1  24
ATOM     24  C   UNL     1       3.154   5.489  19.874  0.00  0.00    +0.000 C 
BRANCH  24  34
ATOM     25  C   UNL     1       1.732   3.912  17.641  0.00  0.00    +0.000 C 
ATOM     26  C   UNL     1       3.177   4.257  17.661  0.00  0.00    +0.000 A 
ATOM     27  N   UNL     1       4.024   3.976  16.691  0.00  0.00    +0.000 NA
ATOM     28  C   UNL     1       5.252   4.411  17.122  0.00  0.00    +0.000 A 
ATOM     29  C   UNL     1       6.494   4.370  16.481  0.00  0.00    +0.000 A 
ATOM     30  N   UNL     1       7.606   4.850  17.096  0.00  0.00    +0.000 NA
ATOM     31  C   UNL     1       7.487   5.333  18.352  0.00  0.00    +0.000 A 
ATOM     32  C   UNL     1       6.301   5.404  19.074  0.00  0.00    +0.000 A 
ATOM     33  C   UNL     1       5.162   4.952  18.402  0.00  0.00    +0.000 A 
ATOM     34  N   UNL     1       3.812   4.915  18.698  0.00  0.00    +0.000 N 
ENDBRANCH  24  34
ENDBRANCH   1  24
TORSDOF 4
ENDMDL
MODEL 4
REMARK VINA RESULT:      -9.3      1.759      2.834
REMARK  Name = 
REMARK  7 active torsions:
REMARK  status: ('A' for Active; 'I' for Inactive)
REMARK    1  A    between atoms: C_1  and  C_2
REMARK    2  A    between atoms: N_10  and  C_11
REMARK    3  A    between atoms: C_11  and  C_12
REMARK    4  A    between atoms: C_15  and  C_16
REMARK    5  A    between atoms: C_16  and  C_18
REMARK    6  A    between atoms: N_23  and  C_24
REMARK    7  A    between atoms: N_23  and  C_25
REMARK                            x       y       z     vdW  Elec       q    Type
REMARK                         _______ _______ _______ _____ _____    ______ ____
ROOT
ATOM      1  C   UNL     1       1.908   7.995  19.594  0.00  0.00    +0.000 A 
ATOM      2  C   UNL     1       1.830   8.511  18.291  0.00  0.00    +0.000 A 
ATOM      3  C   UNL     1       1.096   9.673  18.036  0.00  0.00    +0.000 A 
ATOM      4  C   UNL     1       0.457  10.338  19.088  0.00  0.00    +0.000 A 
ATOM      5  C   UNL     1       0.398   9.738  20.349  0.00  0.00    +0.000 A 
ATOM      6  C   UNL     1       1.112   8.569  20.595  0.00  0.00    +0.000 A 
ENDROOT
BRANCH   4   7
ATOM      7  C   UNL     1      -0.098  11.699  18.853  0.00  0.00    +0.000 C 
ATOM      8  O   UNL     1       0.637  12.562  18.393  0.00  0.00    +0.000 OA
BRANCH   7   9
ATOM      9  C   UNL     1      -1.490  11.964  19.238  0.00  0.00    +0.000 A 
ATOM     10  C   UNL     1      -1.927  12.536  20.427  0.00  0.00    +0.000 A 
ATOM     11  N   UNL     1      -3.314  12.581  20.446  0.00  0.00    +0.000 N 
ATOM     12  C   UNL     1      -4.154  12.939  21.529  0.00  0.00    +0.000 C 
ATOM     13  O   UNL     1      -5.092  12.194  21.792  0.00  0.00    +0.000 OA
ATOM     14  N   UNL     1      -3.862  14.126  22.199  0.00  0.00    +0.000 N 
ATOM     15  C   UNL     1      -3.001  15.210  21.735  0.00  0.00    +0.000 C 
ATOM     16  C   UNL     1      -4.763  14.496  23.283  0.00  0.00    +0.000 C 
ATOM     17  C   UNL     1      -3.771  12.040  19.247  0.00  0.00    +0.000 A 
ATOM     18  C   UNL     1      -5.092  11.860  18.782  0.00  0.00    +0.000 A 
ATOM     19  C   UNL     1      -5.291  11.317  17.516  0.00  0.00    +0.000 A 
ATOM     20  C   UNL     1      -4.208  10.952  16.726  0.00  0.00    +0.000 A 
ATOM     21  C   UNL     1      -2.905  11.125  17.197  0.00  0.00    +0.000 A 
ATOM     22  F   UNL     1      -1.892  10.729  16.417  0.00  0.00    +0.000 F 
ATOM     23  C   UNL     1      -2.665  11.688  18.469  0.00  0.00    +0.000 A 
ENDBRANCH   7   9
ENDBRANCH   4   7
BRANCH   1  24
ATOM     24  C   UNL     1       2.912   6.922  19.952  0.00  0.00    +0.000 C 
BRANCH  24  34
ATOM     25  C   UNL     1       4.477   6.787  17.301  0.00  0.00    +0.000 C 
ATOM     26  C   UNL     1       3.603   5.712  17.837  0.00  0.00    +0.000 A 
ATOM     27  N   UNL     1       3.432   4.537  17.266  0.00  0.00    +0.000 NA
ATOM     28  C   UNL     1       2.518   3.868  18.042  0.00  0.00    +0.000 A 
ATOM     29  C   UNL     1       1.989   2.582  17.896  0.00  0.00    +0.000 A 
ATOM     30  N   UNL     1       1.073   2.107  18.780  0.00  0.00    +0.000 NA
ATOM     31  C   UNL     1       0.660   2.921  19.776  0.00  0.00    +0.000 A 
ATOM     32  C   UNL     1       1.117   4.216  19.994  0.00  0.00    +0.000 A 
ATOM     33  C   UNL     1       2.097   4.664  19.104  0.00  0.00    +0.000 A 
ATOM     34  N   UNL     1       2.862   5.811  19.000  0.00  0.00    +0.000 N 
ENDBRANCH  24  34
ENDBRANCH   1  24
TORSDOF 4
ENDMDL
MODEL 5
REMARK VINA RESULT:      -9.3      2.134      3.041
REMARK  Name = 
REMARK  7 active torsions:
REMARK  status: ('A' for Active; 'I' for Inactive)
REMARK    1  A    between atoms: C_1  and  C_2
REMARK    2  A    between atoms: N_10  and  C_11
REMARK    3  A    between atoms: C_11  and  C_12
REMARK    4  A    between atoms: C_15  and  C_16
REMARK    5  A    between atoms: C_16  and  C_18
REMARK    6  A    between atoms: N_23  and  C_24
REMARK    7  A    between atoms: N_23  and  C_25
REMARK                            x       y       z     vdW  Elec       q    Type
REMARK                         _______ _______ _______ _____ _____    ______ ____
ROOT
ATOM      1  C   UNL     1       2.617   6.712  19.581  0.00  0.00    +0.000 A 
ATOM      2  C   UNL     1       1.911   7.418  20.568  0.00  0.00    +0.000 A 
ATOM      3  C   UNL     1       1.253   8.609  20.247  0.00  0.00    +0.000 A 
ATOM      4  C   UNL     1       1.278   9.086  18.933  0.00  0.00    +0.000 A 
ATOM      5  C   UNL     1       2.112   8.475  17.993  0.00  0.00    +0.000 A 
ATOM      6  C   UNL     1       2.785   7.301  18.321  0.00  0.00    +0.000 A 
ENDROOT
BRANCH   4   7
ATOM      7  C   UNL     1       0.370  10.201  18.550  0.00  0.00    +0.000 C 
ATOM      8  O   UNL     1      -0.410  10.031  17.622  0.00  0.00    +0.000 OA
BRANCH   7   9
ATOM      9  C   UNL     1       0.488  11.478  19.265  0.00  0.00    +0.000 A 
ATOM     10  C   UNL     1       1.665  12.148  19.576  0.00  0.00    +0.000 A 
ATOM     11  N   UNL     1       1.377  13.298  20.297  0.00  0.00    +0.000 N 
ATOM     12  C   UNL     1       2.289  14.170  20.939  0.00  0.00    +0.000 C 
ATOM     13  O   UNL     1       2.052  14.490  22.098  0.00  0.00    +0.000 OA
ATOM     14  N   UNL     1       3.378  14.617  20.191  0.00  0.00    +0.000 N 
ATOM     15  C   UNL     1       3.533  14.562  18.740  0.00  0.00    +0.000 C 
ATOM     16  C   UNL     1       4.282  15.547  20.857  0.00  0.00    +0.000 C 
ATOM     17  C   UNL     1      -0.007  13.371  20.439  0.00  0.00    +0.000 A 
ATOM     18  C   UNL     1      -0.799  14.344  21.088  0.00  0.00    +0.000 A 
ATOM     19  C   UNL     1      -2.184  14.207  21.064  0.00  0.00    +0.000 A 
ATOM     20  C   UNL     1      -2.777  13.130  20.420  0.00  0.00    +0.000 A 
ATOM     21  C   UNL     1      -1.987  12.167  19.789  0.00  0.00    +0.000 A 
ATOM     22  F   UNL     1      -2.597  11.127  19.209  0.00  0.00    +0.000 F 
ATOM     23  C   UNL     1      -0.580  12.282  19.778  0.00  0.00    +0.000 A 
ENDBRANCH   7   9
ENDBRANCH   4   7
BRANCH   1  24
ATOM     24  C   UNL     1       3.091   5.296  19.821  0.00  0.00    +0.000 C 
BRANCH  24  34
ATOM     25  C   UNL     1       1.835   3.723  17.488  0.00  0.00    +0.000 C 
ATOM     26  C   UNL     1       3.262   4.124  17.582  0.00  0.00    +0.000 A 
ATOM     27  N   UNL     1       4.162   3.902  16.645  0.00  0.00    +0.000 NA
ATOM     28  C   UNL     1       5.351   4.374  17.142  0.00  0.00    +0.000 A 
ATOM     29  C   UNL     1       6.621   4.397  16.557  0.00  0.00    +0.000 A 
ATOM     30  N   UNL     1       7.685   4.905  17.234  0.00  0.00    +0.000 NA
ATOM     31  C   UNL     1       7.490   5.349  18.495  0.00  0.00    +0.000 A 
ATOM     32  C   UNL     1       6.271   5.355  19.164  0.00  0.00    +0.000 A 
ATOM     33  C   UNL     1       5.183   4.876  18.430  0.00  0.00    +0.000 A 
ATOM     34  N   UNL     1       3.823   4.779  18.663  0.00  0.00    +0.000 N 
ENDBRANCH  24  34
ENDBRANCH   1  24
TORSDOF 4
ENDMDL
MODEL 6
REMARK VINA RESULT:      -9.2      1.241      1.425
REMARK  Name = 
REMARK  7 active torsions:
REMARK  status: ('A' for Active; 'I' for Inactive)
REMARK    1  A    between atoms: C_1  and  C_2
REMARK    2  A    between atoms: N_10  and  C_11
REMARK    3  A    between atoms: C_11  and  C_12
REMARK    4  A    between atoms: C_15  and  C_16
REMARK    5  A    between atoms: C_16  and  C_18
REMARK    6  A    between atoms: N_23  and  C_24
REMARK    7  A    between atoms: N_23  and  C_25
REMARK                            x       y       z     vdW  Elec       q    Type
REMARK                         _______ _______ _______ _____ _____    ______ ____
ROOT
ATOM      1  C   UNL     1       2.018   7.497  19.873  0.00  0.00    +0.000 A 
ATOM      2  C   UNL     1       2.108   8.038  18.581  0.00  0.00    +0.000 A 
ATOM      3  C   UNL     1       1.484   9.253  18.281  0.00  0.00    +0.000 A 
ATOM      4  C   UNL     1       0.788   9.943  19.278  0.00  0.00    +0.000 A 
ATOM      5  C   UNL     1       0.560   9.328  20.512  0.00  0.00    +0.000 A 
ATOM      6  C   UNL     1       1.164   8.108  20.801  0.00  0.00    +0.000 A 
ENDROOT
BRANCH   4   7
ATOM      7  C   UNL     1       0.353  11.343  19.021  0.00  0.00    +0.000 C 
ATOM      8  O   UNL     1       1.181  12.151  18.623  0.00  0.00    +0.000 OA
BRANCH   7   9
ATOM      9  C   UNL     1      -1.039  11.709  19.311  0.00  0.00    +0.000 A 
ATOM     10  C   UNL     1      -1.492  12.452  20.395  0.00  0.00    +0.000 A 
ATOM     11  N   UNL     1      -2.875  12.551  20.353  0.00  0.00    +0.000 N 
ATOM     12  C   UNL     1      -3.737  13.082  21.344  0.00  0.00    +0.000 C 
ATOM     13  O   UNL     1      -4.714  12.415  21.666  0.00  0.00    +0.000 OA
ATOM     14  N   UNL     1      -3.418  14.337  21.860  0.00  0.00    +0.000 N 
ATOM     15  C   UNL     1      -2.497  15.316  21.291  0.00  0.00    +0.000 C 
ATOM     16  C   UNL     1      -4.340  14.883  22.849  0.00  0.00    +0.000 C 
ATOM     17  C   UNL     1      -3.313  11.870  19.219  0.00  0.00    +0.000 A 
ATOM     18  C   UNL     1      -4.625  11.678  18.731  0.00  0.00    +0.000 A 
ATOM     19  C   UNL     1      -4.802  10.976  17.541  0.00  0.00    +0.000 A 
ATOM     20  C   UNL     1      -3.709  10.469  16.851  0.00  0.00    +0.000 A 
ATOM     21  C   UNL     1      -2.417  10.655  17.346  0.00  0.00    +0.000 A 
ATOM     22  F   UNL     1      -1.395  10.120  16.667  0.00  0.00    +0.000 F 
ATOM     23  C   UNL     1      -2.197  11.375  18.540  0.00  0.00    +0.000 A 
ENDBRANCH   7   9
ENDBRANCH   4   7
BRANCH   1  24
ATOM     24  C   UNL     1       2.905   6.350  20.305  0.00  0.00    +0.000 C 
BRANCH  24  34
ATOM     25  C   UNL     1       0.996   3.964  19.907  0.00  0.00    +0.000 C 
ATOM     26  C   UNL     1       2.140   4.304  19.022  0.00  0.00    +0.000 A 
ATOM     27  N   UNL     1       2.448   3.654  17.919  0.00  0.00    +0.000 NA
ATOM     28  C   UNL     1       3.589   4.245  17.435  0.00  0.00    +0.000 A 
ATOM     29  C   UNL     1       4.332   3.953  16.287  0.00  0.00    +0.000 A 
ATOM     30  N   UNL     1       5.454   4.661  15.992  0.00  0.00    +0.000 NA
ATOM     31  C   UNL     1       5.850   5.624  16.853  0.00  0.00    +0.000 A 
ATOM     32  C   UNL     1       5.185   5.977  18.022  0.00  0.00    +0.000 A 
ATOM     33  C   UNL     1       4.007   5.271  18.279  0.00  0.00    +0.000 A 
ATOM     34  N   UNL     1       3.023   5.344  19.247  0.00  0.00    +0.000 N 
ENDBRANCH  24  34
ENDBRANCH   1  24
TORSDOF 4
ENDMDL
MODEL 7
REMARK VINA RESULT:      -9.0      2.442      9.418
REMARK  Name = 
REMARK  7 active torsions:
REMARK  status: ('A' for Active; 'I' for Inactive)
REMARK    1  A    between atoms: C_1  and  C_2
REMARK    2  A    between atoms: N_10  and  C_11
REMARK    3  A    between atoms: C_11  and  C_12
REMARK    4  A    between atoms: C_15  and  C_16
REMARK    5  A    between atoms: C_16  and  C_18
REMARK    6  A    between atoms: N_23  and  C_24
REMARK    7  A    between atoms: N_23  and  C_25
REMARK                            x       y       z     vdW  Elec       q    Type
REMARK                         _______ _______ _______ _____ _____    ______ ____
ROOT
ATOM      1  C   UNL     1       0.971  10.756  19.027  0.00  0.00    +0.000 A 
ATOM      2  C   UNL     1       1.458   9.827  18.095  0.00  0.00    +0.000 A 
ATOM      3  C   UNL     1       1.828   8.543  18.507  0.00  0.00    +0.000 A 
ATOM      4  C   UNL     1       1.689   8.176  19.850  0.00  0.00    +0.000 A 
ATOM      5  C   UNL     1       1.361   9.146  20.800  0.00  0.00    +0.000 A 
ATOM      6  C   UNL     1       1.015  10.430  20.389  0.00  0.00    +0.000 A 
ENDROOT
BRANCH   4   7
ATOM      7  C   UNL     1       1.837   6.743  20.228  0.00  0.00    +0.000 C 
ATOM      8  O   UNL     1       1.385   6.370  21.302  0.00  0.00    +0.000 OA
BRANCH   7   9
ATOM      9  C   UNL     1       2.571   5.852  19.321  0.00  0.00    +0.000 A 
ATOM     10  C   UNL     1       3.730   6.157  18.617  0.00  0.00    +0.000 A 
ATOM     11  N   UNL     1       4.101   5.076  17.830  0.00  0.00    +0.000 N 
ATOM     12  C   UNL     1       5.121   5.029  16.849  0.00  0.00    +0.000 C 
ATOM     13  O   UNL     1       4.838   4.551  15.755  0.00  0.00    +0.000 OA
ATOM     14  N   UNL     1       6.378   5.510  17.211  0.00  0.00    +0.000 N 
ATOM     15  C   UNL     1       6.869   5.761  18.563  0.00  0.00    +0.000 C 
ATOM     16  C   UNL     1       7.424   5.413  16.200  0.00  0.00    +0.000 C 
ATOM     17  C   UNL     1       3.172   4.060  18.042  0.00  0.00    +0.000 A 
ATOM     18  C   UNL     1       3.104   2.766  17.481  0.00  0.00    +0.000 A 
ATOM     19  C   UNL     1       2.080   1.912  17.883  0.00  0.00    +0.000 A 
ATOM     20  C   UNL     1       1.139   2.328  18.815  0.00  0.00    +0.000 A 
ATOM     21  C   UNL     1       1.208   3.613  19.358  0.00  0.00    +0.000 A 
ATOM     22  F   UNL     1       0.261   3.985  20.228  0.00  0.00    +0.000 F 
ATOM     23  C   UNL     1       2.241   4.500  18.987  0.00  0.00    +0.000 A 
ENDBRANCH   7   9
ENDBRANCH   4   7
BRANCH   1  24
ATOM     24  C   UNL     1       0.301  12.036  18.578  0.00  0.00    +0.000 C 
BRANCH  24  34
ATOM     25  C   UNL     1      -1.064  13.307  21.032  0.00  0.00    +0.000 C 
ATOM     26  C   UNL     1      -1.768  12.622  19.917  0.00  0.00    +0.000 A 
ATOM     27  N   UNL     1      -3.077  12.521  19.813  0.00  0.00    +0.000 NA
ATOM     28  C   UNL     1      -3.312  11.777  18.684  0.00  0.00    +0.000 A 
ATOM     29  C   UNL     1      -4.523  11.382  18.106  0.00  0.00    +0.000 A 
ATOM     30  N   UNL     1      -4.535  10.626  16.977  0.00  0.00    +0.000 NA
ATOM     31  C   UNL     1      -3.353  10.237  16.452  0.00  0.00    +0.000 A 
ATOM     32  C   UNL     1      -2.102  10.568  16.960  0.00  0.00    +0.000 A 
ATOM     33  C   UNL     1      -2.113  11.389  18.091  0.00  0.00    +0.000 A 
ATOM     34  N   UNL     1      -1.137  12.005  18.852  0.00  0.00    +0.000 N 
ENDBRANCH  24  34
ENDBRANCH   1  24
TORSDOF 4
ENDMDL
MODEL 8
REMARK VINA RESULT:      -9.0      2.761      4.322
REMARK  Name = 
REMARK  7 active torsions:
REMARK  status: ('A' for Active; 'I' for Inactive)
REMARK    1  A    between atoms: C_1  and  C_2
REMARK    2  A    between atoms: N_10  and  C_11
REMARK    3  A    between atoms: C_11  and  C_12
REMARK    4  A    between atoms: C_15  and  C_16
REMARK    5  A    between atoms: C_16  and  C_18
REMARK    6  A    between atoms: N_23  and  C_24
REMARK    7  A    between atoms: N_23  and  C_25
REMARK                            x       y       z     vdW  Elec       q    Type
REMARK                         _______ _______ _______ _____ _____    ______ ____
ROOT
ATOM      1  C   UNL     1       2.519   7.545  19.070  0.00  0.00    +0.000 A 
ATOM      2  C   UNL     1       2.264   8.181  17.845  0.00  0.00    +0.000 A 
ATOM      3  C   UNL     1       1.385   9.266  17.785  0.00  0.00    +0.000 A 
ATOM      4  C   UNL     1       0.776   9.735  18.953  0.00  0.00    +0.000 A 
ATOM      5  C   UNL     1       0.901   9.004  20.138  0.00  0.00    +0.000 A 
ATOM      6  C   UNL     1       1.760   7.910  20.190  0.00  0.00    +0.000 A 
ENDROOT
BRANCH   4   7
ATOM      7  C   UNL     1       0.054  11.037  18.922  0.00  0.00    +0.000 C 
ATOM      8  O   UNL     1      -0.905  11.158  18.172  0.00  0.00    +0.000 OA
BRANCH   7   9
ATOM      9  C   UNL     1       0.559  12.138  19.751  0.00  0.00    +0.000 A 
ATOM     10  C   UNL     1       1.858  12.630  19.774  0.00  0.00    +0.000 A 
ATOM     11  N   UNL     1       1.963  13.642  20.718  0.00  0.00    +0.000 N 
ATOM     12  C   UNL     1       3.139  14.292  21.164  0.00  0.00    +0.000 C 
ATOM     13  O   UNL     1       3.303  14.404  22.374  0.00  0.00    +0.000 OA
ATOM     14  N   UNL     1       4.009  14.777  20.190  0.00  0.00    +0.000 N 
ATOM     15  C   UNL     1       3.718  14.987  18.774  0.00  0.00    +0.000 C 
ATOM     16  C   UNL     1       5.193  15.480  20.670  0.00  0.00    +0.000 C 
ATOM     17  C   UNL     1       0.708  13.807  21.300  0.00  0.00    +0.000 A 
ATOM     18  C   UNL     1       0.291  14.704  22.308  0.00  0.00    +0.000 A 
ATOM     19  C   UNL     1      -1.044  14.696  22.704  0.00  0.00    +0.000 A 
ATOM     20  C   UNL     1      -1.948  13.817  22.122  0.00  0.00    +0.000 A 
ATOM     21  C   UNL     1      -1.525  12.928  21.132  0.00  0.00    +0.000 A 
ATOM     22  F   UNL     1      -2.422  12.075  20.621  0.00  0.00    +0.000 F 
ATOM     23  C   UNL     1      -0.183  12.919  20.694  0.00  0.00    +0.000 A 
ENDBRANCH   7   9
ENDBRANCH   4   7
BRANCH   1  24
ATOM     24  C   UNL     1       3.665   6.569  19.221  0.00  0.00    +0.000 C 
BRANCH  24  34
ATOM     25  C   UNL     1       5.009   5.840  16.546  0.00  0.00    +0.000 C 
ATOM     26  C   UNL     1       4.059   4.976  17.291  0.00  0.00    +0.000 A 
ATOM     27  N   UNL     1       3.713   3.759  16.925  0.00  0.00    +0.000 NA
ATOM     28  C   UNL     1       2.786   3.334  17.844  0.00  0.00    +0.000 A 
ATOM     29  C   UNL     1       2.104   2.117  17.932  0.00  0.00    +0.000 A 
ATOM     30  N   UNL     1       1.205   1.900  18.928  0.00  0.00    +0.000 NA
ATOM     31  C   UNL     1       0.961   2.900  19.803  0.00  0.00    +0.000 A 
ATOM     32  C   UNL     1       1.578   4.145  19.788  0.00  0.00    +0.000 A 
ATOM     33  C   UNL     1       2.536   4.328  18.787  0.00  0.00    +0.000 A 
ATOM     34  N   UNL     1       3.419   5.341  18.461  0.00  0.00    +0.000 N 
ENDBRANCH  24  34
ENDBRANCH   1  24
TORSDOF 4
ENDMDL
MODEL 9
REMARK VINA RESULT:      -8.9      2.492      3.677
REMARK  Name = 
REMARK  7 active torsions:
REMARK  status: ('A' for Active; 'I' for Inactive)
REMARK    1  A    between atoms: C_1  and  C_2
REMARK    2  A    between atoms: N_10  and  C_11
REMARK    3  A    between atoms: C_11  and  C_12
REMARK    4  A    between atoms: C_15  and  C_16
REMARK    5  A    between atoms: C_16  and  C_18
REMARK    6  A    between atoms: N_23  and  C_24
REMARK    7  A    between atoms: N_23  and  C_25
REMARK                            x       y       z     vdW  Elec       q    Type
REMARK                         _______ _______ _______ _____ _____    ______ ____
ROOT
ATOM      1  C   UNL     1       2.546   6.678  19.608  0.00  0.00    +0.000 A 
ATOM      2  C   UNL     1       1.938   7.391  20.653  0.00  0.00    +0.000 A 
ATOM      3  C   UNL     1       1.392   8.656  20.418  0.00  0.00    +0.000 A 
ATOM      4  C   UNL     1       1.431   9.204  19.131  0.00  0.00    +0.000 A 
ATOM      5  C   UNL     1       2.178   8.571  18.134  0.00  0.00    +0.000 A 
ATOM      6  C   UNL     1       2.740   7.320  18.377  0.00  0.00    +0.000 A 
ENDROOT
BRANCH   4   7
ATOM      7  C   UNL     1       0.628  10.422  18.838  0.00  0.00    +0.000 C 
ATOM      8  O   UNL     1      -0.296  10.338  18.040  0.00  0.00    +0.000 OA
BRANCH   7   9
ATOM      9  C   UNL     1       1.015  11.688  19.475  0.00  0.00    +0.000 A 
ATOM     10  C   UNL     1       2.130  12.460  19.173  0.00  0.00    +0.000 A 
ATOM     11  N   UNL     1       2.185  13.559  20.018  0.00  0.00    +0.000 N 
ATOM     12  C   UNL     1       3.234  14.500  20.149  0.00  0.00    +0.000 C 
ATOM     13  O   UNL     1       3.621  14.768  21.282  0.00  0.00    +0.000 OA
ATOM     14  N   UNL     1       3.733  15.068  18.978  0.00  0.00    +0.000 N 
ATOM     15  C   UNL     1       3.105  15.063  17.660  0.00  0.00    +0.000 C 
ATOM     16  C   UNL     1       4.785  16.065  19.138  0.00  0.00    +0.000 C 
ATOM     17  C   UNL     1       1.081  13.495  20.866  0.00  0.00    +0.000 A 
ATOM     18  C   UNL     1       0.684  14.372  21.899  0.00  0.00    +0.000 A 
ATOM     19  C   UNL     1      -0.494  14.102  22.593  0.00  0.00    +0.000 A 
ATOM     20  C   UNL     1      -1.260  12.988  22.277  0.00  0.00    +0.000 A 
ATOM     21  C   UNL     1      -0.855  12.121  21.260  0.00  0.00    +0.000 A 
ATOM     22  F   UNL     1      -1.605  11.041  21.012  0.00  0.00    +0.000 F 
ATOM     23  C   UNL     1       0.324  12.371  20.525  0.00  0.00    +0.000 A 
ENDBRANCH   7   9
ENDBRANCH   4   7
BRANCH   1  24
ATOM     24  C   UNL     1       2.885   5.211  19.755  0.00  0.00    +0.000 C 
BRANCH  24  34
ATOM     25  C   UNL     1       1.822   3.626  17.335  0.00  0.00    +0.000 C 
ATOM     26  C   UNL     1       3.225   4.080  17.514  0.00  0.00    +0.000 A 
ATOM     27  N   UNL     1       4.183   3.907  16.627  0.00  0.00    +0.000 NA
ATOM     28  C   UNL     1       5.324   4.417  17.195  0.00  0.00    +0.000 A 
ATOM     29  C   UNL     1       6.622   4.498  16.682  0.00  0.00    +0.000 A 
ATOM     30  N   UNL     1       7.626   5.036  17.425  0.00  0.00    +0.000 NA
ATOM     31  C   UNL     1       7.344   5.454  18.678  0.00  0.00    +0.000 A 
ATOM     32  C   UNL     1       6.091   5.403  19.277  0.00  0.00    +0.000 A 
ATOM     33  C   UNL     1       5.064   4.894  18.478  0.00  0.00    +0.000 A 
ATOM     34  N   UNL     1       3.699   4.740  18.633  0.00  0.00    +0.000 N 
ENDBRANCH  24  34
ENDBRANCH   1  24
TORSDOF 4
ENDMDL
