MODEL 1
REMARK VINA RESULT:      -7.4      0.000      0.000
REMARK  Name = 
REMARK  4 active torsions:
REMARK  status: ('A' for Active; 'I' for Inactive)
REMARK    1  A    between atoms: C_4  and  C_5
REMARK    2  A    between atoms: C_5  and  N_6
REMARK    3  A    between atoms: C_10  and  C_11
REMARK    4  A    between atoms: C_11  and  C_12
REMARK                            x       y       z     vdW  Elec       q    Type
REMARK                         _______ _______ _______ _____ _____    ______ ____
ROOT
ATOM      1  C   UNL     1       0.261  10.127  18.896  0.00  0.00    +0.000 C 
ATOM      2  C   UNL     1       0.086   9.247  20.161  0.00  0.00    +0.000 C 
ATOM      3  C   UNL     1       1.361   8.557  20.614  0.00  0.00    +0.000 C 
ATOM      4  N   UNL     1       1.902   7.781  19.506  0.00  0.00    +0.000 N 
ATOM      5  C   UNL     1       2.374   6.528  19.758  0.00  0.00    +0.000 A 
ATOM      6  N   UNL     1       1.787   5.703  20.604  0.00  0.00    +0.000 NA
ATOM      7  C   UNL     1       2.425   4.482  20.627  0.00  0.00    +0.000 A 
ATOM      8  C   UNL     1       3.560   4.392  19.857  0.00  0.00    +0.000 A 
ATOM      9  S   UNL     1       3.799   5.865  19.022  0.00  0.00    +0.000 S 
ATOM     10  C   UNL     1       2.209   8.519  18.287  0.00  0.00    +0.000 C 
ATOM     11  C   UNL     1       0.941   9.225  17.799  0.00  0.00    +0.000 C 
ENDROOT
BRANCH   1  12
ATOM     12  C   UNL     1      -1.157  10.503  18.365  0.00  0.00    +0.000 A 
ATOM     13  C   UNL     1      -1.990  11.445  18.989  0.00  0.00    +0.000 A 
ATOM     14  C   UNL     1      -3.266  11.732  18.488  0.00  0.00    +0.000 A 
ATOM     15  C   UNL     1      -3.735  11.099  17.341  0.00  0.00    +0.000 A 
ATOM     16  C   UNL     1      -2.927  10.181  16.687  0.00  0.00    +0.000 A 
ATOM     17  C   UNL     1      -1.659   9.891  17.192  0.00  0.00    +0.000 A 
ENDBRANCH   1  12
BRANCH   1  22
ATOM     18  N   UNL     1       1.400  12.178  20.203  0.00  0.00    +0.000 N 
ATOM     19  C   UNL     1       2.242  13.202  19.812  0.00  0.00    +0.000 A 
ATOM     20  C   UNL     1       2.472  13.017  18.480  0.00  0.00    +0.000 A 
ATOM     21  N   UNL     1       1.838  11.891  18.055  0.00  0.00    +0.000 NA
ATOM     22  C   UNL     1       1.175  11.375  19.087  0.00  0.00    +0.000 A 
BRANCH  18  23
ATOM     23  C   UNL     1       0.988  12.061  21.594  0.00  0.00    +0.000 C 
BRANCH  23  27
ATOM     24  C   UNL     1      -3.050  13.440  22.285  0.00  0.00    +0.000 A 
ATOM     25  C   UNL     1      -2.165  14.214  21.540  0.00  0.00    +0.000 A 
ATOM     26  C   UNL     1      -0.859  13.770  21.321  0.00  0.00    +0.000 A 
ATOM     27  C   UNL     1      -0.416  12.551  21.846  0.00  0.00    +0.000 A 
ATOM     28  C   UNL     1      -1.320  11.780  22.600  0.00  0.00    +0.000 A 
ATOM     29  C   UNL     1      -2.629  12.223  22.814  0.00  0.00    +0.000 A 
ENDBRANCH  23  27
ENDBRANCH  18  23
ENDBRANCH   1  22
TORSDOF 4
ENDMDL
MODEL 2
REMARK VINA RESULT:      -6.9      0.617      1.082
REMARK  Name = 
REMARK  4 active torsions:
REMARK  status: ('A' for Active; 'I' for Inactive)
REMARK    1  A    between atoms: C_4  and  C_5
REMARK    2  A    between atoms: C_5  and  N_6
REMARK    3  A    between atoms: C_10  and  C_11
REMARK    4  A    between atoms: C_11  and  C_12
REMARK                            x       y       z     vdW  Elec       q    Type
REMARK                         _______ _______ _______ _____ _____    ______ ____
ROOT
ATOM      1  C   UNL     1      -0.169  10.443  19.040  0.00  0.00    +0.000 C 
ATOM      2  C   UNL     1      -0.224   9.513  20.280  0.00  0.00    +0.000 C 
ATOM      3  C   UNL     1       1.116   8.903  20.653  0.00  0.00    +0.000 C 
ATOM      4  N   UNL     1       1.660   8.203  19.497  0.00  0.00    +0.000 N 
ATOM      5  C   UNL     1       2.230   6.980  19.684  0.00  0.00    +0.000 A 
ATOM      6  N   UNL     1       1.742   6.089  20.525  0.00  0.00    +0.000 NA
ATOM      7  C   UNL     1       2.465   4.916  20.478  0.00  0.00    +0.000 A 
ATOM      8  C   UNL     1       3.567   4.933  19.658  0.00  0.00    +0.000 A 
ATOM      9  S   UNL     1       3.663   6.445  18.865  0.00  0.00    +0.000 S 
ATOM     10  C   UNL     1       1.858   8.999  18.293  0.00  0.00    +0.000 C 
ATOM     11  C   UNL     1       0.522   9.628  17.884  0.00  0.00    +0.000 C 
ENDROOT
BRANCH   1  12
ATOM     12  C   UNL     1      -1.633  10.732  18.584  0.00  0.00    +0.000 A 
ATOM     13  C   UNL     1      -2.259  10.053  17.527  0.00  0.00    +0.000 A 
ATOM     14  C   UNL     1      -3.568  10.365  17.137  0.00  0.00    +0.000 A 
ATOM     15  C   UNL     1      -4.291  11.347  17.805  0.00  0.00    +0.000 A 
ATOM     16  C   UNL     1      -3.709  12.019  18.871  0.00  0.00    +0.000 A 
ATOM     17  C   UNL     1      -2.402  11.713  19.252  0.00  0.00    +0.000 A 
ENDBRANCH   1  12
BRANCH   1  22
ATOM     18  N   UNL     1       0.929  12.495  20.379  0.00  0.00    +0.000 N 
ATOM     19  C   UNL     1       1.652  13.607  19.987  0.00  0.00    +0.000 A 
ATOM     20  C   UNL     1       1.770  13.523  18.630  0.00  0.00    +0.000 A 
ATOM     21  N   UNL     1       1.185  12.377  18.187  0.00  0.00    +0.000 NA
ATOM     22  C   UNL     1       0.663  11.746  19.236  0.00  0.00    +0.000 A 
BRANCH  18  23
ATOM     23  C   UNL     1       0.659  12.260  21.790  0.00  0.00    +0.000 C 
BRANCH  23  27
ATOM     24  C   UNL     1      -3.359  13.353  22.947  0.00  0.00    +0.000 A 
ATOM     25  C   UNL     1      -2.564  14.255  22.247  0.00  0.00    +0.000 A 
ATOM     26  C   UNL     1      -1.264  13.904  21.878  0.00  0.00    +0.000 A 
ATOM     27  C   UNL     1      -0.738  12.648  22.206  0.00  0.00    +0.000 A 
ATOM     28  C   UNL     1      -1.552  11.748  22.916  0.00  0.00    +0.000 A 
ATOM     29  C   UNL     1      -2.855  12.099  23.280  0.00  0.00    +0.000 A 
ENDBRANCH  23  27
ENDBRANCH  18  23
ENDBRANCH   1  22
TORSDOF 4
ENDMDL
MODEL 3
REMARK VINA RESULT:      -6.8      0.942      1.317
REMARK  Name = 
REMARK  4 active torsions:
REMARK  status: ('A' for Active; 'I' for Inactive)
REMARK    1  A    between atoms: C_4  and  C_5
REMARK    2  A    between atoms: C_5  and  N_6
REMARK    3  A    between atoms: C_10  and  C_11
REMARK    4  A    between atoms: C_11  and  C_12
REMARK                            x       y       z     vdW  Elec       q    Type
REMARK                         _______ _______ _______ _____ _____    ______ ____
ROOT
ATOM      1  C   UNL     1      -0.342  10.677  19.054  0.00  0.00    +0.000 C 
ATOM      2  C   UNL     1      -0.231   9.705  20.257  0.00  0.00    +0.000 C 
ATOM      3  C   UNL     1       1.168   9.157  20.481  0.00  0.00    +0.000 C 
ATOM      4  N   UNL     1       1.635   8.527  19.252  0.00  0.00    +0.000 N 
ATOM      5  C   UNL     1       2.282   7.332  19.339  0.00  0.00    +0.000 A 
ATOM      6  N   UNL     1       1.923   6.387  20.188  0.00  0.00    +0.000 NA
ATOM      7  C   UNL     1       2.698   5.258  20.029  0.00  0.00    +0.000 A 
ATOM      8  C   UNL     1       3.714   5.363  19.111  0.00  0.00    +0.000 A 
ATOM      9  S   UNL     1       3.656   6.903  18.371  0.00  0.00    +0.000 S 
ATOM     10  C   UNL     1       1.677   9.372  18.066  0.00  0.00    +0.000 C 
ATOM     11  C   UNL     1       0.277   9.939  17.808  0.00  0.00    +0.000 C 
ENDROOT
BRANCH   1  12
ATOM     12  C   UNL     1      -1.856  10.900  18.747  0.00  0.00    +0.000 A 
ATOM     13  C   UNL     1      -2.602  11.963  19.280  0.00  0.00    +0.000 A 
ATOM     14  C   UNL     1      -3.965  12.109  18.995  0.00  0.00    +0.000 A 
ATOM     15  C   UNL     1      -4.614  11.208  18.156  0.00  0.00    +0.000 A 
ATOM     16  C   UNL     1      -3.899  10.160  17.594  0.00  0.00    +0.000 A 
ATOM     17  C   UNL     1      -2.542  10.012  17.886  0.00  0.00    +0.000 A 
ENDBRANCH   1  12
BRANCH   1  22
ATOM     18  N   UNL     1       0.703  12.782  20.353  0.00  0.00    +0.000 N 
ATOM     19  C   UNL     1       1.364  13.922  19.936  0.00  0.00    +0.000 A 
ATOM     20  C   UNL     1       1.445  13.838  18.577  0.00  0.00    +0.000 A 
ATOM     21  N   UNL     1       0.899  12.666  18.154  0.00  0.00    +0.000 NA
ATOM     22  C   UNL     1       0.436  12.017  19.220  0.00  0.00    +0.000 A 
BRANCH  18  23
ATOM     23  C   UNL     1       0.486  12.541  21.773  0.00  0.00    +0.000 C 
BRANCH  23  27
ATOM     24  C   UNL     1      -3.548  13.368  23.085  0.00  0.00    +0.000 A 
ATOM     25  C   UNL     1      -2.971  12.128  23.342  0.00  0.00    +0.000 A 
ATOM     26  C   UNL     1      -1.669  11.860  22.913  0.00  0.00    +0.000 A 
ATOM     27  C   UNL     1      -0.927  12.823  22.219  0.00  0.00    +0.000 A 
ATOM     28  C   UNL     1      -1.525  14.070  21.964  0.00  0.00    +0.000 A 
ATOM     29  C   UNL     1      -2.826  14.340  22.398  0.00  0.00    +0.000 A 
ENDBRANCH  23  27
ENDBRANCH  18  23
ENDBRANCH   1  22
TORSDOF 4
ENDMDL
MODEL 4
REMARK VINA RESULT:      -6.7      2.256      4.022
REMARK  Name = 
REMARK  4 active torsions:
REMARK  status: ('A' for Active; 'I' for Inactive)
REMARK    1  A    between atoms: C_4  and  C_5
REMARK    2  A    between atoms: C_5  and  N_6
REMARK    3  A    between atoms: C_10  and  C_11
REMARK    4  A    between atoms: C_11  and  C_12
REMARK                            x       y       z     vdW  Elec       q    Type
REMARK                         _______ _______ _______ _____ _____    ______ ____
ROOT
ATOM      1  C   UNL     1      -1.247  12.606  20.852  0.00  0.00    +0.000 C 
ATOM      2  C   UNL     1      -0.298  11.751  21.730  0.00  0.00    +0.000 C 
ATOM      3  C   UNL     1       0.951  11.276  21.008  0.00  0.00    +0.000 C 
ATOM      4  N   UNL     1       0.560  10.555  19.804  0.00  0.00    +0.000 N 
ATOM      5  C   UNL     1       1.208   9.396  19.499  0.00  0.00    +0.000 A 
ATOM      6  N   UNL     1       1.569   8.519  20.417  0.00  0.00    +0.000 NA
ATOM      7  C   UNL     1       2.147   7.409  19.841  0.00  0.00    +0.000 A 
ATOM      8  C   UNL     1       2.310   7.466  18.478  0.00  0.00    +0.000 A 
ATOM      9  S   UNL     1       1.653   8.931  17.888  0.00  0.00    +0.000 S 
ATOM     10  C   UNL     1      -0.252  11.290  18.843  0.00  0.00    +0.000 C 
ATOM     11  C   UNL     1      -1.525  11.782  19.539  0.00  0.00    +0.000 C 
ENDROOT
BRANCH   1  12
ATOM     12  C   UNL     1      -2.608  12.747  21.601  0.00  0.00    +0.000 A 
ATOM     13  C   UNL     1      -3.746  13.336  21.027  0.00  0.00    +0.000 A 
ATOM     14  C   UNL     1      -4.940  13.462  21.748  0.00  0.00    +0.000 A 
ATOM     15  C   UNL     1      -5.034  12.986  23.052  0.00  0.00    +0.000 A 
ATOM     16  C   UNL     1      -3.935  12.377  23.639  0.00  0.00    +0.000 A 
ATOM     17  C   UNL     1      -2.743  12.259  22.922  0.00  0.00    +0.000 A 
ENDBRANCH   1  12
BRANCH   1  22
ATOM     18  N   UNL     1      -0.199  15.060  21.157  0.00  0.00    +0.000 N 
ATOM     19  C   UNL     1       0.131  16.068  20.270  0.00  0.00    +0.000 A 
ATOM     20  C   UNL     1      -0.175  15.596  19.028  0.00  0.00    +0.000 A 
ATOM     21  N   UNL     1      -0.637  14.320  19.120  0.00  0.00    +0.000 NA
ATOM     22  C   UNL     1      -0.665  13.983  20.407  0.00  0.00    +0.000 A 
BRANCH  18  23
ATOM     23  C   UNL     1       0.045  15.231  22.582  0.00  0.00    +0.000 C 
BRANCH  23  27
ATOM     24  C   UNL     1      -3.542  15.956  24.881  0.00  0.00    +0.000 A 
ATOM     25  C   UNL     1      -2.485  15.247  25.442  0.00  0.00    +0.000 A 
ATOM     26  C   UNL     1      -1.328  15.008  24.697  0.00  0.00    +0.000 A 
ATOM     27  C   UNL     1      -1.211  15.471  23.381  0.00  0.00    +0.000 A 
ATOM     28  C   UNL     1      -2.289  16.184  22.826  0.00  0.00    +0.000 A 
ATOM     29  C   UNL     1      -3.445  16.427  23.574  0.00  0.00    +0.000 A 
ENDBRANCH  23  27
ENDBRANCH  18  23
ENDBRANCH   1  22
TORSDOF 4
ENDMDL
MODEL 5
REMARK VINA RESULT:      -6.6      0.837      1.164
REMARK  Name = 
REMARK  4 active torsions:
REMARK  status: ('A' for Active; 'I' for Inactive)
REMARK    1  A    between atoms: C_4  and  C_5
REMARK    2  A    between atoms: C_5  and  N_6
REMARK    3  A    between atoms: C_10  and  C_11
REMARK    4  A    between atoms: C_11  and  C_12
REMARK                            x       y       z     vdW  Elec       q    Type
REMARK                         _______ _______ _______ _____ _____    ______ ____
ROOT
ATOM      1  C   UNL     1       0.253  10.154  18.921  0.00  0.00    +0.000 C 
ATOM      2  C   UNL     1       0.076   9.281  20.190  0.00  0.00    +0.000 C 
ATOM      3  C   UNL     1       1.349   8.586  20.643  0.00  0.00    +0.000 C 
ATOM      4  N   UNL     1       1.884   7.803  19.538  0.00  0.00    +0.000 N 
ATOM      5  C   UNL     1       2.351   6.549  19.794  0.00  0.00    +0.000 A 
ATOM      6  N   UNL     1       1.761   5.730  20.645  0.00  0.00    +0.000 NA
ATOM      7  C   UNL     1       2.393   4.506  20.673  0.00  0.00    +0.000 A 
ATOM      8  C   UNL     1       3.526   4.407  19.901  0.00  0.00    +0.000 A 
ATOM      9  S   UNL     1       3.770   5.875  19.059  0.00  0.00    +0.000 S 
ATOM     10  C   UNL     1       2.192   8.533  18.315  0.00  0.00    +0.000 C 
ATOM     11  C   UNL     1       0.926   9.243  17.827  0.00  0.00    +0.000 C 
ENDROOT
BRANCH   1  12
ATOM     12  C   UNL     1      -1.165  10.534  18.391  0.00  0.00    +0.000 A 
ATOM     13  C   UNL     1      -2.018  11.433  19.049  0.00  0.00    +0.000 A 
ATOM     14  C   UNL     1      -3.293  11.724  18.547  0.00  0.00    +0.000 A 
ATOM     15  C   UNL     1      -3.740  11.141  17.366  0.00  0.00    +0.000 A 
ATOM     16  C   UNL     1      -2.910  10.267  16.678  0.00  0.00    +0.000 A 
ATOM     17  C   UNL     1      -1.644   9.972  17.184  0.00  0.00    +0.000 A 
ENDBRANCH   1  12
BRANCH   1  22
ATOM     18  N   UNL     1       1.253  12.329  20.137  0.00  0.00    +0.000 N 
ATOM     19  C   UNL     1       2.185  13.280  19.765  0.00  0.00    +0.000 A 
ATOM     20  C   UNL     1       2.612  12.926  18.519  0.00  0.00    +0.000 A 
ATOM     21  N   UNL     1       2.008  11.769  18.136  0.00  0.00    +0.000 NA
ATOM     22  C   UNL     1       1.174  11.397  19.104  0.00  0.00    +0.000 A 
BRANCH  18  23
ATOM     23  C   UNL     1       0.626  12.394  21.449  0.00  0.00    +0.000 C 
BRANCH  23  27
ATOM     24  C   UNL     1      -2.125  15.702  21.859  0.00  0.00    +0.000 A 
ATOM     25  C   UNL     1      -1.688  15.014  22.986  0.00  0.00    +0.000 A 
ATOM     26  C   UNL     1      -0.803  13.942  22.853  0.00  0.00    +0.000 A 
ATOM     27  C   UNL     1      -0.345  13.539  21.593  0.00  0.00    +0.000 A 
ATOM     28  C   UNL     1      -0.799  14.242  20.462  0.00  0.00    +0.000 A 
ATOM     29  C   UNL     1      -1.680  15.318  20.597  0.00  0.00    +0.000 A 
ENDBRANCH  23  27
ENDBRANCH  18  23
ENDBRANCH   1  22
TORSDOF 4
ENDMDL
MODEL 6
REMARK VINA RESULT:      -6.5      2.575      6.944
REMARK  Name = 
REMARK  4 active torsions:
REMARK  status: ('A' for Active; 'I' for Inactive)
REMARK    1  A    between atoms: C_4  and  C_5
REMARK    2  A    between atoms: C_5  and  N_6
REMARK    3  A    between atoms: C_10  and  C_11
REMARK    4  A    between atoms: C_11  and  C_12
REMARK                            x       y       z     vdW  Elec       q    Type
REMARK                         _______ _______ _______ _____ _____    ______ ____
ROOT
ATOM      1  C   UNL     1       0.239  11.198  19.150  0.00  0.00    +0.000 C 
ATOM      2  C   UNL     1       1.096  11.788  18.001  0.00  0.00    +0.000 C 
ATOM      3  C   UNL     1       2.430  12.356  18.454  0.00  0.00    +0.000 C 
ATOM      4  N   UNL     1       2.196  13.347  19.496  0.00  0.00    +0.000 N 
ATOM      5  C   UNL     1       2.899  14.514  19.455  0.00  0.00    +0.000 A 
ATOM      6  N   UNL     1       3.168  15.143  18.327  0.00  0.00    +0.000 NA
ATOM      7  C   UNL     1       3.832  16.326  18.567  0.00  0.00    +0.000 A 
ATOM      8  C   UNL     1       4.151  16.570  19.881  0.00  0.00    +0.000 A 
ATOM      9  S   UNL     1       3.538  15.308  20.858  0.00  0.00    +0.000 S 
ATOM     10  C   UNL     1       1.488  12.885  20.682  0.00  0.00    +0.000 C 
ATOM     11  C   UNL     1       0.133  12.309  20.261  0.00  0.00    +0.000 C 
ENDROOT
BRANCH   1  12
ATOM     12  C   UNL     1      -1.203  10.955  18.606  0.00  0.00    +0.000 A 
ATOM     13  C   UNL     1      -1.519   9.944  17.685  0.00  0.00    +0.000 A 
ATOM     14  C   UNL     1      -2.825   9.780  17.206  0.00  0.00    +0.000 A 
ATOM     15  C   UNL     1      -3.852  10.608  17.650  0.00  0.00    +0.000 A 
ATOM     16  C   UNL     1      -3.576  11.601  18.579  0.00  0.00    +0.000 A 
ATOM     17  C   UNL     1      -2.273  11.768  19.048  0.00  0.00    +0.000 A 
ENDBRANCH   1  12
BRANCH   1  22
ATOM     18  N   UNL     1       1.519   8.841  19.292  0.00  0.00    +0.000 N 
ATOM     19  C   UNL     1       1.765   7.955  20.325  0.00  0.00    +0.000 A 
ATOM     20  C   UNL     1       1.203   8.507  21.439  0.00  0.00    +0.000 A 
ATOM     21  N   UNL     1       0.664   9.718  21.133  0.00  0.00    +0.000 NA
ATOM     22  C   UNL     1       0.840   9.932  19.831  0.00  0.00    +0.000 A 
BRANCH  18  23
ATOM     23  C   UNL     1       2.028   8.566  17.956  0.00  0.00    +0.000 C 
BRANCH  23  27
ATOM     24  C   UNL     1       3.965   4.721  17.577  0.00  0.00    +0.000 A 
ATOM     25  C   UNL     1       2.609   4.793  17.881  0.00  0.00    +0.000 A 
ATOM     26  C   UNL     1       1.985   6.036  18.009  0.00  0.00    +0.000 A 
ATOM     27  C   UNL     1       2.706   7.224  17.839  0.00  0.00    +0.000 A 
ATOM     28  C   UNL     1       4.076   7.135  17.535  0.00  0.00    +0.000 A 
ATOM     29  C   UNL     1       4.699   5.891  17.402  0.00  0.00    +0.000 A 
ENDBRANCH  23  27
ENDBRANCH  18  23
ENDBRANCH   1  22
TORSDOF 4
ENDMDL
MODEL 7
REMARK VINA RESULT:      -6.5      1.444      3.679
REMARK  Name = 
REMARK  4 active torsions:
REMARK  status: ('A' for Active; 'I' for Inactive)
REMARK    1  A    between atoms: C_4  and  C_5
REMARK    2  A    between atoms: C_5  and  N_6
REMARK    3  A    between atoms: C_10  and  C_11
REMARK    4  A    between atoms: C_11  and  C_12
REMARK                            x       y       z     vdW  Elec       q    Type
REMARK                         _______ _______ _______ _____ _____    ______ ____
ROOT
ATOM      1  C   UNL     1       1.063  10.893  18.940  0.00  0.00    +0.000 C 
ATOM      2  C   UNL     1       2.019  10.131  17.986  0.00  0.00    +0.000 C 
ATOM      3  C   UNL     1       1.752   8.638  17.909  0.00  0.00    +0.000 C 
ATOM      4  N   UNL     1       1.795   8.076  19.253  0.00  0.00    +0.000 N 
ATOM      5  C   UNL     1       2.442   6.893  19.444  0.00  0.00    +0.000 A 
ATOM      6  N   UNL     1       3.565   6.587  18.824  0.00  0.00    +0.000 NA
ATOM      7  C   UNL     1       4.044   5.364  19.241  0.00  0.00    +0.000 A 
ATOM      8  C   UNL     1       3.242   4.685  20.126  0.00  0.00    +0.000 A 
ATOM      9  S   UNL     1       1.875   5.640  20.501  0.00  0.00    +0.000 S 
ATOM     10  C   UNL     1       0.863   8.641  20.221  0.00  0.00    +0.000 C 
ATOM     11  C   UNL     1       1.108  10.149  20.327  0.00  0.00    +0.000 C 
ENDROOT
BRANCH   1  12
ATOM     12  C   UNL     1       1.643  12.323  19.169  0.00  0.00    +0.000 A 
ATOM     13  C   UNL     1       1.946  13.209  18.123  0.00  0.00    +0.000 A 
ATOM     14  C   UNL     1       2.489  14.475  18.377  0.00  0.00    +0.000 A 
ATOM     15  C   UNL     1       2.724  14.896  19.682  0.00  0.00    +0.000 A 
ATOM     16  C   UNL     1       2.413  14.053  20.740  0.00  0.00    +0.000 A 
ATOM     17  C   UNL     1       1.880  12.789  20.484  0.00  0.00    +0.000 A 
ENDBRANCH   1  12
BRANCH   1  22
ATOM     18  N   UNL     1      -1.483  11.745  18.874  0.00  0.00    +0.000 N 
ATOM     19  C   UNL     1      -2.619  11.292  18.229  0.00  0.00    +0.000 A 
ATOM     20  C   UNL     1      -2.236  10.198  17.510  0.00  0.00    +0.000 A 
ATOM     21  N   UNL     1      -0.899   9.994  17.657  0.00  0.00    +0.000 NA
ATOM     22  C   UNL     1      -0.428  10.920  18.488  0.00  0.00    +0.000 A 
BRANCH  18  23
ATOM     23  C   UNL     1      -1.541  12.940  19.703  0.00  0.00    +0.000 C 
BRANCH  23  27
ATOM     24  C   UNL     1      -3.294  12.206  23.585  0.00  0.00    +0.000 A 
ATOM     25  C   UNL     1      -4.001  12.920  22.623  0.00  0.00    +0.000 A 
ATOM     26  C   UNL     1      -3.432  13.161  21.371  0.00  0.00    +0.000 A 
ATOM     27  C   UNL     1      -2.148  12.697  21.062  0.00  0.00    +0.000 A 
ATOM     28  C   UNL     1      -1.443  11.980  22.046  0.00  0.00    +0.000 A 
ATOM     29  C   UNL     1      -2.016  11.734  23.297  0.00  0.00    +0.000 A 
ENDBRANCH  23  27
ENDBRANCH  18  23
ENDBRANCH   1  22
TORSDOF 4
ENDMDL
MODEL 8
REMARK VINA RESULT:      -6.5      1.445      3.643
REMARK  Name = 
REMARK  4 active torsions:
REMARK  status: ('A' for Active; 'I' for Inactive)
REMARK    1  A    between atoms: C_4  and  C_5
REMARK    2  A    between atoms: C_5  and  N_6
REMARK    3  A    between atoms: C_10  and  C_11
REMARK    4  A    between atoms: C_11  and  C_12
REMARK                            x       y       z     vdW  Elec       q    Type
REMARK                         _______ _______ _______ _____ _____    ______ ____
ROOT
ATOM      1  C   UNL     1       1.060  10.892  18.968  0.00  0.00    +0.000 C 
ATOM      2  C   UNL     1       2.026  10.142  18.015  0.00  0.00    +0.000 C 
ATOM      3  C   UNL     1       1.761   8.650  17.916  0.00  0.00    +0.000 C 
ATOM      4  N   UNL     1       1.790   8.072  19.254  0.00  0.00    +0.000 N 
ATOM      5  C   UNL     1       2.435   6.886  19.437  0.00  0.00    +0.000 A 
ATOM      6  N   UNL     1       3.566   6.589  18.825  0.00  0.00    +0.000 NA
ATOM      7  C   UNL     1       4.041   5.361  19.232  0.00  0.00    +0.000 A 
ATOM      8  C   UNL     1       3.230   4.671  20.100  0.00  0.00    +0.000 A 
ATOM      9  S   UNL     1       1.858   5.620  20.473  0.00  0.00    +0.000 S 
ATOM     10  C   UNL     1       0.848   8.624  20.218  0.00  0.00    +0.000 C 
ATOM     11  C   UNL     1       1.091  10.131  20.346  0.00  0.00    +0.000 C 
ENDROOT
BRANCH   1  12
ATOM     12  C   UNL     1       1.637  12.320  19.220  0.00  0.00    +0.000 A 
ATOM     13  C   UNL     1       1.841  12.853  20.503  0.00  0.00    +0.000 A 
ATOM     14  C   UNL     1       2.338  14.150  20.680  0.00  0.00    +0.000 A 
ATOM     15  C   UNL     1       2.664  14.940  19.582  0.00  0.00    +0.000 A 
ATOM     16  C   UNL     1       2.498  14.433  18.301  0.00  0.00    +0.000 A 
ATOM     17  C   UNL     1       1.994  13.143  18.127  0.00  0.00    +0.000 A 
ENDBRANCH   1  12
BRANCH   1  22
ATOM     18  N   UNL     1      -1.486  11.742  18.887  0.00  0.00    +0.000 N 
ATOM     19  C   UNL     1      -2.615  11.297  18.224  0.00  0.00    +0.000 A 
ATOM     20  C   UNL     1      -2.223  10.213  17.494  0.00  0.00    +0.000 A 
ATOM     21  N   UNL     1      -0.888  10.009  17.651  0.00  0.00    +0.000 NA
ATOM     22  C   UNL     1      -0.427  10.924  18.501  0.00  0.00    +0.000 A 
BRANCH  18  23
ATOM     23  C   UNL     1      -1.554  12.925  19.733  0.00  0.00    +0.000 C 
BRANCH  23  27
ATOM     24  C   UNL     1      -3.318  12.209  23.613  0.00  0.00    +0.000 A 
ATOM     25  C   UNL     1      -2.039  11.742  23.331  0.00  0.00    +0.000 A 
ATOM     26  C   UNL     1      -1.471  11.969  22.075  0.00  0.00    +0.000 A 
ATOM     27  C   UNL     1      -2.174  12.662  21.082  0.00  0.00    +0.000 A 
ATOM     28  C   UNL     1      -3.467  13.126  21.381  0.00  0.00    +0.000 A 
ATOM     29  C   UNL     1      -4.033  12.903  22.640  0.00  0.00    +0.000 A 
ENDBRANCH  23  27
ENDBRANCH  18  23
ENDBRANCH   1  22
TORSDOF 4
ENDMDL
MODEL 9
REMARK VINA RESULT:      -6.4      3.670      5.660
REMARK  Name = 
REMARK  4 active torsions:
REMARK  status: ('A' for Active; 'I' for Inactive)
REMARK    1  A    between atoms: C_4  and  C_5
REMARK    2  A    between atoms: C_5  and  N_6
REMARK    3  A    between atoms: C_10  and  C_11
REMARK    4  A    between atoms: C_11  and  C_12
REMARK                            x       y       z     vdW  Elec       q    Type
REMARK                         _______ _______ _______ _____ _____    ______ ____
ROOT
ATOM      1  C   UNL     1      -0.733  12.030  19.170  0.00  0.00    +0.000 C 
ATOM      2  C   UNL     1       0.731  11.576  18.938  0.00  0.00    +0.000 C 
ATOM      3  C   UNL     1       1.765  12.455  19.620  0.00  0.00    +0.000 C 
ATOM      4  N   UNL     1       1.571  13.835  19.196  0.00  0.00    +0.000 N 
ATOM      5  C   UNL     1       2.668  14.582  18.887  0.00  0.00    +0.000 A 
ATOM      6  N   UNL     1       3.710  14.086  18.246  0.00  0.00    +0.000 NA
ATOM      7  C   UNL     1       4.652  15.062  18.003  0.00  0.00    +0.000 A 
ATOM      8  C   UNL     1       4.373  16.299  18.533  0.00  0.00    +0.000 A 
ATOM      9  S   UNL     1       2.847  16.257  19.304  0.00  0.00    +0.000 S 
ATOM     10  C   UNL     1       0.260  14.415  19.457  0.00  0.00    +0.000 C 
ATOM     11  C   UNL     1      -0.809  13.553  18.778  0.00  0.00    +0.000 C 
ENDROOT
BRANCH   1  12
ATOM     12  C   UNL     1      -1.647  11.255  18.172  0.00  0.00    +0.000 A 
ATOM     13  C   UNL     1      -2.248  10.022  18.474  0.00  0.00    +0.000 A 
ATOM     14  C   UNL     1      -3.041   9.350  17.536  0.00  0.00    +0.000 A 
ATOM     15  C   UNL     1      -3.272   9.902  16.279  0.00  0.00    +0.000 A 
ATOM     16  C   UNL     1      -2.713  11.130  15.958  0.00  0.00    +0.000 A 
ATOM     17  C   UNL     1      -1.916  11.794  16.891  0.00  0.00    +0.000 A 
ENDBRANCH   1  12
BRANCH   1  22
ATOM     18  N   UNL     1      -2.254  12.580  21.314  0.00  0.00    +0.000 N 
ATOM     19  C   UNL     1      -2.220  12.167  22.633  0.00  0.00    +0.000 A 
ATOM     20  C   UNL     1      -1.167  11.306  22.734  0.00  0.00    +0.000 A 
ATOM     21  N   UNL     1      -0.586  11.143  21.515  0.00  0.00    +0.000 NA
ATOM     22  C   UNL     1      -1.229  11.917  20.644  0.00  0.00    +0.000 A 
BRANCH  18  23
ATOM     23  C   UNL     1      -3.299  13.486  20.859  0.00  0.00    +0.000 C 
BRANCH  23  27
ATOM     24  C   UNL     1      -6.980  11.443  19.882  0.00  0.00    +0.000 A 
ATOM     25  C   UNL     1      -5.987  11.592  18.919  0.00  0.00    +0.000 A 
ATOM     26  C   UNL     1      -4.800  12.256  19.233  0.00  0.00    +0.000 A 
ATOM     27  C   UNL     1      -4.589  12.785  20.512  0.00  0.00    +0.000 A 
ATOM     28  C   UNL     1      -5.603  12.631  21.474  0.00  0.00    +0.000 A 
ATOM     29  C   UNL     1      -6.789  11.961  21.160  0.00  0.00    +0.000 A 
ENDBRANCH  23  27
ENDBRANCH  18  23
ENDBRANCH   1  22
TORSDOF 4
ENDMDL
