MODEL 1
REMARK VINA RESULT:      -7.5      0.000      0.000
REMARK  Name = 
REMARK  8 active torsions:
REMARK  status: ('A' for Active; 'I' for Inactive)
REMARK    1  A    between atoms: O_1  and  C_2
REMARK    2  A    between atoms: C_2  and  C_3
REMARK    3  A    between atoms: C_2  and  C_17
REMARK    4  A    between atoms: C_3  and  O_4
REMARK    5  A    between atoms: O_4  and  C_5
REMARK    6  A    between atoms: C_5  and  C_6
REMARK    7  A    between atoms: C_6  and  C_7
REMARK    8  A    between atoms: C_17  and  N_18
REMARK                            x       y       z     vdW  Elec       q    Type
REMARK                         _______ _______ _______ _____ _____    ______ ____
ROOT
ATOM      1  C   UNL     1       4.538   6.069  17.334  0.00  0.00    +0.000 C 
ENDROOT
BRANCH   1   2
ATOM      2  O   UNL     1       5.640   6.940  17.598  0.00  0.00    +0.000 OA
BRANCH   2   3
ATOM      3  C   UNL     1       6.841   6.371  17.038  0.00  0.00    +0.000 C 
BRANCH   3   4
ATOM      4  C   UNL     1       6.669   4.854  16.935  0.00  0.00    +0.000 C 
BRANCH   4   5
ATOM      5  O   UNL     1       7.444   4.260  17.984  0.00  0.00    +0.000 OA
ATOM      6  H   UNL     1       8.034   3.628  17.537  0.00  0.00    +0.000 HD
ENDBRANCH   4   5
BRANCH   4   7
ATOM      7  C   UNL     1       7.111   4.353  15.539  0.00  0.00    +0.000 C 
BRANCH   7   8
ATOM      8  N   UNL     1       6.580   4.984  14.317  0.00  0.00    +0.000 NA
ATOM      9  C   UNL     1       5.422   4.307  13.730  0.00  0.00    +0.000 C 
ATOM     10  C   UNL     1       5.982   3.370  12.680  0.00  0.00    +0.000 C 
ATOM     11  C   UNL     1       7.181   4.127  12.140  0.00  0.00    +0.000 C 
ATOM     12  C   UNL     1       7.576   5.104  13.243  0.00  0.00    +0.000 C 
ENDBRANCH   7   8
ENDBRANCH   4   7
ENDBRANCH   3   4
ENDBRANCH   2   3
ENDBRANCH   1   2
BRANCH   1  13
ATOM     13  C   UNL     1       3.470   6.184  18.421  0.00  0.00    +0.000 C 
BRANCH  13  14
ATOM     14  C   UNL     1       2.953   4.815  18.932  0.00  0.00    +0.000 C 
ATOM     15  C   UNL     1       1.926   5.005  20.083  0.00  0.00    +0.000 C 
ATOM     16  C   UNL     1       1.392   3.653  20.574  0.00  0.00    +0.000 C 
ATOM     17  C   UNL     1       0.704   2.928  19.410  0.00  0.00    +0.000 C 
ATOM     18  C   UNL     1       1.708   2.696  18.269  0.00  0.00    +0.000 C 
ATOM     19  C   UNL     1       2.877   1.844  18.788  0.00  0.00    +0.000 C 
ATOM     20  C   UNL     1       3.578   2.567  19.948  0.00  0.00    +0.000 C 
ATOM     21  C   UNL     1       2.570   2.806  21.084  0.00  0.00    +0.000 C 
ATOM     22  C   UNL     1       4.112   3.922  19.453  0.00  0.00    +0.000 C 
ATOM     23  C   UNL     1       2.247   4.053  17.780  0.00  0.00    +0.000 C 
ENDBRANCH  13  14
ENDBRANCH   1  13
TORSDOF 8
ENDMDL
MODEL 2
REMARK VINA RESULT:      -7.4      0.472      1.733
REMARK  Name = 
REMARK  8 active torsions:
REMARK  status: ('A' for Active; 'I' for Inactive)
REMARK    1  A    between atoms: O_1  and  C_2
REMARK    2  A    between atoms: C_2  and  C_3
REMARK    3  A    between atoms: C_2  and  C_17
REMARK    4  A    between atoms: C_3  and  O_4
REMARK    5  A    between atoms: O_4  and  C_5
REMARK    6  A    between atoms: C_5  and  C_6
REMARK    7  A    between atoms: C_6  and  C_7
REMARK    8  A    between atoms: C_17  and  N_18
REMARK                            x       y       z     vdW  Elec       q    Type
REMARK                         _______ _______ _______ _____ _____    ______ ____
ROOT
ATOM      1  C   UNL     1       5.180   5.997  18.279  0.00  0.00    +0.000 C 
ENDROOT
BRANCH   1   2
ATOM      2  O   UNL     1       5.525   6.497  16.985  0.00  0.00    +0.000 OA
BRANCH   2   3
ATOM      3  C   UNL     1       6.851   6.045  16.638  0.00  0.00    +0.000 C 
BRANCH   3   4
ATOM      4  C   UNL     1       6.898   4.519  16.751  0.00  0.00    +0.000 C 
BRANCH   4   5
ATOM      5  O   UNL     1       8.090   4.178  17.470  0.00  0.00    +0.000 OA
ATOM      6  H   UNL     1       8.074   3.207  17.541  0.00  0.00    +0.000 HD
ENDBRANCH   4   5
BRANCH   4   7
ATOM      7  C   UNL     1       6.870   3.872  15.345  0.00  0.00    +0.000 C 
BRANCH   7   8
ATOM      8  N   UNL     1       6.359   4.628  14.186  0.00  0.00    +0.000 NA
ATOM      9  C   UNL     1       5.289   3.960  13.442  0.00  0.00    +0.000 C 
ATOM     10  C   UNL     1       5.974   3.215  12.315  0.00  0.00    +0.000 C 
ATOM     11  C   UNL     1       7.140   4.119  11.958  0.00  0.00    +0.000 C 
ATOM     12  C   UNL     1       7.400   4.960  13.203  0.00  0.00    +0.000 C 
ENDBRANCH   7   8
ENDBRANCH   4   7
ENDBRANCH   3   4
ENDBRANCH   2   3
ENDBRANCH   1   2
BRANCH   1  13
ATOM     13  C   UNL     1       3.678   6.114  18.533  0.00  0.00    +0.000 C 
BRANCH  13  14
ATOM     14  C   UNL     1       3.029   4.798  19.033  0.00  0.00    +0.000 C 
ATOM     15  C   UNL     1       4.114   3.749  19.399  0.00  0.00    +0.000 C 
ATOM     16  C   UNL     1       3.476   2.453  19.917  0.00  0.00    +0.000 C 
ATOM     17  C   UNL     1       2.646   2.765  21.169  0.00  0.00    +0.000 C 
ATOM     18  C   UNL     1       1.540   3.778  20.828  0.00  0.00    +0.000 C 
ATOM     19  C   UNL     1       0.630   3.185  19.740  0.00  0.00    +0.000 C 
ATOM     20  C   UNL     1       1.451   2.879  18.479  0.00  0.00    +0.000 C 
ATOM     21  C   UNL     1       2.562   1.874  18.825  0.00  0.00    +0.000 C 
ATOM     22  C   UNL     1       2.090   4.179  17.961  0.00  0.00    +0.000 C 
ATOM     23  C   UNL     1       2.182   5.075  20.303  0.00  0.00    +0.000 C 
ENDBRANCH  13  14
ENDBRANCH   1  13
TORSDOF 8
ENDMDL
MODEL 3
REMARK VINA RESULT:      -7.1      1.411      2.569
REMARK  Name = 
REMARK  8 active torsions:
REMARK  status: ('A' for Active; 'I' for Inactive)
REMARK    1  A    between atoms: O_1  and  C_2
REMARK    2  A    between atoms: C_2  and  C_3
REMARK    3  A    between atoms: C_2  and  C_17
REMARK    4  A    between atoms: C_3  and  O_4
REMARK    5  A    between atoms: O_4  and  C_5
REMARK    6  A    between atoms: C_5  and  C_6
REMARK    7  A    between atoms: C_6  and  C_7
REMARK    8  A    between atoms: C_17  and  N_18
REMARK                            x       y       z     vdW  Elec       q    Type
REMARK                         _______ _______ _______ _____ _____    ______ ____
ROOT
ATOM      1  C   UNL     1       5.713   5.162  19.541  0.00  0.00    +0.000 C 
ENDROOT
BRANCH   1   2
ATOM      2  O   UNL     1       7.027   5.311  20.083  0.00  0.00    +0.000 OA
BRANCH   2   3
ATOM      3  C   UNL     1       7.937   5.688  19.030  0.00  0.00    +0.000 C 
BRANCH   3   4
ATOM      4  C   UNL     1       7.446   5.083  17.712  0.00  0.00    +0.000 C 
BRANCH   4   5
ATOM      5  O   UNL     1       8.332   4.008  17.375  0.00  0.00    +0.000 OA
ATOM      6  H   UNL     1       7.819   3.433  16.781  0.00  0.00    +0.000 HD
ENDBRANCH   4   5
BRANCH   4   7
ATOM      7  C   UNL     1       7.405   6.163  16.604  0.00  0.00    +0.000 C 
BRANCH   7   8
ATOM      8  N   UNL     1       6.514   6.004  15.440  0.00  0.00    +0.000 NA
ATOM      9  C   UNL     1       5.134   5.639  15.769  0.00  0.00    +0.000 C 
ATOM     10  C   UNL     1       5.076   4.128  15.682  0.00  0.00    +0.000 C 
ATOM     11  C   UNL     1       6.041   3.806  14.555  0.00  0.00    +0.000 C 
ATOM     12  C   UNL     1       6.987   5.000  14.477  0.00  0.00    +0.000 C 
ENDBRANCH   7   8
ENDBRANCH   4   7
ENDBRANCH   3   4
ENDBRANCH   2   3
ENDBRANCH   1   2
BRANCH   1  13
ATOM     13  C   UNL     1       5.206   3.730  19.708  0.00  0.00    +0.000 C 
BRANCH  13  14
ATOM     14  C   UNL     1       3.677   3.584  19.497  0.00  0.00    +0.000 C 
ATOM     15  C   UNL     1       3.371   2.623  18.315  0.00  0.00    +0.000 C 
ATOM     16  C   UNL     1       1.858   2.456  18.118  0.00  0.00    +0.000 C 
ATOM     17  C   UNL     1       1.243   1.878  19.398  0.00  0.00    +0.000 C 
ATOM     18  C   UNL     1       1.502   2.827  20.580  0.00  0.00    +0.000 C 
ATOM     19  C   UNL     1       0.872   4.196  20.277  0.00  0.00    +0.000 C 
ATOM     20  C   UNL     1       1.489   4.786  19.001  0.00  0.00    +0.000 C 
ATOM     21  C   UNL     1       1.237   3.831  17.823  0.00  0.00    +0.000 C 
ATOM     22  C   UNL     1       3.005   4.953  19.201  0.00  0.00    +0.000 C 
ATOM     23  C   UNL     1       3.020   2.998  20.774  0.00  0.00    +0.000 C 
ENDBRANCH  13  14
ENDBRANCH   1  13
TORSDOF 8
ENDMDL
MODEL 4
REMARK VINA RESULT:      -7.1      1.358      1.775
REMARK  Name = 
REMARK  8 active torsions:
REMARK  status: ('A' for Active; 'I' for Inactive)
REMARK    1  A    between atoms: O_1  and  C_2
REMARK    2  A    between atoms: C_2  and  C_3
REMARK    3  A    between atoms: C_2  and  C_17
REMARK    4  A    between atoms: C_3  and  O_4
REMARK    5  A    between atoms: O_4  and  C_5
REMARK    6  A    between atoms: C_5  and  C_6
REMARK    7  A    between atoms: C_6  and  C_7
REMARK    8  A    between atoms: C_17  and  N_18
REMARK                            x       y       z     vdW  Elec       q    Type
REMARK                         _______ _______ _______ _____ _____    ______ ____
ROOT
ATOM      1  C   UNL     1       5.816   4.775  19.474  0.00  0.00    +0.000 C 
ENDROOT
BRANCH   1   2
ATOM      2  O   UNL     1       6.802   5.699  19.937  0.00  0.00    +0.000 OA
BRANCH   2   3
ATOM      3  C   UNL     1       7.903   5.728  19.005  0.00  0.00    +0.000 C 
BRANCH   3   4
ATOM      4  C   UNL     1       7.461   5.065  17.697  0.00  0.00    +0.000 C 
BRANCH   4   5
ATOM      5  O   UNL     1       8.391   4.013  17.412  0.00  0.00    +0.000 OA
ATOM      6  H   UNL     1       8.392   3.931  16.442  0.00  0.00    +0.000 HD
ENDBRANCH   4   5
BRANCH   4   7
ATOM      7  C   UNL     1       7.405   6.109  16.555  0.00  0.00    +0.000 C 
BRANCH   7   8
ATOM      8  N   UNL     1       6.433   5.960  15.456  0.00  0.00    +0.000 NA
ATOM      9  C   UNL     1       5.087   5.568  15.876  0.00  0.00    +0.000 C 
ATOM     10  C   UNL     1       5.043   4.058  15.762  0.00  0.00    +0.000 C 
ATOM     11  C   UNL     1       5.927   3.773  14.562  0.00  0.00    +0.000 C 
ATOM     12  C   UNL     1       6.849   4.982  14.440  0.00  0.00    +0.000 C 
ENDBRANCH   7   8
ENDBRANCH   4   7
ENDBRANCH   3   4
ENDBRANCH   2   3
ENDBRANCH   1   2
BRANCH   1  13
ATOM     13  C   UNL     1       4.433   5.423  19.418  0.00  0.00    +0.000 C 
BRANCH  13  14
ATOM     14  C   UNL     1       3.266   4.412  19.553  0.00  0.00    +0.000 C 
ATOM     15  C   UNL     1       2.443   4.685  20.842  0.00  0.00    +0.000 C 
ATOM     16  C   UNL     1       1.272   3.701  20.966  0.00  0.00    +0.000 C 
ATOM     17  C   UNL     1       0.352   3.855  19.748  0.00  0.00    +0.000 C 
ATOM     18  C   UNL     1       1.133   3.557  18.459  0.00  0.00    +0.000 C 
ATOM     19  C   UNL     1       1.676   2.120  18.517  0.00  0.00    +0.000 C 
ATOM     20  C   UNL     1       2.607   1.960  19.728  0.00  0.00    +0.000 C 
ATOM     21  C   UNL     1       1.825   2.268  21.016  0.00  0.00    +0.000 C 
ATOM     22  C   UNL     1       3.780   2.947  19.601  0.00  0.00    +0.000 C 
ATOM     23  C   UNL     1       2.311   4.541  18.337  0.00  0.00    +0.000 C 
ENDBRANCH  13  14
ENDBRANCH   1  13
TORSDOF 8
ENDMDL
MODEL 5
REMARK VINA RESULT:      -7.1      0.797      1.821
REMARK  Name = 
REMARK  8 active torsions:
REMARK  status: ('A' for Active; 'I' for Inactive)
REMARK    1  A    between atoms: O_1  and  C_2
REMARK    2  A    between atoms: C_2  and  C_3
REMARK    3  A    between atoms: C_2  and  C_17
REMARK    4  A    between atoms: C_3  and  O_4
REMARK    5  A    between atoms: O_4  and  C_5
REMARK    6  A    between atoms: C_5  and  C_6
REMARK    7  A    between atoms: C_6  and  C_7
REMARK    8  A    between atoms: C_17  and  N_18
REMARK                            x       y       z     vdW  Elec       q    Type
REMARK                         _______ _______ _______ _____ _____    ______ ____
ROOT
ATOM      1  C   UNL     1       3.520   6.785  17.832  0.00  0.00    +0.000 C 
ENDROOT
BRANCH   1   2
ATOM      2  O   UNL     1       4.867   6.310  17.774  0.00  0.00    +0.000 OA
BRANCH   2   3
ATOM      3  C   UNL     1       5.132   5.792  16.454  0.00  0.00    +0.000 C 
BRANCH   3   4
ATOM      4  C   UNL     1       5.594   4.338  16.577  0.00  0.00    +0.000 C 
BRANCH   4   5
ATOM      5  O   UNL     1       6.464   4.257  17.713  0.00  0.00    +0.000 OA
ATOM      6  H   UNL     1       7.358   4.159  17.342  0.00  0.00    +0.000 HD
ENDBRANCH   4   5
BRANCH   4   7
ATOM      7  C   UNL     1       6.303   3.885  15.277  0.00  0.00    +0.000 C 
BRANCH   7   8
ATOM      8  N   UNL     1       6.047   4.584  14.005  0.00  0.00    +0.000 NA
ATOM      9  C   UNL     1       5.105   3.907  13.111  0.00  0.00    +0.000 C 
ATOM     10  C   UNL     1       5.955   3.074  12.173  0.00  0.00    +0.000 C 
ATOM     11  C   UNL     1       7.203   3.918  11.991  0.00  0.00    +0.000 C 
ATOM     12  C   UNL     1       7.264   4.824  13.217  0.00  0.00    +0.000 C 
ENDBRANCH   7   8
ENDBRANCH   4   7
ENDBRANCH   3   4
ENDBRANCH   2   3
ENDBRANCH   1   2
BRANCH   1  13
ATOM     13  C   UNL     1       2.881   6.471  19.184  0.00  0.00    +0.000 C 
BRANCH  13  14
ATOM     14  C   UNL     1       2.503   4.978  19.360  0.00  0.00    +0.000 C 
ATOM     15  C   UNL     1       2.032   4.363  18.013  0.00  0.00    +0.000 C 
ATOM     16  C   UNL     1       1.681   2.878  18.178  0.00  0.00    +0.000 C 
ATOM     17  C   UNL     1       2.920   2.117  18.664  0.00  0.00    +0.000 C 
ATOM     18  C   UNL     1       3.389   2.683  20.014  0.00  0.00    +0.000 C 
ATOM     19  C   UNL     1       2.257   2.537  21.044  0.00  0.00    +0.000 C 
ATOM     20  C   UNL     1       1.014   3.305  20.570  0.00  0.00    +0.000 C 
ATOM     21  C   UNL     1       0.554   2.743  19.215  0.00  0.00    +0.000 C 
ATOM     22  C   UNL     1       1.369   4.792  20.405  0.00  0.00    +0.000 C 
ATOM     23  C   UNL     1       3.736   4.174  19.849  0.00  0.00    +0.000 C 
ENDBRANCH  13  14
ENDBRANCH   1  13
TORSDOF 8
ENDMDL
MODEL 6
REMARK VINA RESULT:      -7.0      4.229      7.281
REMARK  Name = 
REMARK  8 active torsions:
REMARK  status: ('A' for Active; 'I' for Inactive)
REMARK    1  A    between atoms: O_1  and  C_2
REMARK    2  A    between atoms: C_2  and  C_3
REMARK    3  A    between atoms: C_2  and  C_17
REMARK    4  A    between atoms: C_3  and  O_4
REMARK    5  A    between atoms: O_4  and  C_5
REMARK    6  A    between atoms: C_5  and  C_6
REMARK    7  A    between atoms: C_6  and  C_7
REMARK    8  A    between atoms: C_17  and  N_18
REMARK                            x       y       z     vdW  Elec       q    Type
REMARK                         _______ _______ _______ _____ _____    ______ ____
ROOT
ATOM      1  C   UNL     1       2.280   7.678  18.426  0.00  0.00    +0.000 C 
ENDROOT
BRANCH   1   2
ATOM      2  O   UNL     1       2.220   8.681  17.409  0.00  0.00    +0.000 OA
BRANCH   2   3
ATOM      3  C   UNL     1       2.026   9.971  18.024  0.00  0.00    +0.000 C 
BRANCH   3   4
ATOM      4  C   UNL     1       0.689   9.968  18.770  0.00  0.00    +0.000 C 
BRANCH   4   5
ATOM      5  O   UNL     1      -0.350  10.110  17.794  0.00  0.00    +0.000 OA
ATOM      6  H   UNL     1       0.105  10.383  16.978  0.00  0.00    +0.000 HD
ENDBRANCH   4   5
BRANCH   4   7
ATOM      7  C   UNL     1       0.654  11.106  19.819  0.00  0.00    +0.000 C 
BRANCH   7   8
ATOM      8  N   UNL     1       0.948  10.824  21.236  0.00  0.00    +0.000 NA
ATOM      9  C   UNL     1       1.105   9.405  21.560  0.00  0.00    +0.000 C 
ATOM     10  C   UNL     1      -0.258   8.936  22.028  0.00  0.00    +0.000 C 
ATOM     11  C   UNL     1      -0.820  10.153  22.740  0.00  0.00    +0.000 C 
ATOM     12  C   UNL     1      -0.071  11.347  22.158  0.00  0.00    +0.000 C 
ENDBRANCH   7   8
ENDBRANCH   4   7
ENDBRANCH   3   4
ENDBRANCH   2   3
ENDBRANCH   1   2
BRANCH   1  13
ATOM     13  C   UNL     1       3.286   6.585  18.065  0.00  0.00    +0.000 C 
BRANCH  13  14
ATOM     14  C   UNL     1       2.877   5.176  18.565  0.00  0.00    +0.000 C 
ATOM     15  C   UNL     1       4.040   4.163  18.377  0.00  0.00    +0.000 C 
ATOM     16  C   UNL     1       3.648   2.772  18.894  0.00  0.00    +0.000 C 
ATOM     17  C   UNL     1       3.309   2.865  20.387  0.00  0.00    +0.000 C 
ATOM     18  C   UNL     1       2.137   3.837  20.600  0.00  0.00    +0.000 C 
ATOM     19  C   UNL     1       0.911   3.330  19.823  0.00  0.00    +0.000 C 
ATOM     20  C   UNL     1       1.239   3.243  18.325  0.00  0.00    +0.000 C 
ATOM     21  C   UNL     1       2.417   2.277  18.116  0.00  0.00    +0.000 C 
ATOM     22  C   UNL     1       1.631   4.638  17.809  0.00  0.00    +0.000 C 
ATOM     23  C   UNL     1       2.529   5.231  20.076  0.00  0.00    +0.000 C 
ENDBRANCH  13  14
ENDBRANCH   1  13
TORSDOF 8
ENDMDL
MODEL 7
REMARK VINA RESULT:      -6.9      1.537      2.660
REMARK  Name = 
REMARK  8 active torsions:
REMARK  status: ('A' for Active; 'I' for Inactive)
REMARK    1  A    between atoms: O_1  and  C_2
REMARK    2  A    between atoms: C_2  and  C_3
REMARK    3  A    between atoms: C_2  and  C_17
REMARK    4  A    between atoms: C_3  and  O_4
REMARK    5  A    between atoms: O_4  and  C_5
REMARK    6  A    between atoms: C_5  and  C_6
REMARK    7  A    between atoms: C_6  and  C_7
REMARK    8  A    between atoms: C_17  and  N_18
REMARK                            x       y       z     vdW  Elec       q    Type
REMARK                         _______ _______ _______ _____ _____    ______ ____
ROOT
ATOM      1  C   UNL     1       5.892   4.926  17.978  0.00  0.00    +0.000 C 
ENDROOT
BRANCH   1   2
ATOM      2  O   UNL     1       6.739   4.531  16.896  0.00  0.00    +0.000 OA
BRANCH   2   3
ATOM      3  C   UNL     1       5.978   3.741  15.960  0.00  0.00    +0.000 C 
BRANCH   3   4
ATOM      4  C   UNL     1       6.453   4.064  14.541  0.00  0.00    +0.000 C 
BRANCH   4   5
ATOM      5  O   UNL     1       6.835   5.445  14.517  0.00  0.00    +0.000 OA
ATOM      6  H   UNL     1       6.808   5.731  15.447  0.00  0.00    +0.000 HD
ENDBRANCH   4   5
BRANCH   4   7
ATOM      7  C   UNL     1       5.335   3.759  13.514  0.00  0.00    +0.000 C 
BRANCH   7   8
ATOM      8  N   UNL     1       5.646   3.674  12.075  0.00  0.00    +0.000 NA
ATOM      9  C   UNL     1       4.918   2.631  11.351  0.00  0.00    +0.000 C 
ATOM     10  C   UNL     1       5.829   1.421  11.345  0.00  0.00    +0.000 C 
ATOM     11  C   UNL     1       7.217   2.030  11.261  0.00  0.00    +0.000 C 
ATOM     12  C   UNL     1       7.072   3.449  11.800  0.00  0.00    +0.000 C 
ENDBRANCH   7   8
ENDBRANCH   4   7
ENDBRANCH   3   4
ENDBRANCH   2   3
ENDBRANCH   1   2
BRANCH   1  13
ATOM     13  C   UNL     1       4.436   5.038  17.527  0.00  0.00    +0.000 C 
BRANCH  13  14
ATOM     14  C   UNL     1       3.439   4.307  18.461  0.00  0.00    +0.000 C 
ATOM     15  C   UNL     1       3.891   2.843  18.717  0.00  0.00    +0.000 C 
ATOM     16  C   UNL     1       2.918   2.123  19.661  0.00  0.00    +0.000 C 
ATOM     17  C   UNL     1       2.871   2.868  21.001  0.00  0.00    +0.000 C 
ATOM     18  C   UNL     1       2.393   4.313  20.782  0.00  0.00    +0.000 C 
ATOM     19  C   UNL     1       0.991   4.292  20.153  0.00  0.00    +0.000 C 
ATOM     20  C   UNL     1       1.031   3.556  18.806  0.00  0.00    +0.000 C 
ATOM     21  C   UNL     1       1.518   2.114  19.026  0.00  0.00    +0.000 C 
ATOM     22  C   UNL     1       2.006   4.279  17.861  0.00  0.00    +0.000 C 
ATOM     23  C   UNL     1       3.366   5.033  19.830  0.00  0.00    +0.000 C 
ENDBRANCH  13  14
ENDBRANCH   1  13
TORSDOF 8
ENDMDL
MODEL 8
REMARK VINA RESULT:      -6.9      1.503      2.012
REMARK  Name = 
REMARK  8 active torsions:
REMARK  status: ('A' for Active; 'I' for Inactive)
REMARK    1  A    between atoms: O_1  and  C_2
REMARK    2  A    between atoms: C_2  and  C_3
REMARK    3  A    between atoms: C_2  and  C_17
REMARK    4  A    between atoms: C_3  and  O_4
REMARK    5  A    between atoms: O_4  and  C_5
REMARK    6  A    between atoms: C_5  and  C_6
REMARK    7  A    between atoms: C_6  and  C_7
REMARK    8  A    between atoms: C_17  and  N_18
REMARK                            x       y       z     vdW  Elec       q    Type
REMARK                         _______ _______ _______ _____ _____    ______ ____
ROOT
ATOM      1  C   UNL     1       5.926   4.943  18.079  0.00  0.00    +0.000 C 
ENDROOT
BRANCH   1   2
ATOM      2  O   UNL     1       6.726   4.751  16.911  0.00  0.00    +0.000 OA
BRANCH   2   3
ATOM      3  C   UNL     1       6.037   3.868  16.002  0.00  0.00    +0.000 C 
BRANCH   3   4
ATOM      4  C   UNL     1       6.497   4.170  14.574  0.00  0.00    +0.000 C 
BRANCH   4   5
ATOM      5  O   UNL     1       6.869   5.554  14.525  0.00  0.00    +0.000 OA
ATOM      6  H   UNL     1       6.117   6.003  14.100  0.00  0.00    +0.000 HD
ENDBRANCH   4   5
BRANCH   4   7
ATOM      7  C   UNL     1       5.372   3.841  13.563  0.00  0.00    +0.000 C 
BRANCH   7   8
ATOM      8  N   UNL     1       5.670   3.741  12.122  0.00  0.00    +0.000 NA
ATOM      9  C   UNL     1       4.890   2.732  11.403  0.00  0.00    +0.000 C 
ATOM     10  C   UNL     1       5.745   1.480  11.394  0.00  0.00    +0.000 C 
ATOM     11  C   UNL     1       7.158   2.024  11.300  0.00  0.00    +0.000 C 
ATOM     12  C   UNL     1       7.083   3.449  11.839  0.00  0.00    +0.000 C 
ENDBRANCH   7   8
ENDBRANCH   4   7
ENDBRANCH   3   4
ENDBRANCH   2   3
ENDBRANCH   1   2
BRANCH   1  13
ATOM     13  C   UNL     1       4.454   5.136  17.716  0.00  0.00    +0.000 C 
BRANCH  13  14
ATOM     14  C   UNL     1       3.480   4.350  18.630  0.00  0.00    +0.000 C 
ATOM     15  C   UNL     1       3.238   5.110  19.964  0.00  0.00    +0.000 C 
ATOM     16  C   UNL     1       2.255   4.347  20.862  0.00  0.00    +0.000 C 
ATOM     17  C   UNL     1       0.916   4.193  20.129  0.00  0.00    +0.000 C 
ATOM     18  C   UNL     1       1.121   3.414  18.819  0.00  0.00    +0.000 C 
ATOM     19  C   UNL     1       1.695   2.025  19.142  0.00  0.00    +0.000 C 
ATOM     20  C   UNL     1       3.041   2.169  19.868  0.00  0.00    +0.000 C 
ATOM     21  C   UNL     1       2.835   2.957  21.172  0.00  0.00    +0.000 C 
ATOM     22  C   UNL     1       4.024   2.934  18.966  0.00  0.00    +0.000 C 
ATOM     23  C   UNL     1       2.112   4.177  17.921  0.00  0.00    +0.000 C 
ENDBRANCH  13  14
ENDBRANCH   1  13
TORSDOF 8
ENDMDL
MODEL 9
REMARK VINA RESULT:      -6.9      1.472      2.359
REMARK  Name = 
REMARK  8 active torsions:
REMARK  status: ('A' for Active; 'I' for Inactive)
REMARK    1  A    between atoms: O_1  and  C_2
REMARK    2  A    between atoms: C_2  and  C_3
REMARK    3  A    between atoms: C_2  and  C_17
REMARK    4  A    between atoms: C_3  and  O_4
REMARK    5  A    between atoms: O_4  and  C_5
REMARK    6  A    between atoms: C_5  and  C_6
REMARK    7  A    between atoms: C_6  and  C_7
REMARK    8  A    between atoms: C_17  and  N_18
REMARK                            x       y       z     vdW  Elec       q    Type
REMARK                         _______ _______ _______ _____ _____    ______ ____
ROOT
ATOM      1  C   UNL     1       5.701   5.136  18.054  0.00  0.00    +0.000 C 
ENDROOT
BRANCH   1   2
ATOM      2  O   UNL     1       5.646   5.201  16.627  0.00  0.00    +0.000 OA
BRANCH   2   3
ATOM      3  C   UNL     1       6.201   3.991  16.073  0.00  0.00    +0.000 C 
BRANCH   3   4
ATOM      4  C   UNL     1       6.615   4.254  14.623  0.00  0.00    +0.000 C 
BRANCH   4   5
ATOM      5  O   UNL     1       6.822   5.665  14.484  0.00  0.00    +0.000 OA
ATOM      6  H   UNL     1       6.239   6.074  15.148  0.00  0.00    +0.000 HD
ENDBRANCH   4   5
BRANCH   4   7
ATOM      7  C   UNL     1       5.531   3.733  13.649  0.00  0.00    +0.000 C 
BRANCH   7   8
ATOM      8  N   UNL     1       5.784   3.707  12.197  0.00  0.00    +0.000 NA
ATOM      9  C   UNL     1       4.948   2.768  11.445  0.00  0.00    +0.000 C 
ATOM     10  C   UNL     1       5.758   1.492  11.338  0.00  0.00    +0.000 C 
ATOM     11  C   UNL     1       7.186   1.992  11.232  0.00  0.00    +0.000 C 
ATOM     12  C   UNL     1       7.177   3.385  11.854  0.00  0.00    +0.000 C 
ENDBRANCH   7   8
ENDBRANCH   4   7
ENDBRANCH   3   4
ENDBRANCH   2   3
ENDBRANCH   1   2
BRANCH   1  13
ATOM     13  C   UNL     1       4.431   5.707  18.682  0.00  0.00    +0.000 C 
BRANCH  13  14
ATOM     14  C   UNL     1       3.444   4.622  19.184  0.00  0.00    +0.000 C 
ATOM     15  C   UNL     1       2.411   4.261  18.081  0.00  0.00    +0.000 C 
ATOM     16  C   UNL     1       1.447   3.168  18.565  0.00  0.00    +0.000 C 
ATOM     17  C   UNL     1       2.249   1.911  18.923  0.00  0.00    +0.000 C 
ATOM     18  C   UNL     1       3.259   2.231  20.038  0.00  0.00    +0.000 C 
ATOM     19  C   UNL     1       2.501   2.730  21.278  0.00  0.00    +0.000 C 
ATOM     20  C   UNL     1       1.702   3.996  20.931  0.00  0.00    +0.000 C 
ATOM     21  C   UNL     1       0.700   3.675  19.809  0.00  0.00    +0.000 C 
ATOM     22  C   UNL     1       2.669   5.089  20.446  0.00  0.00    +0.000 C 
ATOM     23  C   UNL     1       4.221   3.331  19.554  0.00  0.00    +0.000 C 
ENDBRANCH  13  14
ENDBRANCH   1  13
TORSDOF 8
ENDMDL
