MODEL 1
REMARK VINA RESULT:      -9.3      0.000      0.000
REMARK  Name = 
REMARK  6 active torsions:
REMARK  status: ('A' for Active; 'I' for Inactive)
REMARK    1  A    between atoms: C_2  and  C_3
REMARK    2  A    between atoms: N_7  and  C_8
REMARK    3  A    between atoms: C_8  and  C_9
REMARK    4  A    between atoms: C_12  and  C_13
REMARK    5  A    between atoms: C_13  and  N_14
REMARK    6  A    between atoms: C_18  and  C_19
REMARK                            x       y       z     vdW  Elec       q    Type
REMARK                         _______ _______ _______ _____ _____    ______ ____
ROOT
ATOM      1  C   UNL     1       1.706   7.045  20.401  0.00  0.00    +0.000 A 
ATOM      2  C   UNL     1       2.138   7.664  19.219  0.00  0.00    +0.000 A 
ATOM      3  C   UNL     1       1.701   8.958  18.881  0.00  0.00    +0.000 A 
ATOM      4  C   UNL     1       0.824   9.663  19.717  0.00  0.00    +0.000 A 
ATOM      5  C   UNL     1       0.419   9.056  20.914  0.00  0.00    +0.000 A 
ATOM      6  C   UNL     1       0.855   7.769  21.250  0.00  0.00    +0.000 A 
ENDROOT
BRANCH   1   7
ATOM      7  C   UNL     1       2.038   5.603  20.735  0.00  0.00    +0.000 C 
BRANCH   7  12
ATOM      8  C   UNL     1       4.232   3.211  18.745  0.00  0.00    +0.000 C 
ATOM      9  C   UNL     1       3.140   2.251  18.224  0.00  0.00    +0.000 C 
ATOM     10  C   UNL     1       1.858   3.028  17.892  0.00  0.00    +0.000 C 
ATOM     11  C   UNL     1       1.386   3.914  19.053  0.00  0.00    +0.000 C 
ATOM     12  N   UNL     1       2.465   4.694  19.664  0.00  0.00    +0.000 NA
ATOM     13  C   UNL     1       3.644   3.898  19.989  0.00  0.00    +0.000 C 
BRANCH   8  15
ATOM     14  O   UNL     1       4.297   3.912  16.435  0.00  0.00    +0.000 OA
ATOM     15  C   UNL     1       4.705   4.121  17.585  0.00  0.00    +0.000 C 
ATOM     16  N   UNL     1       5.650   5.100  17.781  0.00  0.00    +0.000 N 
ATOM     17  C   UNL     1       6.010   5.992  16.694  0.00  0.00    +0.000 C 
ATOM     18  C   UNL     1       7.459   6.337  16.973  0.00  0.00    +0.000 C 
ATOM     19  C   UNL     1       7.536   6.354  18.492  0.00  0.00    +0.000 C 
ATOM     20  C   UNL     1       6.440   5.395  18.960  0.00  0.00    +0.000 C 
ENDBRANCH   8  15
ENDBRANCH   7  12
ENDBRANCH   1   7
BRANCH   4  21
ATOM     21  C   UNL     1       0.363  11.073  19.389  0.00  0.00    +0.000 C 
BRANCH  21  22
ATOM     22  N   UNL     1      -0.747  11.187  18.404  0.00  0.00    +0.000 NA
ATOM     23  C   UNL     1      -1.025   9.877  17.792  0.00  0.00    +0.000 C 
ATOM     24  C   UNL     1      -2.270   9.901  16.906  0.00  0.00    +0.000 C 
ATOM     25  C   UNL     1      -3.495  10.352  17.691  0.00  0.00    +0.000 C 
ATOM     26  C   UNL     1      -3.247  11.735  18.293  0.00  0.00    +0.000 C 
ATOM     27  C   UNL     1      -1.939  11.715  19.119  0.00  0.00    +0.000 C 
BRANCH  26  28
ATOM     28  C   UNL     1      -4.417  12.180  19.185  0.00  0.00    +0.000 C 
ATOM     29  O   UNL     1      -4.282  12.287  20.407  0.00  0.00    +0.000 OA
ATOM     30  N   UNL     1      -5.628  12.465  18.586  0.00  0.00    +0.000 N 
ATOM     31  C   UNL     1      -5.984  12.415  17.183  0.00  0.00    +0.000 C 
ATOM     32  C   UNL     1      -6.991  13.542  17.041  0.00  0.00    +0.000 C 
ATOM     33  C   UNL     1      -7.758  13.494  18.358  0.00  0.00    +0.000 C 
ATOM     34  C   UNL     1      -6.741  12.974  19.375  0.00  0.00    +0.000 C 
ENDBRANCH  26  28
ENDBRANCH  21  22
ENDBRANCH   4  21
TORSDOF 6
ENDMDL
MODEL 2
REMARK VINA RESULT:      -9.2      3.591      5.530
REMARK  Name = 
REMARK  6 active torsions:
REMARK  status: ('A' for Active; 'I' for Inactive)
REMARK    1  A    between atoms: C_2  and  C_3
REMARK    2  A    between atoms: N_7  and  C_8
REMARK    3  A    between atoms: C_8  and  C_9
REMARK    4  A    between atoms: C_12  and  C_13
REMARK    5  A    between atoms: C_13  and  N_14
REMARK    6  A    between atoms: C_18  and  C_19
REMARK                            x       y       z     vdW  Elec       q    Type
REMARK                         _______ _______ _______ _____ _____    ______ ____
ROOT
ATOM      1  C   UNL     1       2.326   8.027  18.645  0.00  0.00    +0.000 A 
ATOM      2  C   UNL     1       1.565   9.197  18.495  0.00  0.00    +0.000 A 
ATOM      3  C   UNL     1       0.728   9.650  19.530  0.00  0.00    +0.000 A 
ATOM      4  C   UNL     1       0.632   8.946  20.739  0.00  0.00    +0.000 A 
ATOM      5  C   UNL     1       1.418   7.796  20.900  0.00  0.00    +0.000 A 
ATOM      6  C   UNL     1       2.252   7.347  19.869  0.00  0.00    +0.000 A 
ENDROOT
BRANCH   1   7
ATOM      7  C   UNL     1       3.131   7.426  17.508  0.00  0.00    +0.000 C 
BRANCH   7  12
ATOM      8  C   UNL     1       4.452   3.858  17.625  0.00  0.00    +0.000 C 
ATOM      9  C   UNL     1       5.950   4.141  17.375  0.00  0.00    +0.000 C 
ATOM     10  C   UNL     1       6.371   5.444  18.069  0.00  0.00    +0.000 C 
ATOM     11  C   UNL     1       5.460   6.626  17.712  0.00  0.00    +0.000 C 
ATOM     12  N   UNL     1       4.033   6.300  17.779  0.00  0.00    +0.000 NA
ATOM     13  C   UNL     1       3.685   5.071  17.074  0.00  0.00    +0.000 C 
BRANCH   8  15
ATOM     14  O   UNL     1       5.193   3.063  19.783  0.00  0.00    +0.000 OA
ATOM     15  C   UNL     1       4.245   3.502  19.118  0.00  0.00    +0.000 C 
ATOM     16  N   UNL     1       3.003   3.565  19.705  0.00  0.00    +0.000 N 
ATOM     17  C   UNL     1       2.856   3.309  21.126  0.00  0.00    +0.000 C 
ATOM     18  C   UNL     1       1.463   2.723  21.245  0.00  0.00    +0.000 C 
ATOM     19  C   UNL     1       0.677   3.448  20.162  0.00  0.00    +0.000 C 
ATOM     20  C   UNL     1       1.711   3.824  19.101  0.00  0.00    +0.000 C 
ENDBRANCH   8  15
ENDBRANCH   7  12
ENDBRANCH   1   7
BRANCH   4  21
ATOM     21  C   UNL     1      -0.241   9.434  21.883  0.00  0.00    +0.000 C 
BRANCH  21  22
ATOM     22  N   UNL     1      -0.776  10.816  21.755  0.00  0.00    +0.000 NA
ATOM     23  C   UNL     1      -1.480  11.210  22.987  0.00  0.00    +0.000 C 
ATOM     24  C   UNL     1      -1.895  12.680  22.976  0.00  0.00    +0.000 C 
ATOM     25  C   UNL     1      -0.690  13.590  22.781  0.00  0.00    +0.000 C 
ATOM     26  C   UNL     1       0.027  13.233  21.479  0.00  0.00    +0.000 C 
ATOM     27  C   UNL     1       0.366  11.724  21.471  0.00  0.00    +0.000 C 
BRANCH  26  28
ATOM     28  C   UNL     1       1.313  14.056  21.300  0.00  0.00    +0.000 C 
ATOM     29  O   UNL     1       1.838  14.634  22.256  0.00  0.00    +0.000 OA
ATOM     30  N   UNL     1       1.876  14.128  20.042  0.00  0.00    +0.000 N 
ATOM     31  C   UNL     1       1.428  13.518  18.806  0.00  0.00    +0.000 C 
ATOM     32  C   UNL     1       2.725  13.218  18.078  0.00  0.00    +0.000 C 
ATOM     33  C   UNL     1       3.613  14.402  18.444  0.00  0.00    +0.000 C 
ATOM     34  C   UNL     1       3.141  14.820  19.836  0.00  0.00    +0.000 C 
ENDBRANCH  26  28
ENDBRANCH  21  22
ENDBRANCH   4  21
TORSDOF 6
ENDMDL
MODEL 3
REMARK VINA RESULT:      -9.1      2.265      3.034
REMARK  Name = 
REMARK  6 active torsions:
REMARK  status: ('A' for Active; 'I' for Inactive)
REMARK    1  A    between atoms: C_2  and  C_3
REMARK    2  A    between atoms: N_7  and  C_8
REMARK    3  A    between atoms: C_8  and  C_9
REMARK    4  A    between atoms: C_12  and  C_13
REMARK    5  A    between atoms: C_13  and  N_14
REMARK    6  A    between atoms: C_18  and  C_19
REMARK                            x       y       z     vdW  Elec       q    Type
REMARK                         _______ _______ _______ _____ _____    ______ ____
ROOT
ATOM      1  C   UNL     1       1.860   7.191  20.308  0.00  0.00    +0.000 A 
ATOM      2  C   UNL     1       2.197   7.606  19.010  0.00  0.00    +0.000 A 
ATOM      3  C   UNL     1       1.740   8.836  18.505  0.00  0.00    +0.000 A 
ATOM      4  C   UNL     1       0.939   9.682  19.284  0.00  0.00    +0.000 A 
ATOM      5  C   UNL     1       0.631   9.282  20.592  0.00  0.00    +0.000 A 
ATOM      6  C   UNL     1       1.087   8.058  21.095  0.00  0.00    +0.000 A 
ENDROOT
BRANCH   1   7
ATOM      7  C   UNL     1       2.210   5.815  20.842  0.00  0.00    +0.000 C 
BRANCH   7  12
ATOM      8  C   UNL     1       3.650   2.860  18.921  0.00  0.00    +0.000 C 
ATOM      9  C   UNL     1       2.403   1.948  18.902  0.00  0.00    +0.000 C 
ATOM     10  C   UNL     1       1.128   2.787  18.743  0.00  0.00    +0.000 C 
ATOM     11  C   UNL     1       1.035   3.923  19.771  0.00  0.00    +0.000 C 
ATOM     12  N   UNL     1       2.282   4.679  19.915  0.00  0.00    +0.000 NA
ATOM     13  C   UNL     1       3.456   3.831  20.097  0.00  0.00    +0.000 C 
BRANCH   8  15
ATOM     14  O   UNL     1       2.994   3.295  16.637  0.00  0.00    +0.000 OA
ATOM     15  C   UNL     1       3.850   3.476  17.515  0.00  0.00    +0.000 C 
ATOM     16  N   UNL     1       5.007   4.138  17.179  0.00  0.00    +0.000 N 
ATOM     17  C   UNL     1       5.130   4.778  15.882  0.00  0.00    +0.000 C 
ATOM     18  C   UNL     1       6.612   4.695  15.576  0.00  0.00    +0.000 C 
ATOM     19  C   UNL     1       7.266   4.827  16.943  0.00  0.00    +0.000 C 
ATOM     20  C   UNL     1       6.235   4.289  17.936  0.00  0.00    +0.000 C 
ENDBRANCH   8  15
ENDBRANCH   7  12
ENDBRANCH   1   7
BRANCH   4  21
ATOM     21  C   UNL     1       0.461  11.030  18.771  0.00  0.00    +0.000 C 
BRANCH  21  22
ATOM     22  N   UNL     1       0.160  12.055  19.807  0.00  0.00    +0.000 NA
ATOM     23  C   UNL     1       0.587  13.388  19.350  0.00  0.00    +0.000 C 
ATOM     24  C   UNL     1       0.141  14.500  20.299  0.00  0.00    +0.000 C 
ATOM     25  C   UNL     1      -1.371  14.497  20.477  0.00  0.00    +0.000 C 
ATOM     26  C   UNL     1      -1.831  13.137  21.003  0.00  0.00    +0.000 C 
ATOM     27  C   UNL     1      -1.302  12.017  20.076  0.00  0.00    +0.000 C 
BRANCH  26  28
ATOM     28  C   UNL     1      -3.363  13.057  21.093  0.00  0.00    +0.000 C 
ATOM     29  O   UNL     1      -4.053  12.905  20.081  0.00  0.00    +0.000 OA
ATOM     30  N   UNL     1      -3.954  13.150  22.337  0.00  0.00    +0.000 N 
ATOM     31  C   UNL     1      -3.327  13.315  23.633  0.00  0.00    +0.000 C 
ATOM     32  C   UNL     1      -4.246  12.542  24.562  0.00  0.00    +0.000 C 
ATOM     33  C   UNL     1      -5.632  12.807  23.984  0.00  0.00    +0.000 C 
ATOM     34  C   UNL     1      -5.394  12.992  22.485  0.00  0.00    +0.000 C 
ENDBRANCH  26  28
ENDBRANCH  21  22
ENDBRANCH   4  21
TORSDOF 6
ENDMDL
MODEL 4
REMARK VINA RESULT:      -9.1      3.532      5.839
REMARK  Name = 
REMARK  6 active torsions:
REMARK  status: ('A' for Active; 'I' for Inactive)
REMARK    1  A    between atoms: C_2  and  C_3
REMARK    2  A    between atoms: N_7  and  C_8
REMARK    3  A    between atoms: C_8  and  C_9
REMARK    4  A    between atoms: C_12  and  C_13
REMARK    5  A    between atoms: C_13  and  N_14
REMARK    6  A    between atoms: C_18  and  C_19
REMARK                            x       y       z     vdW  Elec       q    Type
REMARK                         _______ _______ _______ _____ _____    ______ ____
ROOT
ATOM      1  C   UNL     1       2.377   8.036  18.343  0.00  0.00    +0.000 A 
ATOM      2  C   UNL     1       2.293   7.537  19.652  0.00  0.00    +0.000 A 
ATOM      3  C   UNL     1       1.468   8.157  20.607  0.00  0.00    +0.000 A 
ATOM      4  C   UNL     1       0.707   9.287  20.278  0.00  0.00    +0.000 A 
ATOM      5  C   UNL     1       0.767   9.765  18.961  0.00  0.00    +0.000 A 
ATOM      6  C   UNL     1       1.587   9.147  18.010  0.00  0.00    +0.000 A 
ENDROOT
BRANCH   1   7
ATOM      7  C   UNL     1       3.357   7.488  17.322  0.00  0.00    +0.000 C 
BRANCH   7  12
ATOM      8  C   UNL     1       4.603   3.906  17.653  0.00  0.00    +0.000 C 
ATOM      9  C   UNL     1       6.117   4.155  17.475  0.00  0.00    +0.000 C 
ATOM     10  C   UNL     1       6.525   5.477  18.138  0.00  0.00    +0.000 C 
ATOM     11  C   UNL     1       5.656   6.659  17.685  0.00  0.00    +0.000 C 
ATOM     12  N   UNL     1       4.222   6.359  17.687  0.00  0.00    +0.000 NA
ATOM     13  C   UNL     1       3.890   5.108  17.013  0.00  0.00    +0.000 C 
BRANCH   8  15
ATOM     14  O   UNL     1       5.217   3.207  19.882  0.00  0.00    +0.000 OA
ATOM     15  C   UNL     1       4.309   3.615  19.145  0.00  0.00    +0.000 C 
ATOM     16  N   UNL     1       3.036   3.702  19.656  0.00  0.00    +0.000 N 
ATOM     17  C   UNL     1       2.805   3.507  21.075  0.00  0.00    +0.000 C 
ATOM     18  C   UNL     1       1.407   2.924  21.139  0.00  0.00    +0.000 C 
ATOM     19  C   UNL     1       0.686   3.600  19.982  0.00  0.00    +0.000 C 
ATOM     20  C   UNL     1       1.781   3.933  18.967  0.00  0.00    +0.000 C 
ENDBRANCH   8  15
ENDBRANCH   7  12
ENDBRANCH   1   7
BRANCH   4  21
ATOM     21  C   UNL     1      -0.216   9.954  21.284  0.00  0.00    +0.000 C 
BRANCH  21  22
ATOM     22  N   UNL     1      -0.451  11.411  21.092  0.00  0.00    +0.000 NA
ATOM     23  C   UNL     1      -1.285  11.944  22.181  0.00  0.00    +0.000 C 
ATOM     24  C   UNL     1      -1.410  13.466  22.127  0.00  0.00    +0.000 C 
ATOM     25  C   UNL     1      -0.041  14.132  22.180  0.00  0.00    +0.000 C 
ATOM     26  C   UNL     1       0.826  13.631  21.024  0.00  0.00    +0.000 C 
ATOM     27  C   UNL     1       0.874  12.085  21.044  0.00  0.00    +0.000 C 
BRANCH  26  28
ATOM     28  C   UNL     1       2.253  14.196  21.104  0.00  0.00    +0.000 C 
ATOM     29  O   UNL     1       2.927  14.080  22.132  0.00  0.00    +0.000 OA
ATOM     30  N   UNL     1       2.771  14.832  19.994  0.00  0.00    +0.000 N 
ATOM     31  C   UNL     1       2.154  15.058  18.703  0.00  0.00    +0.000 C 
ATOM     32  C   UNL     1       3.326  14.982  17.741  0.00  0.00    +0.000 C 
ATOM     33  C   UNL     1       4.465  15.622  18.527  0.00  0.00    +0.000 C 
ATOM     34  C   UNL     1       4.148  15.307  19.989  0.00  0.00    +0.000 C 
ENDBRANCH  26  28
ENDBRANCH  21  22
ENDBRANCH   4  21
TORSDOF 6
ENDMDL
MODEL 5
REMARK VINA RESULT:      -8.8      1.815      2.592
REMARK  Name = 
REMARK  6 active torsions:
REMARK  status: ('A' for Active; 'I' for Inactive)
REMARK    1  A    between atoms: C_2  and  C_3
REMARK    2  A    between atoms: N_7  and  C_8
REMARK    3  A    between atoms: C_8  and  C_9
REMARK    4  A    between atoms: C_12  and  C_13
REMARK    5  A    between atoms: C_13  and  N_14
REMARK    6  A    between atoms: C_18  and  C_19
REMARK                            x       y       z     vdW  Elec       q    Type
REMARK                         _______ _______ _______ _____ _____    ______ ____
ROOT
ATOM      1  C   UNL     1       1.809   7.139  20.269  0.00  0.00    +0.000 A 
ATOM      2  C   UNL     1       2.145   7.663  19.011  0.00  0.00    +0.000 A 
ATOM      3  C   UNL     1       1.725   8.951  18.631  0.00  0.00    +0.000 A 
ATOM      4  C   UNL     1       0.961   9.745  19.498  0.00  0.00    +0.000 A 
ATOM      5  C   UNL     1       0.655   9.233  20.767  0.00  0.00    +0.000 A 
ATOM      6  C   UNL     1       1.074   7.952  21.145  0.00  0.00    +0.000 A 
ENDROOT
BRANCH   1   7
ATOM      7  C   UNL     1       2.118   5.708  20.665  0.00  0.00    +0.000 C 
BRANCH   7  12
ATOM      8  C   UNL     1       4.214   3.158  18.768  0.00  0.00    +0.000 C 
ATOM      9  C   UNL     1       3.084   2.217  18.291  0.00  0.00    +0.000 C 
ATOM     10  C   UNL     1       1.830   3.026  17.932  0.00  0.00    +0.000 C 
ATOM     11  C   UNL     1       1.397   3.976  19.057  0.00  0.00    +0.000 C 
ATOM     12  N   UNL     1       2.507   4.741  19.631  0.00  0.00    +0.000 NA
ATOM     13  C   UNL     1       3.658   3.916  19.984  0.00  0.00    +0.000 C 
BRANCH   8  15
ATOM     14  O   UNL     1       4.360   3.704  16.420  0.00  0.00    +0.000 OA
ATOM     15  C   UNL     1       4.713   4.000  17.569  0.00  0.00    +0.000 C 
ATOM     16  N   UNL     1       5.625   5.015  17.737  0.00  0.00    +0.000 N 
ATOM     17  C   UNL     1       6.009   5.843  16.608  0.00  0.00    +0.000 C 
ATOM     18  C   UNL     1       7.437   6.244  16.922  0.00  0.00    +0.000 C 
ATOM     19  C   UNL     1       7.448   6.365  18.439  0.00  0.00    +0.000 C 
ATOM     20  C   UNL     1       6.357   5.410  18.925  0.00  0.00    +0.000 C 
ENDBRANCH   8  15
ENDBRANCH   7  12
ENDBRANCH   1   7
BRANCH   4  21
ATOM     21  C   UNL     1       0.523  11.150  19.121  0.00  0.00    +0.000 C 
BRANCH  21  22
ATOM     22  N   UNL     1      -0.082  11.961  20.213  0.00  0.00    +0.000 NA
ATOM     23  C   UNL     1       0.389  13.354  20.138  0.00  0.00    +0.000 C 
ATOM     24  C   UNL     1      -0.337  14.267  21.125  0.00  0.00    +0.000 C 
ATOM     25  C   UNL     1      -1.842  14.240  20.894  0.00  0.00    +0.000 C 
ATOM     26  C   UNL     1      -2.362  12.808  21.019  0.00  0.00    +0.000 C 
ATOM     27  C   UNL     1      -1.561  11.881  20.074  0.00  0.00    +0.000 C 
BRANCH  26  28
ATOM     28  C   UNL     1      -3.860  12.720  20.685  0.00  0.00    +0.000 C 
ATOM     29  O   UNL     1      -4.243  12.365  19.567  0.00  0.00    +0.000 OA
ATOM     30  N   UNL     1      -4.772  13.042  21.669  0.00  0.00    +0.000 N 
ATOM     31  C   UNL     1      -4.529  13.464  23.034  0.00  0.00    +0.000 C 
ATOM     32  C   UNL     1      -5.701  12.869  23.794  0.00  0.00    +0.000 C 
ATOM     33  C   UNL     1      -6.857  12.995  22.808  0.00  0.00    +0.000 C 
ATOM     34  C   UNL     1      -6.201  12.891  21.431  0.00  0.00    +0.000 C 
ENDBRANCH  26  28
ENDBRANCH  21  22
ENDBRANCH   4  21
TORSDOF 6
ENDMDL
MODEL 6
REMARK VINA RESULT:      -8.8      3.538      5.227
REMARK  Name = 
REMARK  6 active torsions:
REMARK  status: ('A' for Active; 'I' for Inactive)
REMARK    1  A    between atoms: C_2  and  C_3
REMARK    2  A    between atoms: N_7  and  C_8
REMARK    3  A    between atoms: C_8  and  C_9
REMARK    4  A    between atoms: C_12  and  C_13
REMARK    5  A    between atoms: C_13  and  N_14
REMARK    6  A    between atoms: C_18  and  C_19
REMARK                            x       y       z     vdW  Elec       q    Type
REMARK                         _______ _______ _______ _____ _____    ______ ____
ROOT
ATOM      1  C   UNL     1       2.243   7.999  18.738  0.00  0.00    +0.000 A 
ATOM      2  C   UNL     1       1.531   9.202  18.625  0.00  0.00    +0.000 A 
ATOM      3  C   UNL     1       0.783   9.701  19.707  0.00  0.00    +0.000 A 
ATOM      4  C   UNL     1       0.731   9.011  20.926  0.00  0.00    +0.000 A 
ATOM      5  C   UNL     1       1.471   7.826  21.048  0.00  0.00    +0.000 A 
ATOM      6  C   UNL     1       2.216   7.331  19.971  0.00  0.00    +0.000 A 
ENDROOT
BRANCH   1   7
ATOM      7  C   UNL     1       2.945   7.353  17.559  0.00  0.00    +0.000 C 
BRANCH   7  12
ATOM      8  C   UNL     1       4.336   3.809  17.625  0.00  0.00    +0.000 C 
ATOM      9  C   UNL     1       5.817   4.120  17.313  0.00  0.00    +0.000 C 
ATOM     10  C   UNL     1       6.242   5.431  17.987  0.00  0.00    +0.000 C 
ATOM     11  C   UNL     1       5.295   6.596  17.667  0.00  0.00    +0.000 C 
ATOM     12  N   UNL     1       3.879   6.244  17.794  0.00  0.00    +0.000 NA
ATOM     13  C   UNL     1       3.525   5.007  17.104  0.00  0.00    +0.000 C 
BRANCH   8  15
ATOM     14  O   UNL     1       5.178   3.023  19.748  0.00  0.00    +0.000 OA
ATOM     15  C   UNL     1       4.198   3.453  19.125  0.00  0.00    +0.000 C 
ATOM     16  N   UNL     1       2.982   3.505  19.766  0.00  0.00    +0.000 N 
ATOM     17  C   UNL     1       2.899   3.248  21.192  0.00  0.00    +0.000 C 
ATOM     18  C   UNL     1       1.519   2.649  21.373  0.00  0.00    +0.000 C 
ATOM     19  C   UNL     1       0.679   3.365  20.325  0.00  0.00    +0.000 C 
ATOM     20  C   UNL     1       1.662   3.751  19.219  0.00  0.00    +0.000 C 
ENDBRANCH   8  15
ENDBRANCH   7  12
ENDBRANCH   1   7
BRANCH   4  21
ATOM     21  C   UNL     1      -0.043   9.547  22.119  0.00  0.00    +0.000 C 
BRANCH  21  22
ATOM     22  N   UNL     1      -0.768  10.829  21.905  0.00  0.00    +0.000 NA
ATOM     23  C   UNL     1      -1.595  11.153  23.080  0.00  0.00    +0.000 C 
ATOM     24  C   UNL     1      -2.221  12.543  22.987  0.00  0.00    +0.000 C 
ATOM     25  C   UNL     1      -1.153  13.617  22.820  0.00  0.00    +0.000 C 
ATOM     26  C   UNL     1      -0.316  13.329  21.574  0.00  0.00    +0.000 C 
ATOM     27  C   UNL     1       0.243  11.888  21.646  0.00  0.00    +0.000 C 
BRANCH  26  28
ATOM     28  C   UNL     1       0.843  14.328  21.431  0.00  0.00    +0.000 C 
ATOM     29  O   UNL     1       1.906  14.162  22.035  0.00  0.00    +0.000 OA
ATOM     30  N   UNL     1       0.671  15.418  20.601  0.00  0.00    +0.000 N 
ATOM     31  C   UNL     1      -0.481  15.783  19.802  0.00  0.00    +0.000 C 
ATOM     32  C   UNL     1       0.137  16.445  18.584  0.00  0.00    +0.000 C 
ATOM     33  C   UNL     1       1.337  17.188  19.161  0.00  0.00    +0.000 C 
ATOM     34  C   UNL     1       1.768  16.346  20.362  0.00  0.00    +0.000 C 
ENDBRANCH  26  28
ENDBRANCH  21  22
ENDBRANCH   4  21
TORSDOF 6
ENDMDL
MODEL 7
REMARK VINA RESULT:      -8.7      3.285      3.831
REMARK  Name = 
REMARK  6 active torsions:
REMARK  status: ('A' for Active; 'I' for Inactive)
REMARK    1  A    between atoms: C_2  and  C_3
REMARK    2  A    between atoms: N_7  and  C_8
REMARK    3  A    between atoms: C_8  and  C_9
REMARK    4  A    between atoms: C_12  and  C_13
REMARK    5  A    between atoms: C_13  and  N_14
REMARK    6  A    between atoms: C_18  and  C_19
REMARK                            x       y       z     vdW  Elec       q    Type
REMARK                         _______ _______ _______ _____ _____    ______ ____
ROOT
ATOM      1  C   UNL     1       1.834   7.079  20.166  0.00  0.00    +0.000 A 
ATOM      2  C   UNL     1       2.234   7.396  18.858  0.00  0.00    +0.000 A 
ATOM      3  C   UNL     1       1.956   8.660  18.306  0.00  0.00    +0.000 A 
ATOM      4  C   UNL     1       1.276   9.636  19.048  0.00  0.00    +0.000 A 
ATOM      5  C   UNL     1       0.908   9.329  20.365  0.00  0.00    +0.000 A 
ATOM      6  C   UNL     1       1.185   8.072  20.914  0.00  0.00    +0.000 A 
ENDROOT
BRANCH   1   7
ATOM      7  C   UNL     1       1.986   5.688  20.750  0.00  0.00    +0.000 C 
BRANCH   7  12
ATOM      8  C   UNL     1       3.776   2.861  18.932  0.00  0.00    +0.000 C 
ATOM      9  C   UNL     1       2.631   1.824  18.901  0.00  0.00    +0.000 C 
ATOM     10  C   UNL     1       1.281   2.524  18.692  0.00  0.00    +0.000 C 
ATOM     11  C   UNL     1       1.043   3.664  19.691  0.00  0.00    +0.000 C 
ATOM     12  N   UNL     1       2.201   4.547  19.850  0.00  0.00    +0.000 NA
ATOM     13  C   UNL     1       3.450   3.829  20.081  0.00  0.00    +0.000 C 
BRANCH   8  15
ATOM     14  O   UNL     1       3.089   3.262  16.651  0.00  0.00    +0.000 OA
ATOM     15  C   UNL     1       3.950   3.467  17.518  0.00  0.00    +0.000 C 
ATOM     16  N   UNL     1       5.091   4.147  17.164  0.00  0.00    +0.000 N 
ATOM     17  C   UNL     1       5.189   4.777  15.860  0.00  0.00    +0.000 C 
ATOM     18  C   UNL     1       6.669   4.718  15.539  0.00  0.00    +0.000 C 
ATOM     19  C   UNL     1       7.335   4.875  16.899  0.00  0.00    +0.000 C 
ATOM     20  C   UNL     1       6.324   4.327  17.907  0.00  0.00    +0.000 C 
ENDBRANCH   8  15
ENDBRANCH   7  12
ENDBRANCH   1   7
BRANCH   4  21
ATOM     21  C   UNL     1       0.994  11.019  18.484  0.00  0.00    +0.000 C 
BRANCH  21  22
ATOM     22  N   UNL     1       1.554  12.165  19.251  0.00  0.00    +0.000 NA
ATOM     23  C   UNL     1       2.506  12.921  18.421  0.00  0.00    +0.000 C 
ATOM     24  C   UNL     1       2.976  14.207  19.098  0.00  0.00    +0.000 C 
ATOM     25  C   UNL     1       1.798  15.108  19.446  0.00  0.00    +0.000 C 
ATOM     26  C   UNL     1       0.820  14.359  20.352  0.00  0.00    +0.000 C 
ATOM     27  C   UNL     1       0.419  13.021  19.688  0.00  0.00    +0.000 C 
BRANCH  26  28
ATOM     28  C   UNL     1      -0.438  15.195  20.636  0.00  0.00    +0.000 C 
ATOM     29  O   UNL     1      -0.862  16.009  19.811  0.00  0.00    +0.000 OA
ATOM     30  N   UNL     1      -1.091  15.010  21.838  0.00  0.00    +0.000 N 
ATOM     31  C   UNL     1      -0.765  14.106  22.922  0.00  0.00    +0.000 C 
ATOM     32  C   UNL     1      -2.127  13.726  23.477  0.00  0.00    +0.000 C 
ATOM     33  C   UNL     1      -2.931  15.015  23.342  0.00  0.00    +0.000 C 
ATOM     34  C   UNL     1      -2.335  15.712  22.119  0.00  0.00    +0.000 C 
ENDBRANCH  26  28
ENDBRANCH  21  22
ENDBRANCH   4  21
TORSDOF 6
ENDMDL
MODEL 8
REMARK VINA RESULT:      -8.7      2.979      3.527
REMARK  Name = 
REMARK  6 active torsions:
REMARK  status: ('A' for Active; 'I' for Inactive)
REMARK    1  A    between atoms: C_2  and  C_3
REMARK    2  A    between atoms: N_7  and  C_8
REMARK    3  A    between atoms: C_8  and  C_9
REMARK    4  A    between atoms: C_12  and  C_13
REMARK    5  A    between atoms: C_13  and  N_14
REMARK    6  A    between atoms: C_18  and  C_19
REMARK                            x       y       z     vdW  Elec       q    Type
REMARK                         _______ _______ _______ _____ _____    ______ ____
ROOT
ATOM      1  C   UNL     1       1.788   7.046  20.188  0.00  0.00    +0.000 A 
ATOM      2  C   UNL     1       2.192   7.469  18.912  0.00  0.00    +0.000 A 
ATOM      3  C   UNL     1       1.920   8.775  18.467  0.00  0.00    +0.000 A 
ATOM      4  C   UNL     1       1.242   9.689  19.285  0.00  0.00    +0.000 A 
ATOM      5  C   UNL     1       0.870   9.276  20.572  0.00  0.00    +0.000 A 
ATOM      6  C   UNL     1       1.141   7.976  21.016  0.00  0.00    +0.000 A 
ENDROOT
BRANCH   1   7
ATOM      7  C   UNL     1       1.933   5.611  20.656  0.00  0.00    +0.000 C 
BRANCH   7  12
ATOM      8  C   UNL     1       4.178   3.022  18.996  0.00  0.00    +0.000 C 
ATOM      9  C   UNL     1       3.102   1.995  18.578  0.00  0.00    +0.000 C 
ATOM     10  C   UNL     1       1.819   2.713  18.139  0.00  0.00    +0.000 C 
ATOM     11  C   UNL     1       1.322   3.726  19.179  0.00  0.00    +0.000 C 
ATOM     12  N   UNL     1       2.385   4.585  19.706  0.00  0.00    +0.000 NA
ATOM     13  C   UNL     1       3.566   3.846  20.141  0.00  0.00    +0.000 C 
BRANCH   8  15
ATOM     14  O   UNL     1       4.315   3.408  16.616  0.00  0.00    +0.000 OA
ATOM     15  C   UNL     1       4.660   3.791  17.742  0.00  0.00    +0.000 C 
ATOM     16  N   UNL     1       5.549   4.836  17.839  0.00  0.00    +0.000 N 
ATOM     17  C   UNL     1       5.915   5.592  16.656  0.00  0.00    +0.000 C 
ATOM     18  C   UNL     1       7.332   6.047  16.941  0.00  0.00    +0.000 C 
ATOM     19  C   UNL     1       7.338   6.272  18.446  0.00  0.00    +0.000 C 
ATOM     20  C   UNL     1       6.269   5.328  18.997  0.00  0.00    +0.000 C 
ENDBRANCH   8  15
ENDBRANCH   7  12
ENDBRANCH   1   7
BRANCH   4  21
ATOM     21  C   UNL     1       0.967  11.115  18.837  0.00  0.00    +0.000 C 
BRANCH  21  22
ATOM     22  N   UNL     1       1.318  12.186  19.809  0.00  0.00    +0.000 NA
ATOM     23  C   UNL     1       2.202  13.181  19.179  0.00  0.00    +0.000 C 
ATOM     24  C   UNL     1       2.449  14.392  20.077  0.00  0.00    +0.000 C 
ATOM     25  C   UNL     1       1.140  15.066  20.465  0.00  0.00    +0.000 C 
ATOM     26  C   UNL     1       0.226  14.063  21.169  0.00  0.00    +0.000 C 
ATOM     27  C   UNL     1       0.053  12.807  20.282  0.00  0.00    +0.000 C 
BRANCH  26  28
ATOM     28  C   UNL     1      -1.150  14.674  21.479  0.00  0.00    +0.000 C 
ATOM     29  O   UNL     1      -1.550  15.676  20.881  0.00  0.00    +0.000 OA
ATOM     30  N   UNL     1      -1.935  14.070  22.440  0.00  0.00    +0.000 N 
ATOM     31  C   UNL     1      -1.656  12.892  23.237  0.00  0.00    +0.000 C 
ATOM     32  C   UNL     1      -3.025  12.261  23.413  0.00  0.00    +0.000 C 
ATOM     33  C   UNL     1      -3.951  13.466  23.543  0.00  0.00    +0.000 C 
ATOM     34  C   UNL     1      -3.281  14.557  22.708  0.00  0.00    +0.000 C 
ENDBRANCH  26  28
ENDBRANCH  21  22
ENDBRANCH   4  21
TORSDOF 6
ENDMDL
MODEL 9
REMARK VINA RESULT:      -8.7      5.067      9.474
REMARK  Name = 
REMARK  6 active torsions:
REMARK  status: ('A' for Active; 'I' for Inactive)
REMARK    1  A    between atoms: C_2  and  C_3
REMARK    2  A    between atoms: N_7  and  C_8
REMARK    3  A    between atoms: C_8  and  C_9
REMARK    4  A    between atoms: C_12  and  C_13
REMARK    5  A    between atoms: C_13  and  N_14
REMARK    6  A    between atoms: C_18  and  C_19
REMARK                            x       y       z     vdW  Elec       q    Type
REMARK                         _______ _______ _______ _____ _____    ______ ____
ROOT
ATOM      1  C   UNL     1       6.984   5.991  18.192  0.00  0.00    +0.000 A 
ATOM      2  C   UNL     1       6.483   6.923  17.270  0.00  0.00    +0.000 A 
ATOM      3  C   UNL     1       7.005   8.228  17.208  0.00  0.00    +0.000 A 
ATOM      4  C   UNL     1       8.040   8.630  18.063  0.00  0.00    +0.000 A 
ATOM      5  C   UNL     1       8.562   7.688  18.960  0.00  0.00    +0.000 A 
ATOM      6  C   UNL     1       8.043   6.389  19.021  0.00  0.00    +0.000 A 
ENDROOT
BRANCH   1   7
ATOM      7  C   UNL     1       6.358   4.623  18.390  0.00  0.00    +0.000 C 
BRANCH   7  12
ATOM      8  C   UNL     1       2.627   5.208  17.907  0.00  0.00    +0.000 C 
ATOM      9  C   UNL     1       2.112   3.786  18.221  0.00  0.00    +0.000 C 
ATOM     10  C   UNL     1       2.942   3.152  19.346  0.00  0.00    +0.000 C 
ATOM     11  C   UNL     1       4.452   3.206  19.071  0.00  0.00    +0.000 C 
ATOM     12  N   UNL     1       4.909   4.516  18.601  0.00  0.00    +0.000 NA
ATOM     13  C   UNL     1       4.104   5.054  17.508  0.00  0.00    +0.000 C 
BRANCH   8  15
ATOM     14  O   UNL     1       2.100   5.654  20.221  0.00  0.00    +0.000 OA
ATOM     15  C   UNL     1       2.305   6.140  19.100  0.00  0.00    +0.000 C 
ATOM     16  N   UNL     1       2.138   7.494  18.929  0.00  0.00    +0.000 N 
ATOM     17  C   UNL     1       1.922   8.352  20.079  0.00  0.00    +0.000 C 
ATOM     18  C   UNL     1       1.069   9.480  19.534  0.00  0.00    +0.000 C 
ATOM     19  C   UNL     1       1.567   9.645  18.105  0.00  0.00    +0.000 C 
ATOM     20  C   UNL     1       2.099   8.269  17.704  0.00  0.00    +0.000 C 
ENDBRANCH   8  15
ENDBRANCH   7  12
ENDBRANCH   1   7
BRANCH   4  21
ATOM     21  C   UNL     1       8.642  10.024  17.993  0.00  0.00    +0.000 C 
BRANCH  21  22
ATOM     22  N   UNL     1       9.456  10.445  19.165  0.00  0.00    +0.000 NA
ATOM     23  C   UNL     1      10.714  11.067  18.719  0.00  0.00    +0.000 C 
ATOM     24  C   UNL     1      11.504  11.676  19.877  0.00  0.00    +0.000 C 
ATOM     25  C   UNL     1      10.676  12.713  20.623  0.00  0.00    +0.000 C 
ATOM     26  C   UNL     1       9.387  12.075  21.141  0.00  0.00    +0.000 C 
ATOM     27  C   UNL     1       8.640  11.392  19.971  0.00  0.00    +0.000 C 
BRANCH  26  28
ATOM     28  C   UNL     1       8.470  13.115  21.805  0.00  0.00    +0.000 C 
ATOM     29  O   UNL     1       8.216  14.187  21.250  0.00  0.00    +0.000 OA
ATOM     30  N   UNL     1       7.929  12.818  23.040  0.00  0.00    +0.000 N 
ATOM     31  C   UNL     1       8.091  11.624  23.844  0.00  0.00    +0.000 C 
ATOM     32  C   UNL     1       6.749  11.490  24.539  0.00  0.00    +0.000 C 
ATOM     33  C   UNL     1       6.350  12.936  24.812  0.00  0.00    +0.000 C 
ATOM     34  C   UNL     1       6.985  13.731  23.671  0.00  0.00    +0.000 C 
ENDBRANCH  26  28
ENDBRANCH  21  22
ENDBRANCH   4  21
TORSDOF 6
ENDMDL
