MODEL 1
REMARK VINA RESULT:      -7.0      0.000      0.000
REMARK  Name = 
REMARK  4 active torsions:
REMARK  status: ('A' for Active; 'I' for Inactive)
REMARK    1  A    between atoms: C_4  and  C_5
REMARK    2  A    between atoms: C_8  and  C_9
REMARK    3  A    between atoms: C_9  and  S_10
REMARK    4  A    between atoms: S_10  and  C_11
REMARK                            x       y       z     vdW  Elec       q    Type
REMARK                         _______ _______ _______ _____ _____    ______ ____
ROOT
ATOM      1  C   UNL     1       1.904   7.676  19.633  0.00  0.00    +0.000 A 
ATOM      2  N   UNL     1       2.569   7.946  18.526  0.00  0.00    +0.000 NA
ATOM      3  C   UNL     1       3.084   6.785  17.982  0.00  0.00    +0.000 A 
ATOM      4  C   UNL     1       2.834   5.627  18.688  0.00  0.00    +0.000 A 
ATOM      5  S   UNL     1       1.974   6.023  20.120  0.00  0.00    +0.000 S 
ENDROOT
BRANCH   1   9
ATOM      6  C   UNL     1      -0.126  10.567  22.067  0.00  0.00    +0.000 A 
ATOM      7  C   UNL     1      -0.122  10.718  20.683  0.00  0.00    +0.000 A 
ATOM      8  C   UNL     1       0.533   9.782  19.880  0.00  0.00    +0.000 A 
ATOM      9  C   UNL     1       1.193   8.678  20.447  0.00  0.00    +0.000 A 
ATOM     10  C   UNL     1       1.190   8.552  21.845  0.00  0.00    +0.000 A 
ATOM     11  C   UNL     1       0.531   9.486  22.649  0.00  0.00    +0.000 A 
ENDBRANCH   1   9
BRANCH   4  12
ATOM     12  C   UNL     1       3.246   4.223  18.384  0.00  0.00    +0.000 C 
BRANCH  12  13
ATOM     13  S   UNL     1       4.875   3.832  19.116  0.00  0.00    +0.000 S 
BRANCH  13  14
ATOM     14  C   UNL     1       5.926   4.847  18.120  0.00  0.00    +0.000 A 
ATOM     15  N   UNL     1       6.588   5.882  18.678  0.00  0.00    +0.000 NA
ATOM     16  C   UNL     1       7.369   6.627  17.885  0.00  0.00    +0.000 A 
ATOM     17  N   UNL     1       7.582   6.475  16.576  0.00  0.00    +0.000 NA
ATOM     18  C   UNL     1       6.905   5.436  16.060  0.00  0.00    +0.000 A 
ATOM     19  S   UNL     1       7.033   5.056  14.403  0.00  0.00    +0.000 S 
ATOM     20  C   UNL     1       5.971   3.727  14.564  0.00  0.00    +0.000 A 
ATOM     21  C   UNL     1       5.523   3.581  15.858  0.00  0.00    +0.000 A 
ATOM     22  C   UNL     1       6.064   4.576  16.750  0.00  0.00    +0.000 A 
ENDBRANCH  13  14
ENDBRANCH  12  13
ENDBRANCH   4  12
TORSDOF 4
ENDMDL
MODEL 2
REMARK VINA RESULT:      -7.0      0.637      1.208
REMARK  Name = 
REMARK  4 active torsions:
REMARK  status: ('A' for Active; 'I' for Inactive)
REMARK    1  A    between atoms: C_4  and  C_5
REMARK    2  A    between atoms: C_8  and  C_9
REMARK    3  A    between atoms: C_9  and  S_10
REMARK    4  A    between atoms: S_10  and  C_11
REMARK                            x       y       z     vdW  Elec       q    Type
REMARK                         _______ _______ _______ _____ _____    ______ ____
ROOT
ATOM      1  C   UNL     1       1.725   7.704  19.901  0.00  0.00    +0.000 A 
ATOM      2  N   UNL     1       2.350   7.961  18.767  0.00  0.00    +0.000 NA
ATOM      3  C   UNL     1       2.819   6.791  18.203  0.00  0.00    +0.000 A 
ATOM      4  C   UNL     1       2.574   5.637  18.918  0.00  0.00    +0.000 A 
ATOM      5  S   UNL     1       1.781   6.048  20.383  0.00  0.00    +0.000 S 
ENDROOT
BRANCH   1   9
ATOM      6  C   UNL     1      -0.224  10.686  22.289  0.00  0.00    +0.000 A 
ATOM      7  C   UNL     1       0.338   9.573  22.907  0.00  0.00    +0.000 A 
ATOM      8  C   UNL     1       0.977   8.596  22.141  0.00  0.00    +0.000 A 
ATOM      9  C   UNL     1       1.068   8.718  20.743  0.00  0.00    +0.000 A 
ATOM     10  C   UNL     1       0.482   9.840  20.138  0.00  0.00    +0.000 A 
ATOM     11  C   UNL     1      -0.155  10.820  20.905  0.00  0.00    +0.000 A 
ENDBRANCH   1   9
BRANCH   4  12
ATOM     12  C   UNL     1       2.946   4.225  18.597  0.00  0.00    +0.000 C 
BRANCH  12  13
ATOM     13  S   UNL     1       4.372   3.667  19.595  0.00  0.00    +0.000 S 
BRANCH  13  14
ATOM     14  C   UNL     1       5.685   4.539  18.794  0.00  0.00    +0.000 A 
ATOM     15  N   UNL     1       6.536   5.291  19.524  0.00  0.00    +0.000 NA
ATOM     16  C   UNL     1       7.513   5.939  18.875  0.00  0.00    +0.000 A 
ATOM     17  N   UNL     1       7.759   5.938  17.563  0.00  0.00    +0.000 NA
ATOM     18  C   UNL     1       6.890   5.180  16.874  0.00  0.00    +0.000 A 
ATOM     19  S   UNL     1       7.021   5.033  15.181  0.00  0.00    +0.000 S 
ATOM     20  C   UNL     1       5.673   3.986  15.107  0.00  0.00    +0.000 A 
ATOM     21  C   UNL     1       5.129   3.760  16.352  0.00  0.00    +0.000 A 
ATOM     22  C   UNL     1       5.834   4.451  17.402  0.00  0.00    +0.000 A 
ENDBRANCH  13  14
ENDBRANCH  12  13
ENDBRANCH   4  12
TORSDOF 4
ENDMDL
MODEL 3
REMARK VINA RESULT:      -6.9      1.872      8.079
REMARK  Name = 
REMARK  4 active torsions:
REMARK  status: ('A' for Active; 'I' for Inactive)
REMARK    1  A    between atoms: C_4  and  C_5
REMARK    2  A    between atoms: C_8  and  C_9
REMARK    3  A    between atoms: C_9  and  S_10
REMARK    4  A    between atoms: S_10  and  C_11
REMARK                            x       y       z     vdW  Elec       q    Type
REMARK                         _______ _______ _______ _____ _____    ______ ____
ROOT
ATOM      1  C   UNL     1       6.291   5.275  15.820  0.00  0.00    +0.000 A 
ATOM      2  N   UNL     1       7.097   6.120  16.435  0.00  0.00    +0.000 NA
ATOM      3  C   UNL     1       6.661   6.343  17.728  0.00  0.00    +0.000 A 
ATOM      4  C   UNL     1       5.505   5.686  18.094  0.00  0.00    +0.000 A 
ATOM      5  S   UNL     1       4.913   4.806  16.745  0.00  0.00    +0.000 S 
ENDROOT
BRANCH   1   9
ATOM      6  C   UNL     1       6.925   3.884  11.813  0.00  0.00    +0.000 A 
ATOM      7  C   UNL     1       5.870   3.367  12.558  0.00  0.00    +0.000 A 
ATOM      8  C   UNL     1       5.652   3.814  13.863  0.00  0.00    +0.000 A 
ATOM      9  C   UNL     1       6.484   4.788  14.444  0.00  0.00    +0.000 A 
ATOM     10  C   UNL     1       7.550   5.286  13.680  0.00  0.00    +0.000 A 
ATOM     11  C   UNL     1       7.768   4.842  12.373  0.00  0.00    +0.000 A 
ENDBRANCH   1   9
BRANCH   4  12
ATOM     12  C   UNL     1       4.773   5.711  19.397  0.00  0.00    +0.000 C 
BRANCH  12  13
ATOM     13  S   UNL     1       2.975   5.479  19.156  0.00  0.00    +0.000 S 
BRANCH  13  14
ATOM     14  C   UNL     1       2.470   7.150  18.877  0.00  0.00    +0.000 A 
ATOM     15  N   UNL     1       2.776   7.760  17.713  0.00  0.00    +0.000 NA
ATOM     16  C   UNL     1       2.379   9.028  17.546  0.00  0.00    +0.000 A 
ATOM     17  N   UNL     1       1.701   9.789  18.409  0.00  0.00    +0.000 NA
ATOM     18  C   UNL     1       1.418   9.147  19.554  0.00  0.00    +0.000 A 
ATOM     19  S   UNL     1       0.554   9.931  20.796  0.00  0.00    +0.000 S 
ATOM     20  C   UNL     1       0.606   8.542  21.791  0.00  0.00    +0.000 A 
ATOM     21  C   UNL     1       1.277   7.502  21.186  0.00  0.00    +0.000 A 
ATOM     22  C   UNL     1       1.758   7.840  19.870  0.00  0.00    +0.000 A 
ENDBRANCH  13  14
ENDBRANCH  12  13
ENDBRANCH   4  12
TORSDOF 4
ENDMDL
MODEL 4
REMARK VINA RESULT:      -6.9      2.107      8.264
REMARK  Name = 
REMARK  4 active torsions:
REMARK  status: ('A' for Active; 'I' for Inactive)
REMARK    1  A    between atoms: C_4  and  C_5
REMARK    2  A    between atoms: C_8  and  C_9
REMARK    3  A    between atoms: C_9  and  S_10
REMARK    4  A    between atoms: S_10  and  C_11
REMARK                            x       y       z     vdW  Elec       q    Type
REMARK                         _______ _______ _______ _____ _____    ______ ____
ROOT
ATOM      1  C   UNL     1       5.539   4.511  15.837  0.00  0.00    +0.000 A 
ATOM      2  N   UNL     1       5.084   3.484  16.530  0.00  0.00    +0.000 NA
ATOM      3  C   UNL     1       4.606   3.907  17.755  0.00  0.00    +0.000 A 
ATOM      4  C   UNL     1       4.718   5.258  18.011  0.00  0.00    +0.000 A 
ATOM      5  S   UNL     1       5.511   6.011  16.688  0.00  0.00    +0.000 S 
ENDROOT
BRANCH   1   9
ATOM      6  C   UNL     1       7.195   4.286  11.886  0.00  0.00    +0.000 A 
ATOM      7  C   UNL     1       6.069   3.531  12.201  0.00  0.00    +0.000 A 
ATOM      8  C   UNL     1       5.519   3.597  13.483  0.00  0.00    +0.000 A 
ATOM      9  C   UNL     1       6.085   4.423  14.472  0.00  0.00    +0.000 A 
ATOM     10  C   UNL     1       7.228   5.165  14.138  0.00  0.00    +0.000 A 
ATOM     11  C   UNL     1       7.777   5.102  12.854  0.00  0.00    +0.000 A 
ENDBRANCH   1   9
BRANCH   4  12
ATOM     12  C   UNL     1       4.310   6.030  19.224  0.00  0.00    +0.000 C 
BRANCH  12  13
ATOM     13  S   UNL     1       2.501   5.962  19.480  0.00  0.00    +0.000 S 
BRANCH  13  14
ATOM     14  C   UNL     1       2.067   7.644  19.154  0.00  0.00    +0.000 A 
ATOM     15  N   UNL     1       2.368   8.197  17.960  0.00  0.00    +0.000 NA
ATOM     16  C   UNL     1       2.025   9.476  17.758  0.00  0.00    +0.000 A 
ATOM     17  N   UNL     1       1.408  10.299  18.610  0.00  0.00    +0.000 NA
ATOM     18  C   UNL     1       1.127   9.711  19.785  0.00  0.00    +0.000 A 
ATOM     19  S   UNL     1       0.336  10.578  21.020  0.00  0.00    +0.000 S 
ATOM     20  C   UNL     1       0.351   9.225  22.063  0.00  0.00    +0.000 A 
ATOM     21  C   UNL     1       0.956   8.133  21.479  0.00  0.00    +0.000 A 
ATOM     22  C   UNL     1       1.415   8.401  20.140  0.00  0.00    +0.000 A 
ENDBRANCH  13  14
ENDBRANCH  12  13
ENDBRANCH   4  12
TORSDOF 4
ENDMDL
MODEL 5
REMARK VINA RESULT:      -6.8      3.594      8.665
REMARK  Name = 
REMARK  4 active torsions:
REMARK  status: ('A' for Active; 'I' for Inactive)
REMARK    1  A    between atoms: C_4  and  C_5
REMARK    2  A    between atoms: C_8  and  C_9
REMARK    3  A    between atoms: C_9  and  S_10
REMARK    4  A    between atoms: S_10  and  C_11
REMARK                            x       y       z     vdW  Elec       q    Type
REMARK                         _______ _______ _______ _____ _____    ______ ____
ROOT
ATOM      1  C   UNL     1       3.047   6.604  18.534  0.00  0.00    +0.000 A 
ATOM      2  N   UNL     1       2.813   6.151  19.751  0.00  0.00    +0.000 NA
ATOM      3  C   UNL     1       2.002   7.031  20.443  0.00  0.00    +0.000 A 
ATOM      4  C   UNL     1       1.635   8.172  19.761  0.00  0.00    +0.000 A 
ATOM      5  S   UNL     1       2.388   8.167  18.219  0.00  0.00    +0.000 S 
ENDROOT
BRANCH   1   9
ATOM      6  C   UNL     1       5.404   4.607  15.559  0.00  0.00    +0.000 A 
ATOM      7  C   UNL     1       4.638   3.855  16.444  0.00  0.00    +0.000 A 
ATOM      8  C   UNL     1       3.864   4.493  17.416  0.00  0.00    +0.000 A 
ATOM      9  C   UNL     1       3.842   5.896  17.517  0.00  0.00    +0.000 A 
ATOM     10  C   UNL     1       4.633   6.635  16.623  0.00  0.00    +0.000 A 
ATOM     11  C   UNL     1       5.405   5.996  15.649  0.00  0.00    +0.000 A 
ENDBRANCH   1   9
BRANCH   4  12
ATOM     12  C   UNL     1       0.782   9.313  20.213  0.00  0.00    +0.000 C 
BRANCH  12  13
ATOM     13  S   UNL     1       0.835  10.699  19.022  0.00  0.00    +0.000 S 
BRANCH  13  14
ATOM     14  C   UNL     1      -0.811  11.323  19.181  0.00  0.00    +0.000 A 
ATOM     15  N   UNL     1      -1.114  12.176  20.183  0.00  0.00    +0.000 NA
ATOM     16  C   UNL     1      -2.375  12.619  20.269  0.00  0.00    +0.000 A 
ATOM     17  N   UNL     1      -3.401  12.316  19.470  0.00  0.00    +0.000 NA
ATOM     18  C   UNL     1      -3.059  11.465  18.488  0.00  0.00    +0.000 A 
ATOM     19  S   UNL     1      -4.215  10.945  17.349  0.00  0.00    +0.000 S 
ATOM     20  C   UNL     1      -3.064   9.987  16.527  0.00  0.00    +0.000 A 
ATOM     21  C   UNL     1      -1.821  10.058  17.117  0.00  0.00    +0.000 A 
ATOM     22  C   UNL     1      -1.800  10.924  18.269  0.00  0.00    +0.000 A 
ENDBRANCH  13  14
ENDBRANCH  12  13
ENDBRANCH   4  12
TORSDOF 4
ENDMDL
MODEL 6
REMARK VINA RESULT:      -6.8      2.097      8.271
REMARK  Name = 
REMARK  4 active torsions:
REMARK  status: ('A' for Active; 'I' for Inactive)
REMARK    1  A    between atoms: C_4  and  C_5
REMARK    2  A    between atoms: C_8  and  C_9
REMARK    3  A    between atoms: C_9  and  S_10
REMARK    4  A    between atoms: S_10  and  C_11
REMARK                            x       y       z     vdW  Elec       q    Type
REMARK                         _______ _______ _______ _____ _____    ______ ____
ROOT
ATOM      1  C   UNL     1       5.627   4.520  15.863  0.00  0.00    +0.000 A 
ATOM      2  N   UNL     1       5.180   3.490  16.558  0.00  0.00    +0.000 NA
ATOM      3  C   UNL     1       4.688   3.913  17.778  0.00  0.00    +0.000 A 
ATOM      4  C   UNL     1       4.781   5.266  18.028  0.00  0.00    +0.000 A 
ATOM      5  S   UNL     1       5.573   6.024  16.707  0.00  0.00    +0.000 S 
ENDROOT
BRANCH   1   9
ATOM      6  C   UNL     1       7.178   4.233  11.874  0.00  0.00    +0.000 A 
ATOM      7  C   UNL     1       7.796   5.079  12.791  0.00  0.00    +0.000 A 
ATOM      8  C   UNL     1       7.302   5.179  14.093  0.00  0.00    +0.000 A 
ATOM      9  C   UNL     1       6.183   4.432  14.502  0.00  0.00    +0.000 A 
ATOM     10  C   UNL     1       5.566   3.596  13.559  0.00  0.00    +0.000 A 
ATOM     11  C   UNL     1       6.061   3.493  12.256  0.00  0.00    +0.000 A 
ENDBRANCH   1   9
BRANCH   4  12
ATOM     12  C   UNL     1       4.355   6.039  19.234  0.00  0.00    +0.000 C 
BRANCH  12  13
ATOM     13  S   UNL     1       2.547   5.937  19.487  0.00  0.00    +0.000 S 
BRANCH  13  14
ATOM     14  C   UNL     1       2.082   7.611  19.155  0.00  0.00    +0.000 A 
ATOM     15  N   UNL     1       2.320   8.147  17.940  0.00  0.00    +0.000 NA
ATOM     16  C   UNL     1       1.956   9.419  17.734  0.00  0.00    +0.000 A 
ATOM     17  N   UNL     1       1.373  10.250  18.602  0.00  0.00    +0.000 NA
ATOM     18  C   UNL     1       1.155   9.679  19.798  0.00  0.00    +0.000 A 
ATOM     19  S   UNL     1       0.418  10.560  21.057  0.00  0.00    +0.000 S 
ATOM     20  C   UNL     1       0.496   9.224  22.119  0.00  0.00    +0.000 A 
ATOM     21  C   UNL     1       1.082   8.128  21.524  0.00  0.00    +0.000 A 
ATOM     22  C   UNL     1       1.472   8.378  20.160  0.00  0.00    +0.000 A 
ENDBRANCH  13  14
ENDBRANCH  12  13
ENDBRANCH   4  12
TORSDOF 4
ENDMDL
MODEL 7
REMARK VINA RESULT:      -6.8      4.133      9.159
REMARK  Name = 
REMARK  4 active torsions:
REMARK  status: ('A' for Active; 'I' for Inactive)
REMARK    1  A    between atoms: C_4  and  C_5
REMARK    2  A    between atoms: C_8  and  C_9
REMARK    3  A    between atoms: C_9  and  S_10
REMARK    4  A    between atoms: S_10  and  C_11
REMARK                            x       y       z     vdW  Elec       q    Type
REMARK                         _______ _______ _______ _____ _____    ______ ____
ROOT
ATOM      1  C   UNL     1       2.266   7.205  19.171  0.00  0.00    +0.000 A 
ATOM      2  N   UNL     1       1.916   7.557  20.393  0.00  0.00    +0.000 NA
ATOM      3  C   UNL     1       1.305   8.797  20.378  0.00  0.00    +0.000 A 
ATOM      4  C   UNL     1       1.210   9.405  19.144  0.00  0.00    +0.000 A 
ATOM      5  S   UNL     1       1.973   8.410  17.972  0.00  0.00    +0.000 S 
ENDROOT
BRANCH   1   9
ATOM      6  C   UNL     1       4.081   3.473  18.086  0.00  0.00    +0.000 A 
ATOM      7  C   UNL     1       4.727   4.312  18.989  0.00  0.00    +0.000 A 
ATOM      8  C   UNL     1       4.146   5.528  19.352  0.00  0.00    +0.000 A 
ATOM      9  C   UNL     1       2.906   5.925  18.820  0.00  0.00    +0.000 A 
ATOM     10  C   UNL     1       2.278   5.071  17.900  0.00  0.00    +0.000 A 
ATOM     11  C   UNL     1       2.858   3.852  17.539  0.00  0.00    +0.000 A 
ENDBRANCH   1   9
BRANCH   4  12
ATOM     12  C   UNL     1       0.620  10.730  18.783  0.00  0.00    +0.000 C 
BRANCH  12  13
ATOM     13  S   UNL     1      -0.979  11.001  19.628  0.00  0.00    +0.000 S 
BRANCH  13  14
ATOM     14  C   UNL     1      -2.088  10.908  18.254  0.00  0.00    +0.000 A 
ATOM     15  N   UNL     1      -1.701  10.291  17.118  0.00  0.00    +0.000 NA
ATOM     16  C   UNL     1      -2.572  10.248  16.101  0.00  0.00    +0.000 A 
ATOM     17  N   UNL     1      -3.806  10.755  16.064  0.00  0.00    +0.000 NA
ATOM     18  C   UNL     1      -4.151  11.362  17.212  0.00  0.00    +0.000 A 
ATOM     19  S   UNL     1      -5.688  12.077  17.386  0.00  0.00    +0.000 S 
ATOM     20  C   UNL     1      -5.347  12.565  18.987  0.00  0.00    +0.000 A 
ATOM     21  C   UNL     1      -4.079  12.193  19.378  0.00  0.00    +0.000 A 
ATOM     22  C   UNL     1      -3.364  11.483  18.348  0.00  0.00    +0.000 A 
ENDBRANCH  13  14
ENDBRANCH  12  13
ENDBRANCH   4  12
TORSDOF 4
ENDMDL
MODEL 8
REMARK VINA RESULT:      -6.8      1.884      8.074
REMARK  Name = 
REMARK  4 active torsions:
REMARK  status: ('A' for Active; 'I' for Inactive)
REMARK    1  A    between atoms: C_4  and  C_5
REMARK    2  A    between atoms: C_8  and  C_9
REMARK    3  A    between atoms: C_9  and  S_10
REMARK    4  A    between atoms: S_10  and  C_11
REMARK                            x       y       z     vdW  Elec       q    Type
REMARK                         _______ _______ _______ _____ _____    ______ ____
ROOT
ATOM      1  C   UNL     1       6.363   5.108  15.950  0.00  0.00    +0.000 A 
ATOM      2  N   UNL     1       7.306   5.612  16.725  0.00  0.00    +0.000 NA
ATOM      3  C   UNL     1       6.809   5.847  17.993  0.00  0.00    +0.000 A 
ATOM      4  C   UNL     1       5.476   5.546  18.182  0.00  0.00    +0.000 A 
ATOM      5  S   UNL     1       4.810   5.006  16.695  0.00  0.00    +0.000 S 
ENDROOT
BRANCH   1   9
ATOM      6  C   UNL     1       6.866   3.899  11.866  0.00  0.00    +0.000 A 
ATOM      7  C   UNL     1       7.723   4.852  12.409  0.00  0.00    +0.000 A 
ATOM      8  C   UNL     1       7.571   5.253  13.738  0.00  0.00    +0.000 A 
ATOM      9  C   UNL     1       6.561   4.704  14.548  0.00  0.00    +0.000 A 
ATOM     10  C   UNL     1       5.699   3.755  13.977  0.00  0.00    +0.000 A 
ATOM     11  C   UNL     1       5.853   3.351  12.648  0.00  0.00    +0.000 A 
ENDBRANCH   1   9
BRANCH   4  12
ATOM     12  C   UNL     1       4.638   5.684  19.412  0.00  0.00    +0.000 C 
BRANCH  12  13
ATOM     13  S   UNL     1       2.859   5.511  19.030  0.00  0.00    +0.000 S 
BRANCH  13  14
ATOM     14  C   UNL     1       2.411   7.208  18.815  0.00  0.00    +0.000 A 
ATOM     15  N   UNL     1       2.725   7.847  17.668  0.00  0.00    +0.000 NA
ATOM     16  C   UNL     1       2.371   9.133  17.550  0.00  0.00    +0.000 A 
ATOM     17  N   UNL     1       1.731   9.888  18.447  0.00  0.00    +0.000 NA
ATOM     18  C   UNL     1       1.439   9.216  19.573  0.00  0.00    +0.000 A 
ATOM     19  S   UNL     1       0.618   9.986  20.853  0.00  0.00    +0.000 S 
ATOM     20  C   UNL     1       0.632   8.563  21.799  0.00  0.00    +0.000 A 
ATOM     21  C   UNL     1       1.258   7.522  21.150  0.00  0.00    +0.000 A 
ATOM     22  C   UNL     1       1.736   7.887  19.840  0.00  0.00    +0.000 A 
ENDBRANCH  13  14
ENDBRANCH  12  13
ENDBRANCH   4  12
TORSDOF 4
ENDMDL
MODEL 9
REMARK VINA RESULT:      -6.8      4.045      9.070
REMARK  Name = 
REMARK  4 active torsions:
REMARK  status: ('A' for Active; 'I' for Inactive)
REMARK    1  A    between atoms: C_4  and  C_5
REMARK    2  A    between atoms: C_8  and  C_9
REMARK    3  A    between atoms: C_9  and  S_10
REMARK    4  A    between atoms: S_10  and  C_11
REMARK                            x       y       z     vdW  Elec       q    Type
REMARK                         _______ _______ _______ _____ _____    ______ ____
ROOT
ATOM      1  C   UNL     1       2.339   7.110  19.144  0.00  0.00    +0.000 A 
ATOM      2  N   UNL     1       1.890   7.389  20.353  0.00  0.00    +0.000 NA
ATOM      3  C   UNL     1       1.284   8.631  20.364  0.00  0.00    +0.000 A 
ATOM      4  C   UNL     1       1.291   9.314  19.165  0.00  0.00    +0.000 A 
ATOM      5  S   UNL     1       2.145   8.387  18.001  0.00  0.00    +0.000 S 
ENDROOT
BRANCH   1   9
ATOM      6  C   UNL     1       4.322   3.448  18.114  0.00  0.00    +0.000 A 
ATOM      7  C   UNL     1       3.067   3.723  17.577  0.00  0.00    +0.000 A 
ATOM      8  C   UNL     1       2.413   4.912  17.902  0.00  0.00    +0.000 A 
ATOM      9  C   UNL     1       3.003   5.850  18.769  0.00  0.00    +0.000 A 
ATOM     10  C   UNL     1       4.262   5.547  19.311  0.00  0.00    +0.000 A 
ATOM     11  C   UNL     1       4.919   4.358  18.983  0.00  0.00    +0.000 A 
ENDBRANCH   1   9
BRANCH   4  12
ATOM     12  C   UNL     1       0.733  10.662  18.839  0.00  0.00    +0.000 C 
BRANCH  12  13
ATOM     13  S   UNL     1      -0.856  10.951  19.694  0.00  0.00    +0.000 S 
BRANCH  13  14
ATOM     14  C   UNL     1      -1.980  10.823  18.335  0.00  0.00    +0.000 A 
ATOM     15  N   UNL     1      -1.612  10.160  17.219  0.00  0.00    +0.000 NA
ATOM     16  C   UNL     1      -2.492  10.092  16.211  0.00  0.00    +0.000 A 
ATOM     17  N   UNL     1      -3.721  10.612  16.167  0.00  0.00    +0.000 NA
ATOM     18  C   UNL     1      -4.048  11.263  17.296  0.00  0.00    +0.000 A 
ATOM     19  S   UNL     1      -5.575  12.003  17.458  0.00  0.00    +0.000 S 
ATOM     20  C   UNL     1      -5.212  12.544  19.038  0.00  0.00    +0.000 A 
ATOM     21  C   UNL     1      -3.945  12.172  19.430  0.00  0.00    +0.000 A 
ATOM     22  C   UNL     1      -3.248  11.416  18.419  0.00  0.00    +0.000 A 
ENDBRANCH  13  14
ENDBRANCH  12  13
ENDBRANCH   4  12
TORSDOF 4
ENDMDL
