MODEL 1
REMARK VINA RESULT:      -7.8      0.000      0.000
REMARK  Name = 
REMARK  9 active torsions:
REMARK  status: ('A' for Active; 'I' for Inactive)
REMARK    1  A    between atoms: C_1  and  O_2
REMARK    2  A    between atoms: O_2  and  C_3
REMARK    3  A    between atoms: C_6  and  C_7
REMARK    4  A    between atoms: C_7  and  C_8
REMARK    5  A    between atoms: C_8  and  C_9
REMARK    6  A    between atoms: C_15  and  O_16
REMARK    7  A    between atoms: O_16  and  C_17
REMARK    8  A    between atoms: C_18  and  O_19
REMARK    9  A    between atoms: O_19  and  C_20
REMARK                            x       y       z     vdW  Elec       q    Type
REMARK                         _______ _______ _______ _____ _____    ______ ____
ROOT
ATOM      1  C   UNL     1       6.675   5.835  18.434  0.00  0.00    +0.000 C 
ATOM      2  N   UNL     1       7.329   4.555  18.102  0.00  0.00    +0.000 NA
ATOM      3  C   UNL     1       7.124   4.383  16.669  0.00  0.00    +0.000 C 
ATOM      4  C   UNL     1       5.678   4.092  16.380  0.00  0.00    +0.000 C 
ATOM      5  C   UNL     1       4.702   4.687  17.386  0.00  0.00    +0.000 A 
ATOM      6  C   UNL     1       3.386   4.218  17.220  0.00  0.00    +0.000 A 
ATOM      7  C   UNL     1       2.459   4.328  18.219  0.00  0.00    +0.000 A 
ATOM      8  C   UNL     1       2.828   4.987  19.408  0.00  0.00    +0.000 A 
ATOM      9  C   UNL     1       4.132   5.583  19.557  0.00  0.00    +0.000 A 
ATOM     10  C   UNL     1       5.129   5.454  18.530  0.00  0.00    +0.000 A 
ATOM     11  H   UNL     1       8.300   4.525  18.368  0.00  0.00    +0.000 HD
ENDROOT
BRANCH   7  12
ATOM     12  O   UNL     1       1.376   3.527  17.998  0.00  0.00    +0.000 OA
ATOM     13  C   UNL     1       1.508   2.148  18.290  0.00  0.00    +0.000 C 
ENDBRANCH   7  12
BRANCH   8  14
ATOM     14  O   UNL     1       1.902   4.737  20.411  0.00  0.00    +0.000 OA
ATOM     15  C   UNL     1       2.172   3.830  21.460  0.00  0.00    +0.000 C 
ENDBRANCH   8  14
BRANCH   1  16
ATOM     16  C   UNL     1       7.955   6.849  18.482  0.00  0.00    +0.000 C 
BRANCH  16  17
ATOM     17  C   UNL     1       7.845   8.252  17.621  0.00  0.00    +0.000 C 
BRANCH  17  21
ATOM     18  C   UNL     1       9.573  11.973  19.208  0.00  0.00    +0.000 A 
ATOM     19  C   UNL     1       9.716  10.747  19.862  0.00  0.00    +0.000 A 
ATOM     20  C   UNL     1       9.160   9.579  19.340  0.00  0.00    +0.000 A 
ATOM     21  C   UNL     1       8.433   9.536  18.162  0.00  0.00    +0.000 A 
ATOM     22  C   UNL     1       8.273  10.809  17.494  0.00  0.00    +0.000 A 
ATOM     23  C   UNL     1       8.854  12.015  18.012  0.00  0.00    +0.000 A 
BRANCH  18  25
ATOM     24  C   UNL     1       9.491  14.273  19.848  0.00  0.00    +0.000 C 
ATOM     25  O   UNL     1      10.138  13.014  19.885  0.00  0.00    +0.000 OA
ENDBRANCH  18  25
ENDBRANCH  17  21
ENDBRANCH  16  17
ENDBRANCH   1  16
TORSDOF 6
ENDMDL
MODEL 2
REMARK VINA RESULT:      -7.7      3.153      7.311
REMARK  Name = 
REMARK  9 active torsions:
REMARK  status: ('A' for Active; 'I' for Inactive)
REMARK    1  A    between atoms: C_1  and  O_2
REMARK    2  A    between atoms: O_2  and  C_3
REMARK    3  A    between atoms: C_6  and  C_7
REMARK    4  A    between atoms: C_7  and  C_8
REMARK    5  A    between atoms: C_8  and  C_9
REMARK    6  A    between atoms: C_15  and  O_16
REMARK    7  A    between atoms: O_16  and  C_17
REMARK    8  A    between atoms: C_18  and  O_19
REMARK    9  A    between atoms: O_19  and  C_20
REMARK                            x       y       z     vdW  Elec       q    Type
REMARK                         _______ _______ _______ _____ _____    ______ ____
ROOT
ATOM      1  C   UNL     1       4.019   2.949  17.705  0.00  0.00    +0.000 C 
ATOM      2  N   UNL     1       4.801   2.403  18.831  0.00  0.00    +0.000 NA
ATOM      3  C   UNL     1       4.648   3.375  19.908  0.00  0.00    +0.000 C 
ATOM      4  C   UNL     1       5.392   4.638  19.581  0.00  0.00    +0.000 C 
ATOM      5  C   UNL     1       5.520   4.926  18.091  0.00  0.00    +0.000 A 
ATOM      6  C   UNL     1       6.403   5.985  17.809  0.00  0.00    +0.000 A 
ATOM      7  C   UNL     1       6.937   6.154  16.562  0.00  0.00    +0.000 A 
ATOM      8  C   UNL     1       6.532   5.281  15.533  0.00  0.00    +0.000 A 
ATOM      9  C   UNL     1       5.538   4.264  15.767  0.00  0.00    +0.000 A 
ATOM     10  C   UNL     1       4.985   4.053  17.077  0.00  0.00    +0.000 A 
ATOM     11  H   UNL     1       4.519   1.473  19.096  0.00  0.00    +0.000 HD
ENDROOT
BRANCH   7  12
ATOM     12  O   UNL     1       8.007   7.002  16.577  0.00  0.00    +0.000 OA
ATOM     13  C   UNL     1       7.993   8.061  17.517  0.00  0.00    +0.000 C 
ENDBRANCH   7  12
BRANCH   8  14
ATOM     14  O   UNL     1       7.384   5.384  14.443  0.00  0.00    +0.000 OA
ATOM     15  C   UNL     1       7.207   4.593  13.286  0.00  0.00    +0.000 C 
ENDBRANCH   8  14
BRANCH   1  16
ATOM     16  C   UNL     1       2.639   2.084  17.820  0.00  0.00    +0.000 C 
BRANCH  16  17
ATOM     17  C   UNL     1       1.337   2.819  18.518  0.00  0.00    +0.000 C 
BRANCH  17  21
ATOM     18  C   UNL     1       1.674   6.881  20.173  0.00  0.00    +0.000 A 
ATOM     19  C   UNL     1       1.281   5.789  20.952  0.00  0.00    +0.000 A 
ATOM     20  C   UNL     1       1.182   4.509  20.406  0.00  0.00    +0.000 A 
ATOM     21  C   UNL     1       1.452   4.219  19.079  0.00  0.00    +0.000 A 
ATOM     22  C   UNL     1       1.844   5.352  18.272  0.00  0.00    +0.000 A 
ATOM     23  C   UNL     1       1.966   6.672  18.824  0.00  0.00    +0.000 A 
BRANCH  18  25
ATOM     24  C   UNL     1       0.451   8.503  21.429  0.00  0.00    +0.000 C 
ATOM     25  O   UNL     1       1.669   8.061  20.858  0.00  0.00    +0.000 OA
ENDBRANCH  18  25
ENDBRANCH  17  21
ENDBRANCH  16  17
ENDBRANCH   1  16
TORSDOF 6
ENDMDL
MODEL 3
REMARK VINA RESULT:      -7.6      0.887      1.327
REMARK  Name = 
REMARK  9 active torsions:
REMARK  status: ('A' for Active; 'I' for Inactive)
REMARK    1  A    between atoms: C_1  and  O_2
REMARK    2  A    between atoms: O_2  and  C_3
REMARK    3  A    between atoms: C_6  and  C_7
REMARK    4  A    between atoms: C_7  and  C_8
REMARK    5  A    between atoms: C_8  and  C_9
REMARK    6  A    between atoms: C_15  and  O_16
REMARK    7  A    between atoms: O_16  and  C_17
REMARK    8  A    between atoms: C_18  and  O_19
REMARK    9  A    between atoms: O_19  and  C_20
REMARK                            x       y       z     vdW  Elec       q    Type
REMARK                         _______ _______ _______ _____ _____    ______ ____
ROOT
ATOM      1  C   UNL     1       6.451   6.611  17.522  0.00  0.00    +0.000 C 
ATOM      2  N   UNL     1       7.367   5.470  17.712  0.00  0.00    +0.000 NA
ATOM      3  C   UNL     1       7.377   4.772  16.431  0.00  0.00    +0.000 C 
ATOM      4  C   UNL     1       6.058   4.093  16.197  0.00  0.00    +0.000 C 
ATOM      5  C   UNL     1       4.871   4.771  16.868  0.00  0.00    +0.000 A 
ATOM      6  C   UNL     1       3.696   3.999  16.819  0.00  0.00    +0.000 A 
ATOM      7  C   UNL     1       2.648   4.242  17.662  0.00  0.00    +0.000 A 
ATOM      8  C   UNL     1       2.737   5.336  18.547  0.00  0.00    +0.000 A 
ATOM      9  C   UNL     1       3.879   6.215  18.533  0.00  0.00    +0.000 A 
ATOM     10  C   UNL     1       5.003   5.959  17.673  0.00  0.00    +0.000 A 
ATOM     11  H   UNL     1       8.287   5.746  18.018  0.00  0.00    +0.000 HD
ENDROOT
BRANCH   7  12
ATOM     12  O   UNL     1       1.768   3.199  17.695  0.00  0.00    +0.000 OA
ATOM     13  C   UNL     1       2.216   1.979  18.257  0.00  0.00    +0.000 C 
ENDBRANCH   7  12
BRANCH   8  14
ATOM     14  O   UNL     1       1.757   5.252  19.525  0.00  0.00    +0.000 OA
ATOM     15  C   UNL     1       2.059   4.855  20.846  0.00  0.00    +0.000 C 
ENDBRANCH   8  14
BRANCH   1  16
ATOM     16  C   UNL     1       7.504   7.832  17.261  0.00  0.00    +0.000 C 
BRANCH  16  17
ATOM     17  C   UNL     1       8.432   8.321  18.535  0.00  0.00    +0.000 C 
BRANCH  17  21
ATOM     18  C   UNL     1       9.563  12.551  18.961  0.00  0.00    +0.000 A 
ATOM     19  C   UNL     1       8.865  12.075  17.848  0.00  0.00    +0.000 A 
ATOM     20  C   UNL     1       8.515  10.729  17.734  0.00  0.00    +0.000 A 
ATOM     21  C   UNL     1       8.827   9.773  18.687  0.00  0.00    +0.000 A 
ATOM     22  C   UNL     1       9.563  10.265  19.830  0.00  0.00    +0.000 A 
ATOM     23  C   UNL     1       9.914  11.650  19.968  0.00  0.00    +0.000 A 
BRANCH  18  25
ATOM     24  C   UNL     1       8.796  14.812  18.888  0.00  0.00    +0.000 C 
ATOM     25  O   UNL     1       9.862  13.879  18.881  0.00  0.00    +0.000 OA
ENDBRANCH  18  25
ENDBRANCH  17  21
ENDBRANCH  16  17
ENDBRANCH   1  16
TORSDOF 6
ENDMDL
MODEL 4
REMARK VINA RESULT:      -7.6      1.086      1.086
REMARK  Name = 
REMARK  9 active torsions:
REMARK  status: ('A' for Active; 'I' for Inactive)
REMARK    1  A    between atoms: C_1  and  O_2
REMARK    2  A    between atoms: O_2  and  C_3
REMARK    3  A    between atoms: C_6  and  C_7
REMARK    4  A    between atoms: C_7  and  C_8
REMARK    5  A    between atoms: C_8  and  C_9
REMARK    6  A    between atoms: C_15  and  O_16
REMARK    7  A    between atoms: O_16  and  C_17
REMARK    8  A    between atoms: C_18  and  O_19
REMARK    9  A    between atoms: O_19  and  C_20
REMARK                            x       y       z     vdW  Elec       q    Type
REMARK                         _______ _______ _______ _____ _____    ______ ____
ROOT
ATOM      1  C   UNL     1       6.928   5.671  18.189  0.00  0.00    +0.000 C 
ATOM      2  N   UNL     1       7.559   4.908  17.095  0.00  0.00    +0.000 NA
ATOM      3  C   UNL     1       6.850   5.317  15.888  0.00  0.00    +0.000 C 
ATOM      4  C   UNL     1       5.450   4.773  15.895  0.00  0.00    +0.000 C 
ATOM      5  C   UNL     1       4.861   4.566  17.284  0.00  0.00    +0.000 A 
ATOM      6  C   UNL     1       3.647   3.854  17.268  0.00  0.00    +0.000 A 
ATOM      7  C   UNL     1       3.160   3.251  18.393  0.00  0.00    +0.000 A 
ATOM      8  C   UNL     1       3.867   3.411  19.602  0.00  0.00    +0.000 A 
ATOM      9  C   UNL     1       5.048   4.234  19.671  0.00  0.00    +0.000 A 
ATOM     10  C   UNL     1       5.591   4.855  18.493  0.00  0.00    +0.000 A 
ATOM     11  H   UNL     1       8.554   5.051  17.035  0.00  0.00    +0.000 HD
ENDROOT
BRANCH   7  12
ATOM     12  O   UNL     1       2.180   2.346  18.102  0.00  0.00    +0.000 OA
ATOM     13  C   UNL     1       0.858   2.656  18.502  0.00  0.00    +0.000 C 
ENDBRANCH   7  12
BRANCH   8  14
ATOM     14  O   UNL     1       3.427   2.497  20.548  0.00  0.00    +0.000 OA
ATOM     15  C   UNL     1       2.555   2.875  21.594  0.00  0.00    +0.000 C 
ENDBRANCH   8  14
BRANCH   1  16
ATOM     16  C   UNL     1       7.996   6.889  18.393  0.00  0.00    +0.000 C 
BRANCH  16  17
ATOM     17  C   UNL     1       7.675   8.317  17.633  0.00  0.00    +0.000 C 
BRANCH  17  21
ATOM     18  C   UNL     1       9.597  12.035  18.987  0.00  0.00    +0.000 A 
ATOM     19  C   UNL     1       9.807  10.811  19.628  0.00  0.00    +0.000 A 
ATOM     20  C   UNL     1       9.188   9.644  19.180  0.00  0.00    +0.000 A 
ATOM     21  C   UNL     1       8.329   9.601  18.094  0.00  0.00    +0.000 A 
ATOM     22  C   UNL     1       8.102  10.870  17.442  0.00  0.00    +0.000 A 
ATOM     23  C   UNL     1       8.746  12.076  17.881  0.00  0.00    +0.000 A 
BRANCH  18  25
ATOM     24  C   UNL     1      11.238  13.766  18.854  0.00  0.00    +0.000 C 
ATOM     25  O   UNL     1      10.243  13.076  19.588  0.00  0.00    +0.000 OA
ENDBRANCH  18  25
ENDBRANCH  17  21
ENDBRANCH  16  17
ENDBRANCH   1  16
TORSDOF 6
ENDMDL
MODEL 5
REMARK VINA RESULT:      -7.5      1.002      1.061
REMARK  Name = 
REMARK  9 active torsions:
REMARK  status: ('A' for Active; 'I' for Inactive)
REMARK    1  A    between atoms: C_1  and  O_2
REMARK    2  A    between atoms: O_2  and  C_3
REMARK    3  A    between atoms: C_6  and  C_7
REMARK    4  A    between atoms: C_7  and  C_8
REMARK    5  A    between atoms: C_8  and  C_9
REMARK    6  A    between atoms: C_15  and  O_16
REMARK    7  A    between atoms: O_16  and  C_17
REMARK    8  A    between atoms: C_18  and  O_19
REMARK    9  A    between atoms: O_19  and  C_20
REMARK                            x       y       z     vdW  Elec       q    Type
REMARK                         _______ _______ _______ _____ _____    ______ ____
ROOT
ATOM      1  C   UNL     1       6.592   6.627  17.569  0.00  0.00    +0.000 C 
ATOM      2  N   UNL     1       7.579   5.581  17.240  0.00  0.00    +0.000 NA
ATOM      3  C   UNL     1       7.266   5.177  15.874  0.00  0.00    +0.000 C 
ATOM      4  C   UNL     1       5.969   4.420  15.839  0.00  0.00    +0.000 C 
ATOM      5  C   UNL     1       4.985   4.803  16.936  0.00  0.00    +0.000 A 
ATOM      6  C   UNL     1       3.882   3.932  17.016  0.00  0.00    +0.000 A 
ATOM      7  C   UNL     1       3.101   3.873  18.136  0.00  0.00    +0.000 A 
ATOM      8  C   UNL     1       3.379   4.757  19.197  0.00  0.00    +0.000 A 
ATOM      9  C   UNL     1       4.427   5.741  19.093  0.00  0.00    +0.000 A 
ATOM     10  C   UNL     1       5.277   5.800  17.935  0.00  0.00    +0.000 A 
ATOM     11  H   UNL     1       8.533   5.888  17.352  0.00  0.00    +0.000 HD
ENDROOT
BRANCH   7  12
ATOM     12  O   UNL     1       2.317   2.755  18.151  0.00  0.00    +0.000 OA
ATOM     13  C   UNL     1       2.960   1.505  18.321  0.00  0.00    +0.000 C 
ENDBRANCH   7  12
BRANCH   8  14
ATOM     14  O   UNL     1       2.716   4.359  20.349  0.00  0.00    +0.000 OA
ATOM     15  C   UNL     1       1.539   5.005  20.788  0.00  0.00    +0.000 C 
ENDBRANCH   8  14
BRANCH   1  16
ATOM     16  C   UNL     1       7.468   7.986  17.336  0.00  0.00    +0.000 C 
BRANCH  16  17
ATOM     17  C   UNL     1       8.493   8.446  18.545  0.00  0.00    +0.000 C 
BRANCH  17  21
ATOM     18  C   UNL     1       9.646  12.660  19.051  0.00  0.00    +0.000 A 
ATOM     19  C   UNL     1       9.913  11.693  20.024  0.00  0.00    +0.000 A 
ATOM     20  C   UNL     1       9.538  10.362  19.841  0.00  0.00    +0.000 A 
ATOM     21  C   UNL     1       8.883   9.897  18.713  0.00  0.00    +0.000 A 
ATOM     22  C   UNL     1       8.595  10.902  17.715  0.00  0.00    +0.000 A 
ATOM     23  C   UNL     1       8.989  12.273  17.881  0.00  0.00    +0.000 A 
BRANCH  18  25
ATOM     24  C   UNL     1      11.000  14.580  18.620  0.00  0.00    +0.000 C 
ATOM     25  O   UNL     1      10.038  13.915  19.417  0.00  0.00    +0.000 OA
ENDBRANCH  18  25
ENDBRANCH  17  21
ENDBRANCH  16  17
ENDBRANCH   1  16
TORSDOF 6
ENDMDL
MODEL 6
REMARK VINA RESULT:      -7.5      6.937      8.985
REMARK  Name = 
REMARK  9 active torsions:
REMARK  status: ('A' for Active; 'I' for Inactive)
REMARK    1  A    between atoms: C_1  and  O_2
REMARK    2  A    between atoms: O_2  and  C_3
REMARK    3  A    between atoms: C_6  and  C_7
REMARK    4  A    between atoms: C_7  and  C_8
REMARK    5  A    between atoms: C_8  and  C_9
REMARK    6  A    between atoms: C_15  and  O_16
REMARK    7  A    between atoms: O_16  and  C_17
REMARK    8  A    between atoms: C_18  and  O_19
REMARK    9  A    between atoms: O_19  and  C_20
REMARK                            x       y       z     vdW  Elec       q    Type
REMARK                         _______ _______ _______ _____ _____    ______ ____
ROOT
ATOM      1  C   UNL     1       0.098   9.984  18.333  0.00  0.00    +0.000 C 
ATOM      2  N   UNL     1       0.661  11.334  18.526  0.00  0.00    +0.000 NA
ATOM      3  C   UNL     1       0.127  11.791  19.803  0.00  0.00    +0.000 C 
ATOM      4  C   UNL     1      -1.344  12.068  19.684  0.00  0.00    +0.000 C 
ATOM      5  C   UNL     1      -2.061  11.234  18.631  0.00  0.00    +0.000 A 
ATOM      6  C   UNL     1      -3.377  11.666  18.387  0.00  0.00    +0.000 A 
ATOM      7  C   UNL     1      -4.045  11.309  17.249  0.00  0.00    +0.000 A 
ATOM      8  C   UNL     1      -3.411  10.434  16.344  0.00  0.00    +0.000 A 
ATOM      9  C   UNL     1      -2.111   9.881  16.629  0.00  0.00    +0.000 A 
ATOM     10  C   UNL     1      -1.381  10.266  17.806  0.00  0.00    +0.000 A 
ATOM     11  H   UNL     1       1.668  11.352  18.490  0.00  0.00    +0.000 HD
ENDROOT
BRANCH   7  12
ATOM     12  O   UNL     1      -5.146  12.088  17.039  0.00  0.00    +0.000 OA
ATOM     13  C   UNL     1      -6.281  11.855  17.853  0.00  0.00    +0.000 C 
ENDBRANCH   7  12
BRANCH   8  14
ATOM     14  O   UNL     1      -4.075  10.428  15.126  0.00  0.00    +0.000 OA
ATOM     15  C   UNL     1      -3.420  10.073  13.926  0.00  0.00    +0.000 C 
ENDBRANCH   8  14
BRANCH   1  16
ATOM     16  C   UNL     1       1.349   9.041  18.797  0.00  0.00    +0.000 C 
BRANCH  16  17
ATOM     17  C   UNL     1       2.265   8.356  17.609  0.00  0.00    +0.000 C 
BRANCH  17  21
ATOM     18  C   UNL     1       5.285   5.305  18.569  0.00  0.00    +0.000 A 
ATOM     19  C   UNL     1       5.405   6.149  17.462  0.00  0.00    +0.000 A 
ATOM     20  C   UNL     1       4.436   7.111  17.177  0.00  0.00    +0.000 A 
ATOM     21  C   UNL     1       3.298   7.302  17.943  0.00  0.00    +0.000 A 
ATOM     22  C   UNL     1       3.168   6.417  19.079  0.00  0.00    +0.000 A 
ATOM     23  C   UNL     1       4.166   5.435  19.394  0.00  0.00    +0.000 A 
BRANCH  18  25
ATOM     24  C   UNL     1       7.477   4.619  17.913  0.00  0.00    +0.000 C 
ATOM     25  O   UNL     1       6.298   4.396  18.665  0.00  0.00    +0.000 OA
ENDBRANCH  18  25
ENDBRANCH  17  21
ENDBRANCH  16  17
ENDBRANCH   1  16
TORSDOF 6
ENDMDL
MODEL 7
REMARK VINA RESULT:      -7.4      4.315      6.935
REMARK  Name = 
REMARK  9 active torsions:
REMARK  status: ('A' for Active; 'I' for Inactive)
REMARK    1  A    between atoms: C_1  and  O_2
REMARK    2  A    between atoms: O_2  and  C_3
REMARK    3  A    between atoms: C_6  and  C_7
REMARK    4  A    between atoms: C_7  and  C_8
REMARK    5  A    between atoms: C_8  and  C_9
REMARK    6  A    between atoms: C_15  and  O_16
REMARK    7  A    between atoms: O_16  and  C_17
REMARK    8  A    between atoms: C_18  and  O_19
REMARK    9  A    between atoms: O_19  and  C_20
REMARK                            x       y       z     vdW  Elec       q    Type
REMARK                         _______ _______ _______ _____ _____    ______ ____
ROOT
ATOM      1  C   UNL     1       2.894   5.624  18.975  0.00  0.00    +0.000 C 
ATOM      2  N   UNL     1       1.930   5.374  17.886  0.00  0.00    +0.000 NA
ATOM      3  C   UNL     1       1.951   3.930  17.681  0.00  0.00    +0.000 C 
ATOM      4  C   UNL     1       3.254   3.511  17.062  0.00  0.00    +0.000 C 
ATOM      5  C   UNL     1       4.434   4.411  17.404  0.00  0.00    +0.000 A 
ATOM      6  C   UNL     1       5.582   4.128  16.641  0.00  0.00    +0.000 A 
ATOM      7  C   UNL     1       6.600   5.033  16.522  0.00  0.00    +0.000 A 
ATOM      8  C   UNL     1       6.511   6.242  17.241  0.00  0.00    +0.000 A 
ATOM      9  C   UNL     1       5.403   6.504  18.124  0.00  0.00    +0.000 A 
ATOM     10  C   UNL     1       4.310   5.578  18.241  0.00  0.00    +0.000 A 
ATOM     11  H   UNL     1       1.009   5.731  18.083  0.00  0.00    +0.000 HD
ENDROOT
BRANCH   7  12
ATOM     12  O   UNL     1       7.439   4.723  15.491  0.00  0.00    +0.000 OA
ATOM     13  C   UNL     1       6.866   4.545  14.208  0.00  0.00    +0.000 C 
ENDBRANCH   7  12
BRANCH   8  14
ATOM     14  O   UNL     1       7.443   7.156  16.773  0.00  0.00    +0.000 OA
ATOM     15  C   UNL     1       7.890   8.234  17.569  0.00  0.00    +0.000 C 
ENDBRANCH   8  14
BRANCH   1  16
ATOM     16  C   UNL     1       1.899   5.777  20.261  0.00  0.00    +0.000 C 
BRANCH  16  17
ATOM     17  C   UNL     1       1.860   7.241  21.021  0.00  0.00    +0.000 C 
BRANCH  17  21
ATOM     18  C   UNL     1      -0.061  10.696  19.092  0.00  0.00    +0.000 A 
ATOM     19  C   UNL     1       0.960   9.969  18.473  0.00  0.00    +0.000 A 
ATOM     20  C   UNL     1       1.554   8.876  19.103  0.00  0.00    +0.000 A 
ATOM     21  C   UNL     1       1.197   8.432  20.365  0.00  0.00    +0.000 A 
ATOM     22  C   UNL     1       0.151   9.195  21.010  0.00  0.00    +0.000 A 
ATOM     23  C   UNL     1      -0.480  10.312  20.367  0.00  0.00    +0.000 A 
BRANCH  18  25
ATOM     24  C   UNL     1      -1.825  11.758  17.881  0.00  0.00    +0.000 C 
ATOM     25  O   UNL     1      -0.490  11.759  18.352  0.00  0.00    +0.000 OA
ENDBRANCH  18  25
ENDBRANCH  17  21
ENDBRANCH  16  17
ENDBRANCH   1  16
TORSDOF 6
ENDMDL
MODEL 8
REMARK VINA RESULT:      -7.3      4.218      6.755
REMARK  Name = 
REMARK  9 active torsions:
REMARK  status: ('A' for Active; 'I' for Inactive)
REMARK    1  A    between atoms: C_1  and  O_2
REMARK    2  A    between atoms: O_2  and  C_3
REMARK    3  A    between atoms: C_6  and  C_7
REMARK    4  A    between atoms: C_7  and  C_8
REMARK    5  A    between atoms: C_8  and  C_9
REMARK    6  A    between atoms: C_15  and  O_16
REMARK    7  A    between atoms: O_16  and  C_17
REMARK    8  A    between atoms: C_18  and  O_19
REMARK    9  A    between atoms: O_19  and  C_20
REMARK                            x       y       z     vdW  Elec       q    Type
REMARK                         _______ _______ _______ _____ _____    ______ ____
ROOT
ATOM      1  C   UNL     1       2.814   5.454  18.912  0.00  0.00    +0.000 C 
ATOM      2  N   UNL     1       1.864   5.140  17.828  0.00  0.00    +0.000 NA
ATOM      3  C   UNL     1       1.974   3.699  17.630  0.00  0.00    +0.000 C 
ATOM      4  C   UNL     1       3.297   3.358  17.008  0.00  0.00    +0.000 C 
ATOM      5  C   UNL     1       4.421   4.331  17.340  0.00  0.00    +0.000 A 
ATOM      6  C   UNL     1       5.581   4.116  16.574  0.00  0.00    +0.000 A 
ATOM      7  C   UNL     1       6.540   5.081  16.448  0.00  0.00    +0.000 A 
ATOM      8  C   UNL     1       6.379   6.286  17.161  0.00  0.00    +0.000 A 
ATOM      9  C   UNL     1       5.261   6.484  18.047  0.00  0.00    +0.000 A 
ATOM     10  C   UNL     1       4.228   5.492  18.173  0.00  0.00    +0.000 A 
ATOM     11  H   UNL     1       0.923   5.440  18.027  0.00  0.00    +0.000 HD
ENDROOT
BRANCH   7  12
ATOM     12  O   UNL     1       7.393   4.819  15.415  0.00  0.00    +0.000 OA
ATOM     13  C   UNL     1       6.832   4.362  14.198  0.00  0.00    +0.000 C 
ENDBRANCH   7  12
BRANCH   8  14
ATOM     14  O   UNL     1       7.252   7.254  16.685  0.00  0.00    +0.000 OA
ATOM     15  C   UNL     1       7.878   8.179  17.550  0.00  0.00    +0.000 C 
ENDBRANCH   8  14
BRANCH   1  16
ATOM     16  C   UNL     1       1.816   5.551  20.201  0.00  0.00    +0.000 C 
BRANCH  16  17
ATOM     17  C   UNL     1       1.763   6.986  21.014  0.00  0.00    +0.000 C 
BRANCH  17  21
ATOM     18  C   UNL     1       0.463  10.677  19.004  0.00  0.00    +0.000 A 
ATOM     19  C   UNL     1       0.004  10.319  20.275  0.00  0.00    +0.000 A 
ATOM     20  C   UNL     1       0.431   9.144  20.894  0.00  0.00    +0.000 A 
ATOM     21  C   UNL     1       1.318   8.252  20.315  0.00  0.00    +0.000 A 
ATOM     22  C   UNL     1       1.780   8.616  18.994  0.00  0.00    +0.000 A 
ATOM     23  C   UNL     1       1.362   9.830  18.353  0.00  0.00    +0.000 A 
BRANCH  18  25
ATOM     24  C   UNL     1      -1.470  11.825  18.199  0.00  0.00    +0.000 C 
ATOM     25  O   UNL     1      -0.095  11.830  18.535  0.00  0.00    +0.000 OA
ENDBRANCH  18  25
ENDBRANCH  17  21
ENDBRANCH  16  17
ENDBRANCH   1  16
TORSDOF 6
ENDMDL
MODEL 9
REMARK VINA RESULT:      -7.3      6.943      9.492
REMARK  Name = 
REMARK  9 active torsions:
REMARK  status: ('A' for Active; 'I' for Inactive)
REMARK    1  A    between atoms: C_1  and  O_2
REMARK    2  A    between atoms: O_2  and  C_3
REMARK    3  A    between atoms: C_6  and  C_7
REMARK    4  A    between atoms: C_7  and  C_8
REMARK    5  A    between atoms: C_8  and  C_9
REMARK    6  A    between atoms: C_15  and  O_16
REMARK    7  A    between atoms: O_16  and  C_17
REMARK    8  A    between atoms: C_18  and  O_19
REMARK    9  A    between atoms: O_19  and  C_20
REMARK                            x       y       z     vdW  Elec       q    Type
REMARK                         _______ _______ _______ _____ _____    ______ ____
ROOT
ATOM      1  C   UNL     1       0.044  10.088  18.407  0.00  0.00    +0.000 C 
ATOM      2  N   UNL     1       0.534  11.459  18.644  0.00  0.00    +0.000 NA
ATOM      3  C   UNL     1      -0.083  11.873  19.898  0.00  0.00    +0.000 C 
ATOM      4  C   UNL     1      -1.558  12.086  19.708  0.00  0.00    +0.000 C 
ATOM      5  C   UNL     1      -2.182  11.235  18.610  0.00  0.00    +0.000 A 
ATOM      6  C   UNL     1      -3.503  11.611  18.305  0.00  0.00    +0.000 A 
ATOM      7  C   UNL     1      -4.096  11.240  17.130  0.00  0.00    +0.000 A 
ATOM      8  C   UNL     1      -3.378  10.407  16.249  0.00  0.00    +0.000 A 
ATOM      9  C   UNL     1      -2.070   9.909  16.592  0.00  0.00    +0.000 A 
ATOM     10  C   UNL     1      -1.419  10.310  17.809  0.00  0.00    +0.000 A 
ATOM     11  H   UNL     1       1.540  11.523  18.659  0.00  0.00    +0.000 HD
ENDROOT
BRANCH   7  12
ATOM     12  O   UNL     1      -5.220  11.971  16.874  0.00  0.00    +0.000 OA
ATOM     13  C   UNL     1      -6.135  12.164  17.937  0.00  0.00    +0.000 C 
ENDBRANCH   7  12
BRANCH   8  14
ATOM     14  O   UNL     1      -3.980  10.388  14.999  0.00  0.00    +0.000 OA
ATOM     15  C   UNL     1      -3.319   9.863  13.865  0.00  0.00    +0.000 C 
ENDBRANCH   8  14
BRANCH   1  16
ATOM     16  C   UNL     1       1.311   9.196  18.923  0.00  0.00    +0.000 C 
BRANCH  16  17
ATOM     17  C   UNL     1       2.434   8.750  17.799  0.00  0.00    +0.000 C 
BRANCH  17  21
ATOM     18  C   UNL     1       3.860   4.593  17.606  0.00  0.00    +0.000 A 
ATOM     19  C   UNL     1       2.593   4.924  18.093  0.00  0.00    +0.000 A 
ATOM     20  C   UNL     1       2.161   6.249  18.144  0.00  0.00    +0.000 A 
ATOM     21  C   UNL     1       2.933   7.323  17.732  0.00  0.00    +0.000 A 
ATOM     22  C   UNL     1       4.249   6.980  17.243  0.00  0.00    +0.000 A 
ATOM     23  C   UNL     1       4.700   5.619  17.169  0.00  0.00    +0.000 A 
BRANCH  18  25
ATOM     24  C   UNL     1       3.046   2.353  17.764  0.00  0.00    +0.000 C 
ATOM     25  O   UNL     1       4.131   3.258  17.675  0.00  0.00    +0.000 OA
ENDBRANCH  18  25
ENDBRANCH  17  21
ENDBRANCH  16  17
ENDBRANCH   1  16
TORSDOF 6
ENDMDL
