MODEL 1
REMARK VINA RESULT:      -7.7      0.000      0.000
REMARK  Name = 
REMARK  9 active torsions:
REMARK  status: ('A' for Active; 'I' for Inactive)
REMARK    1  A    between atoms: C_1  and  C_2
REMARK    2  A    between atoms: C_2  and  O_3
REMARK    3  A    between atoms: O_3  and  C_4
REMARK    4  A    between atoms: C_4  and  C_6
REMARK    5  A    between atoms: C_6  and  C_7
REMARK    6  A    between atoms: C_6  and  N_8
REMARK    7  A    between atoms: N_15  and  C_16
REMARK    8  A    between atoms: C_20  and  O_21
REMARK    9  A    between atoms: O_21  and  C_22
REMARK                            x       y       z     vdW  Elec       q    Type
REMARK                         _______ _______ _______ _____ _____    ______ ____
ROOT
ATOM      1  N   UNL     1       3.946   4.185  18.721  0.00  0.00    +0.000 N 
ATOM      2  C   UNL     1       3.565   4.068  17.387  0.00  0.00    +0.000 A 
ATOM      3  N   UNL     1       4.347   4.148  16.354  0.00  0.00    +0.000 NA
ATOM      4  C   UNL     1       5.651   4.337  16.678  0.00  0.00    +0.000 A 
ATOM      5  C   UNL     1       6.177   4.433  17.941  0.00  0.00    +0.000 A 
ATOM      6  N   UNL     1       7.529   4.560  17.891  0.00  0.00    +0.000 NA
ATOM      7  N   UNL     1       7.881   4.540  16.606  0.00  0.00    +0.000 NA
ATOM      8  N   UNL     1       6.757   4.409  15.840  0.00  0.00    +0.000 N 
ATOM      9  C   UNL     1       5.304   4.336  19.081  0.00  0.00    +0.000 A 
ATOM     10  O   UNL     1       5.715   4.346  20.236  0.00  0.00    +0.000 OA
ENDROOT
BRANCH   8  11
ATOM     11  C   UNL     1       6.824   4.347  14.421  0.00  0.00    +0.000 A 
ATOM     12  C   UNL     1       7.640   5.245  13.718  0.00  0.00    +0.000 A 
ATOM     13  C   UNL     1       7.726   5.160  12.327  0.00  0.00    +0.000 A 
ATOM     14  C   UNL     1       6.985   4.200  11.635  0.00  0.00    +0.000 A 
ATOM     15  C   UNL     1       6.147   3.322  12.320  0.00  0.00    +0.000 A 
ATOM     16  C   UNL     1       6.082   3.392  13.711  0.00  0.00    +0.000 A 
BRANCH  15  17
ATOM     17  O   UNL     1       5.440   2.449  11.539  0.00  0.00    +0.000 OA
ATOM     18  C   UNL     1       6.107   1.252  11.145  0.00  0.00    +0.000 C 
ENDBRANCH  15  17
ENDBRANCH   8  11
BRANCH   1  19
ATOM     19  C   UNL     1       2.932   3.899  19.747  0.00  0.00    +0.000 C 
ATOM     20  C   UNL     1       1.914   2.831  19.350  0.00  0.00    +0.000 C 
BRANCH  19  21
ATOM     21  C   UNL     1       2.186   5.163  20.190  0.00  0.00    +0.000 C 
ATOM     22  O   UNL     1       1.081   5.143  20.721  0.00  0.00    +0.000 OA
BRANCH  21  23
ATOM     23  O   UNL     1       2.865   6.295  19.860  0.00  0.00    +0.000 OA
BRANCH  23  25
ATOM     24  C   UNL     1       2.301   8.064  18.355  0.00  0.00    +0.000 C 
ATOM     25  C   UNL     1       2.060   7.474  19.734  0.00  0.00    +0.000 C 
ENDBRANCH  23  25
ENDBRANCH  21  23
ENDBRANCH  19  21
ENDBRANCH   1  19
TORSDOF 6
ENDMDL
MODEL 2
REMARK VINA RESULT:      -7.6      2.640      8.107
REMARK  Name = 
REMARK  9 active torsions:
REMARK  status: ('A' for Active; 'I' for Inactive)
REMARK    1  A    between atoms: C_1  and  C_2
REMARK    2  A    between atoms: C_2  and  O_3
REMARK    3  A    between atoms: O_3  and  C_4
REMARK    4  A    between atoms: C_4  and  C_6
REMARK    5  A    between atoms: C_6  and  C_7
REMARK    6  A    between atoms: C_6  and  N_8
REMARK    7  A    between atoms: N_15  and  C_16
REMARK    8  A    between atoms: C_20  and  O_21
REMARK    9  A    between atoms: O_21  and  C_22
REMARK                            x       y       z     vdW  Elec       q    Type
REMARK                         _______ _______ _______ _____ _____    ______ ____
ROOT
ATOM      1  N   UNL     1       5.195   4.933  17.190  0.00  0.00    +0.000 N 
ATOM      2  C   UNL     1       5.053   6.317  17.155  0.00  0.00    +0.000 A 
ATOM      3  N   UNL     1       4.151   7.013  17.776  0.00  0.00    +0.000 NA
ATOM      4  C   UNL     1       3.316   6.260  18.534  0.00  0.00    +0.000 A 
ATOM      5  C   UNL     1       3.358   4.899  18.696  0.00  0.00    +0.000 A 
ATOM      6  N   UNL     1       2.407   4.489  19.576  0.00  0.00    +0.000 NA
ATOM      7  N   UNL     1       1.756   5.576  19.989  0.00  0.00    +0.000 NA
ATOM      8  N   UNL     1       2.284   6.673  19.369  0.00  0.00    +0.000 N 
ATOM      9  C   UNL     1       4.366   4.135  18.010  0.00  0.00    +0.000 A 
ATOM     10  O   UNL     1       4.503   2.926  18.162  0.00  0.00    +0.000 OA
ENDROOT
BRANCH   8  11
ATOM     11  C   UNL     1       1.793   7.982  19.624  0.00  0.00    +0.000 A 
ATOM     12  C   UNL     1       1.593   8.874  18.561  0.00  0.00    +0.000 A 
ATOM     13  C   UNL     1       1.081  10.149  18.813  0.00  0.00    +0.000 A 
ATOM     14  C   UNL     1       0.792  10.543  20.122  0.00  0.00    +0.000 A 
ATOM     15  C   UNL     1       1.016   9.676  21.190  0.00  0.00    +0.000 A 
ATOM     16  C   UNL     1       1.503   8.395  20.933  0.00  0.00    +0.000 A 
BRANCH  15  17
ATOM     17  O   UNL     1       0.734  10.179  22.431  0.00  0.00    +0.000 OA
ATOM     18  C   UNL     1      -0.641  10.253  22.798  0.00  0.00    +0.000 C 
ENDBRANCH  15  17
ENDBRANCH   8  11
BRANCH   1  19
ATOM     19  C   UNL     1       6.385   4.353  16.548  0.00  0.00    +0.000 C 
ATOM     20  C   UNL     1       7.682   4.537  17.334  0.00  0.00    +0.000 C 
BRANCH  19  21
ATOM     21  C   UNL     1       6.585   4.878  15.121  0.00  0.00    +0.000 C 
ATOM     22  O   UNL     1       7.476   5.659  14.808  0.00  0.00    +0.000 OA
BRANCH  21  23
ATOM     23  O   UNL     1       5.619   4.427  14.275  0.00  0.00    +0.000 OA
BRANCH  23  25
ATOM     24  C   UNL     1       4.985   3.532  12.151  0.00  0.00    +0.000 C 
ATOM     25  C   UNL     1       6.089   3.614  13.192  0.00  0.00    +0.000 C 
ENDBRANCH  23  25
ENDBRANCH  21  23
ENDBRANCH  19  21
ENDBRANCH   1  19
TORSDOF 6
ENDMDL
MODEL 3
REMARK VINA RESULT:      -7.5      1.599      2.051
REMARK  Name = 
REMARK  9 active torsions:
REMARK  status: ('A' for Active; 'I' for Inactive)
REMARK    1  A    between atoms: C_1  and  C_2
REMARK    2  A    between atoms: C_2  and  O_3
REMARK    3  A    between atoms: O_3  and  C_4
REMARK    4  A    between atoms: C_4  and  C_6
REMARK    5  A    between atoms: C_6  and  C_7
REMARK    6  A    between atoms: C_6  and  N_8
REMARK    7  A    between atoms: N_15  and  C_16
REMARK    8  A    between atoms: C_20  and  O_21
REMARK    9  A    between atoms: O_21  and  C_22
REMARK                            x       y       z     vdW  Elec       q    Type
REMARK                         _______ _______ _______ _____ _____    ______ ____
ROOT
ATOM      1  N   UNL     1       4.916   4.043  18.825  0.00  0.00    +0.000 N 
ATOM      2  C   UNL     1       4.599   3.375  17.645  0.00  0.00    +0.000 A 
ATOM      3  N   UNL     1       5.092   3.617  16.469  0.00  0.00    +0.000 NA
ATOM      4  C   UNL     1       6.018   4.609  16.465  0.00  0.00    +0.000 A 
ATOM      5  C   UNL     1       6.456   5.326  17.549  0.00  0.00    +0.000 A 
ATOM      6  N   UNL     1       7.433   6.197  17.186  0.00  0.00    +0.000 NA
ATOM      7  N   UNL     1       7.634   6.044  15.878  0.00  0.00    +0.000 NA
ATOM      8  N   UNL     1       6.783   5.085  15.407  0.00  0.00    +0.000 N 
ATOM      9  C   UNL     1       5.911   5.046  18.851  0.00  0.00    +0.000 A 
ATOM     10  O   UNL     1       6.306   5.601  19.871  0.00  0.00    +0.000 OA
ENDROOT
BRANCH   8  11
ATOM     11  C   UNL     1       6.776   4.699  14.039  0.00  0.00    +0.000 A 
ATOM     12  C   UNL     1       7.732   5.223  13.158  0.00  0.00    +0.000 A 
ATOM     13  C   UNL     1       7.741   4.817  11.822  0.00  0.00    +0.000 A 
ATOM     14  C   UNL     1       6.786   3.909  11.358  0.00  0.00    +0.000 A 
ATOM     15  C   UNL     1       5.812   3.404  12.218  0.00  0.00    +0.000 A 
ATOM     16  C   UNL     1       5.821   3.792  13.556  0.00  0.00    +0.000 A 
BRANCH  15  17
ATOM     17  O   UNL     1       4.905   2.552  11.648  0.00  0.00    +0.000 OA
ATOM     18  C   UNL     1       3.781   3.146  11.003  0.00  0.00    +0.000 C 
ENDBRANCH  15  17
ENDBRANCH   8  11
BRANCH   1  19
ATOM     19  C   UNL     1       4.369   3.506  20.080  0.00  0.00    +0.000 C 
ATOM     20  C   UNL     1       4.395   1.982  20.181  0.00  0.00    +0.000 C 
BRANCH  19  21
ATOM     21  C   UNL     1       2.943   4.002  20.348  0.00  0.00    +0.000 C 
ATOM     22  O   UNL     1       2.619   5.183  20.300  0.00  0.00    +0.000 OA
BRANCH  21  23
ATOM     23  O   UNL     1       2.112   2.985  20.707  0.00  0.00    +0.000 OA
BRANCH  23  25
ATOM     24  C   UNL     1       1.025   2.601  18.613  0.00  0.00    +0.000 C 
ATOM     25  C   UNL     1       0.829   2.992  20.068  0.00  0.00    +0.000 C 
ENDBRANCH  23  25
ENDBRANCH  21  23
ENDBRANCH  19  21
ENDBRANCH   1  19
TORSDOF 6
ENDMDL
MODEL 4
REMARK VINA RESULT:      -7.5      1.148      1.512
REMARK  Name = 
REMARK  9 active torsions:
REMARK  status: ('A' for Active; 'I' for Inactive)
REMARK    1  A    between atoms: C_1  and  C_2
REMARK    2  A    between atoms: C_2  and  O_3
REMARK    3  A    between atoms: O_3  and  C_4
REMARK    4  A    between atoms: C_4  and  C_6
REMARK    5  A    between atoms: C_6  and  C_7
REMARK    6  A    between atoms: C_6  and  N_8
REMARK    7  A    between atoms: N_15  and  C_16
REMARK    8  A    between atoms: C_20  and  O_21
REMARK    9  A    between atoms: O_21  and  C_22
REMARK                            x       y       z     vdW  Elec       q    Type
REMARK                         _______ _______ _______ _____ _____    ______ ____
ROOT
ATOM      1  N   UNL     1       4.078   5.397  18.735  0.00  0.00    +0.000 N 
ATOM      2  C   UNL     1       3.694   5.407  17.397  0.00  0.00    +0.000 A 
ATOM      3  N   UNL     1       4.463   5.191  16.374  0.00  0.00    +0.000 NA
ATOM      4  C   UNL     1       5.746   4.909  16.714  0.00  0.00    +0.000 A 
ATOM      5  C   UNL     1       6.259   4.827  17.983  0.00  0.00    +0.000 A 
ATOM      6  N   UNL     1       7.569   4.465  17.949  0.00  0.00    +0.000 NA
ATOM      7  N   UNL     1       7.903   4.306  16.670  0.00  0.00    +0.000 NA
ATOM      8  N   UNL     1       6.813   4.573  15.889  0.00  0.00    +0.000 N 
ATOM      9  C   UNL     1       5.398   5.059  19.112  0.00  0.00    +0.000 A 
ATOM     10  O   UNL     1       5.774   4.936  20.272  0.00  0.00    +0.000 OA
ENDROOT
BRANCH   8  11
ATOM     11  C   UNL     1       6.868   4.476  14.472  0.00  0.00    +0.000 A 
ATOM     12  C   UNL     1       7.725   5.313  13.745  0.00  0.00    +0.000 A 
ATOM     13  C   UNL     1       7.798   5.192  12.355  0.00  0.00    +0.000 A 
ATOM     14  C   UNL     1       7.003   4.256  11.689  0.00  0.00    +0.000 A 
ATOM     15  C   UNL     1       6.125   3.438  12.400  0.00  0.00    +0.000 A 
ATOM     16  C   UNL     1       6.073   3.544  13.788  0.00  0.00    +0.000 A 
BRANCH  15  17
ATOM     17  O   UNL     1       5.368   2.585  11.643  0.00  0.00    +0.000 OA
ATOM     18  C   UNL     1       4.109   3.075  11.189  0.00  0.00    +0.000 C 
ENDBRANCH  15  17
ENDBRANCH   8  11
BRANCH   1  19
ATOM     19  C   UNL     1       3.019   5.501  19.749  0.00  0.00    +0.000 C 
ATOM     20  C   UNL     1       1.916   4.452  19.623  0.00  0.00    +0.000 C 
BRANCH  19  21
ATOM     21  C   UNL     1       2.383   6.896  19.779  0.00  0.00    +0.000 C 
ATOM     22  O   UNL     1       2.528   7.723  18.886  0.00  0.00    +0.000 OA
BRANCH  21  23
ATOM     23  O   UNL     1       1.704   7.119  20.937  0.00  0.00    +0.000 OA
BRANCH  23  25
ATOM     24  C   UNL     1      -0.251   8.377  21.492  0.00  0.00    +0.000 C 
ATOM     25  C   UNL     1       1.217   8.456  21.111  0.00  0.00    +0.000 C 
ENDBRANCH  23  25
ENDBRANCH  21  23
ENDBRANCH  19  21
ENDBRANCH   1  19
TORSDOF 6
ENDMDL
MODEL 5
REMARK VINA RESULT:      -7.4      2.011      7.317
REMARK  Name = 
REMARK  9 active torsions:
REMARK  status: ('A' for Active; 'I' for Inactive)
REMARK    1  A    between atoms: C_1  and  C_2
REMARK    2  A    between atoms: C_2  and  O_3
REMARK    3  A    between atoms: O_3  and  C_4
REMARK    4  A    between atoms: C_4  and  C_6
REMARK    5  A    between atoms: C_6  and  C_7
REMARK    6  A    between atoms: C_6  and  N_8
REMARK    7  A    between atoms: N_15  and  C_16
REMARK    8  A    between atoms: C_20  and  O_21
REMARK    9  A    between atoms: O_21  and  C_22
REMARK                            x       y       z     vdW  Elec       q    Type
REMARK                         _______ _______ _______ _____ _____    ______ ____
ROOT
ATOM      1  N   UNL     1       6.522   4.095  13.856  0.00  0.00    +0.000 N 
ATOM      2  C   UNL     1       5.342   3.652  14.447  0.00  0.00    +0.000 A 
ATOM      3  N   UNL     1       4.882   4.009  15.607  0.00  0.00    +0.000 NA
ATOM      4  C   UNL     1       5.660   4.922  16.238  0.00  0.00    +0.000 A 
ATOM      5  C   UNL     1       6.823   5.476  15.767  0.00  0.00    +0.000 A 
ATOM      6  N   UNL     1       7.304   6.401  16.638  0.00  0.00    +0.000 NA
ATOM      7  N   UNL     1       6.457   6.455  17.665  0.00  0.00    +0.000 NA
ATOM      8  N   UNL     1       5.445   5.562  17.454  0.00  0.00    +0.000 N 
ATOM      9  C   UNL     1       7.322   5.081  14.476  0.00  0.00    +0.000 A 
ATOM     10  O   UNL     1       8.317   5.584  13.965  0.00  0.00    +0.000 OA
ENDROOT
BRANCH   8  11
ATOM     11  C   UNL     1       4.382   5.404  18.385  0.00  0.00    +0.000 A 
ATOM     12  C   UNL     1       3.462   6.443  18.580  0.00  0.00    +0.000 A 
ATOM     13  C   UNL     1       2.402   6.272  19.472  0.00  0.00    +0.000 A 
ATOM     14  C   UNL     1       2.271   5.078  20.186  0.00  0.00    +0.000 A 
ATOM     15  C   UNL     1       3.197   4.050  20.023  0.00  0.00    +0.000 A 
ATOM     16  C   UNL     1       4.240   4.214  19.113  0.00  0.00    +0.000 A 
BRANCH  15  17
ATOM     17  O   UNL     1       2.994   2.942  20.800  0.00  0.00    +0.000 OA
ATOM     18  C   UNL     1       1.842   2.948  21.640  0.00  0.00    +0.000 C 
ENDBRANCH  15  17
ENDBRANCH   8  11
BRANCH   1  19
ATOM     19  C   UNL     1       6.780   3.695  12.465  0.00  0.00    +0.000 C 
ATOM     20  C   UNL     1       7.140   4.849  11.531  0.00  0.00    +0.000 C 
BRANCH  19  21
ATOM     21  C   UNL     1       5.608   2.910  11.863  0.00  0.00    +0.000 C 
ATOM     22  O   UNL     1       5.670   1.721  11.573  0.00  0.00    +0.000 OA
BRANCH  21  23
ATOM     23  O   UNL     1       4.530   3.708  11.630  0.00  0.00    +0.000 OA
BRANCH  23  25
ATOM     24  C   UNL     1       3.090   4.111   9.766  0.00  0.00    +0.000 C 
ATOM     25  C   UNL     1       3.492   3.114  10.840  0.00  0.00    +0.000 C 
ENDBRANCH  23  25
ENDBRANCH  21  23
ENDBRANCH  19  21
ENDBRANCH   1  19
TORSDOF 6
ENDMDL
MODEL 6
REMARK VINA RESULT:      -7.4      3.085      8.160
REMARK  Name = 
REMARK  9 active torsions:
REMARK  status: ('A' for Active; 'I' for Inactive)
REMARK    1  A    between atoms: C_1  and  C_2
REMARK    2  A    between atoms: C_2  and  O_3
REMARK    3  A    between atoms: O_3  and  C_4
REMARK    4  A    between atoms: C_4  and  C_6
REMARK    5  A    between atoms: C_6  and  C_7
REMARK    6  A    between atoms: C_6  and  N_8
REMARK    7  A    between atoms: N_15  and  C_16
REMARK    8  A    between atoms: C_20  and  O_21
REMARK    9  A    between atoms: O_21  and  C_22
REMARK                            x       y       z     vdW  Elec       q    Type
REMARK                         _______ _______ _______ _____ _____    ______ ____
ROOT
ATOM      1  N   UNL     1       4.785   5.641  16.948  0.00  0.00    +0.000 N 
ATOM      2  C   UNL     1       4.329   6.956  16.910  0.00  0.00    +0.000 A 
ATOM      3  N   UNL     1       3.486   7.501  17.733  0.00  0.00    +0.000 NA
ATOM      4  C   UNL     1       3.070   6.662  18.714  0.00  0.00    +0.000 A 
ATOM      5  C   UNL     1       3.459   5.360  18.900  0.00  0.00    +0.000 A 
ATOM      6  N   UNL     1       2.887   4.843  20.019  0.00  0.00    +0.000 NA
ATOM      7  N   UNL     1       2.138   5.802  20.561  0.00  0.00    +0.000 NA
ATOM      8  N   UNL     1       2.225   6.924  19.786  0.00  0.00    +0.000 N 
ATOM      9  C   UNL     1       4.400   4.765  17.989  0.00  0.00    +0.000 A 
ATOM     10  O   UNL     1       4.841   3.630  18.135  0.00  0.00    +0.000 OA
ENDROOT
BRANCH   8  11
ATOM     11  C   UNL     1       1.534   8.120  20.125  0.00  0.00    +0.000 A 
ATOM     12  C   UNL     1       1.332   9.111  19.154  0.00  0.00    +0.000 A 
ATOM     13  C   UNL     1       0.626  10.270  19.484  0.00  0.00    +0.000 A 
ATOM     14  C   UNL     1       0.143  10.453  20.782  0.00  0.00    +0.000 A 
ATOM     15  C   UNL     1       0.364   9.487  21.763  0.00  0.00    +0.000 A 
ATOM     16  C   UNL     1       1.047   8.321  21.425  0.00  0.00    +0.000 A 
BRANCH  15  17
ATOM     17  O   UNL     1      -0.120   9.787  23.007  0.00  0.00    +0.000 OA
ATOM     18  C   UNL     1      -1.100  10.820  23.084  0.00  0.00    +0.000 C 
ENDBRANCH  15  17
ENDBRANCH   8  11
BRANCH   1  19
ATOM     19  C   UNL     1       5.865   5.267  16.024  0.00  0.00    +0.000 C 
ATOM     20  C   UNL     1       5.730   3.868  15.424  0.00  0.00    +0.000 C 
BRANCH  19  21
ATOM     21  C   UNL     1       7.250   5.403  16.668  0.00  0.00    +0.000 C 
ATOM     22  O   UNL     1       7.851   4.466  17.182  0.00  0.00    +0.000 OA
BRANCH  21  23
ATOM     23  O   UNL     1       7.689   6.691  16.657  0.00  0.00    +0.000 OA
BRANCH  23  25
ATOM     24  C   UNL     1       7.914   8.792  17.775  0.00  0.00    +0.000 C 
ATOM     25  C   UNL     1       7.871   7.284  17.950  0.00  0.00    +0.000 C 
ENDBRANCH  23  25
ENDBRANCH  21  23
ENDBRANCH  19  21
ENDBRANCH   1  19
TORSDOF 6
ENDMDL
MODEL 7
REMARK VINA RESULT:      -7.2      3.108      7.899
REMARK  Name = 
REMARK  9 active torsions:
REMARK  status: ('A' for Active; 'I' for Inactive)
REMARK    1  A    between atoms: C_1  and  C_2
REMARK    2  A    between atoms: C_2  and  O_3
REMARK    3  A    between atoms: O_3  and  C_4
REMARK    4  A    between atoms: C_4  and  C_6
REMARK    5  A    between atoms: C_6  and  C_7
REMARK    6  A    between atoms: C_6  and  N_8
REMARK    7  A    between atoms: N_15  and  C_16
REMARK    8  A    between atoms: C_20  and  O_21
REMARK    9  A    between atoms: O_21  and  C_22
REMARK                            x       y       z     vdW  Elec       q    Type
REMARK                         _______ _______ _______ _____ _____    ______ ____
ROOT
ATOM      1  N   UNL     1       4.672   5.816  16.798  0.00  0.00    +0.000 N 
ATOM      2  C   UNL     1       4.294   7.155  16.869  0.00  0.00    +0.000 A 
ATOM      3  N   UNL     1       3.480   7.678  17.735  0.00  0.00    +0.000 NA
ATOM      4  C   UNL     1       3.012   6.787  18.643  0.00  0.00    +0.000 A 
ATOM      5  C   UNL     1       3.323   5.453  18.720  0.00  0.00    +0.000 A 
ATOM      6  N   UNL     1       2.718   4.879  19.792  0.00  0.00    +0.000 NA
ATOM      7  N   UNL     1       2.024   5.832  20.413  0.00  0.00    +0.000 NA
ATOM      8  N   UNL     1       2.179   7.008  19.734  0.00  0.00    +0.000 N 
ATOM      9  C   UNL     1       4.232   4.882  17.762  0.00  0.00    +0.000 A 
ATOM     10  O   UNL     1       4.605   3.715  17.813  0.00  0.00    +0.000 OA
ENDROOT
BRANCH   8  11
ATOM     11  C   UNL     1       1.558   8.209  20.171  0.00  0.00    +0.000 A 
ATOM     12  C   UNL     1       1.288   8.404  21.532  0.00  0.00    +0.000 A 
ATOM     13  C   UNL     1       0.706   9.599  21.960  0.00  0.00    +0.000 A 
ATOM     14  C   UNL     1       0.372  10.589  21.032  0.00  0.00    +0.000 A 
ATOM     15  C   UNL     1       0.609  10.394  19.673  0.00  0.00    +0.000 A 
ATOM     16  C   UNL     1       1.212   9.211  19.251  0.00  0.00    +0.000 A 
BRANCH  15  17
ATOM     17  O   UNL     1       0.207  11.412  18.851  0.00  0.00    +0.000 OA
ATOM     18  C   UNL     1      -1.144  11.379  18.399  0.00  0.00    +0.000 C 
ENDBRANCH  15  17
ENDBRANCH   8  11
BRANCH   1  19
ATOM     19  C   UNL     1       5.733   5.458  15.845  0.00  0.00    +0.000 C 
ATOM     20  C   UNL     1       5.521   4.122  15.135  0.00  0.00    +0.000 C 
BRANCH  19  21
ATOM     21  C   UNL     1       7.121   5.464  16.496  0.00  0.00    +0.000 C 
ATOM     22  O   UNL     1       7.659   4.460  16.948  0.00  0.00    +0.000 OA
BRANCH  21  23
ATOM     23  O   UNL     1       7.641   6.720  16.569  0.00  0.00    +0.000 OA
BRANCH  23  25
ATOM     24  C   UNL     1       7.911   8.753  17.795  0.00  0.00    +0.000 C 
ATOM     25  C   UNL     1       7.788   7.242  17.895  0.00  0.00    +0.000 C 
ENDBRANCH  23  25
ENDBRANCH  21  23
ENDBRANCH  19  21
ENDBRANCH   1  19
TORSDOF 6
ENDMDL
MODEL 8
REMARK VINA RESULT:      -7.2      1.694      2.451
REMARK  Name = 
REMARK  9 active torsions:
REMARK  status: ('A' for Active; 'I' for Inactive)
REMARK    1  A    between atoms: C_1  and  C_2
REMARK    2  A    between atoms: C_2  and  O_3
REMARK    3  A    between atoms: O_3  and  C_4
REMARK    4  A    between atoms: C_4  and  C_6
REMARK    5  A    between atoms: C_6  and  C_7
REMARK    6  A    between atoms: C_6  and  N_8
REMARK    7  A    between atoms: N_15  and  C_16
REMARK    8  A    between atoms: C_20  and  O_21
REMARK    9  A    between atoms: O_21  and  C_22
REMARK                            x       y       z     vdW  Elec       q    Type
REMARK                         _______ _______ _______ _____ _____    ______ ____
ROOT
ATOM      1  N   UNL     1       4.953   4.325  18.193  0.00  0.00    +0.000 N 
ATOM      2  C   UNL     1       4.393   3.487  17.233  0.00  0.00    +0.000 A 
ATOM      3  N   UNL     1       4.732   3.417  15.982  0.00  0.00    +0.000 NA
ATOM      4  C   UNL     1       5.754   4.246  15.653  0.00  0.00    +0.000 A 
ATOM      5  C   UNL     1       6.426   5.094  16.495  0.00  0.00    +0.000 A 
ATOM      6  N   UNL     1       7.432   5.728  15.837  0.00  0.00    +0.000 NA
ATOM      7  N   UNL     1       7.420   5.290  14.579  0.00  0.00    +0.000 NA
ATOM      8  N   UNL     1       6.405   4.387  14.432  0.00  0.00    +0.000 N 
ATOM      9  C   UNL     1       6.049   5.161  17.882  0.00  0.00    +0.000 A 
ATOM     10  O   UNL     1       6.650   5.846  18.702  0.00  0.00    +0.000 OA
ENDROOT
BRANCH   8  11
ATOM     11  C   UNL     1       6.154   3.741  13.191  0.00  0.00    +0.000 A 
ATOM     12  C   UNL     1       7.207   3.138  12.489  0.00  0.00    +0.000 A 
ATOM     13  C   UNL     1       6.949   2.477  11.286  0.00  0.00    +0.000 A 
ATOM     14  C   UNL     1       5.651   2.438  10.771  0.00  0.00    +0.000 A 
ATOM     15  C   UNL     1       4.602   3.060  11.445  0.00  0.00    +0.000 A 
ATOM     16  C   UNL     1       4.857   3.697  12.658  0.00  0.00    +0.000 A 
BRANCH  15  17
ATOM     17  O   UNL     1       3.381   2.992  10.830  0.00  0.00    +0.000 OA
ATOM     18  C   UNL     1       3.069   4.027   9.902  0.00  0.00    +0.000 C 
ENDBRANCH  15  17
ENDBRANCH   8  11
BRANCH   1  19
ATOM     19  C   UNL     1       4.539   4.132  19.591  0.00  0.00    +0.000 C 
ATOM     20  C   UNL     1       4.496   2.674  20.043  0.00  0.00    +0.000 C 
BRANCH  19  21
ATOM     21  C   UNL     1       3.185   4.788  19.888  0.00  0.00    +0.000 C 
ATOM     22  O   UNL     1       3.005   6.001  19.874  0.00  0.00    +0.000 OA
BRANCH  21  23
ATOM     23  O   UNL     1       2.241   3.870  20.231  0.00  0.00    +0.000 OA
BRANCH  23  25
ATOM     24  C   UNL     1       0.964   2.467  18.777  0.00  0.00    +0.000 C 
ATOM     25  C   UNL     1       1.077   3.850  19.394  0.00  0.00    +0.000 C 
ENDBRANCH  23  25
ENDBRANCH  21  23
ENDBRANCH  19  21
ENDBRANCH   1  19
TORSDOF 6
ENDMDL
MODEL 9
REMARK VINA RESULT:      -7.2      1.157      1.294
REMARK  Name = 
REMARK  9 active torsions:
REMARK  status: ('A' for Active; 'I' for Inactive)
REMARK    1  A    between atoms: C_1  and  C_2
REMARK    2  A    between atoms: C_2  and  O_3
REMARK    3  A    between atoms: O_3  and  C_4
REMARK    4  A    between atoms: C_4  and  C_6
REMARK    5  A    between atoms: C_6  and  C_7
REMARK    6  A    between atoms: C_6  and  N_8
REMARK    7  A    between atoms: N_15  and  C_16
REMARK    8  A    between atoms: C_20  and  O_21
REMARK    9  A    between atoms: O_21  and  C_22
REMARK                            x       y       z     vdW  Elec       q    Type
REMARK                         _______ _______ _______ _____ _____    ______ ____
ROOT
ATOM      1  N   UNL     1       4.529   4.156  18.778  0.00  0.00    +0.000 N 
ATOM      2  C   UNL     1       4.188   3.556  17.568  0.00  0.00    +0.000 A 
ATOM      3  N   UNL     1       4.767   3.752  16.423  0.00  0.00    +0.000 NA
ATOM      4  C   UNL     1       5.813   4.613  16.488  0.00  0.00    +0.000 A 
ATOM      5  C   UNL     1       6.286   5.247  17.608  0.00  0.00    +0.000 A 
ATOM      6  N   UNL     1       7.385   5.990  17.313  0.00  0.00    +0.000 NA
ATOM      7  N   UNL     1       7.630   5.835  16.013  0.00  0.00    +0.000 NA
ATOM      8  N   UNL     1       6.686   5.003  15.479  0.00  0.00    +0.000 N 
ATOM      9  C   UNL     1       5.644   5.019  18.875  0.00  0.00    +0.000 A 
ATOM     10  O   UNL     1       6.055   5.500  19.926  0.00  0.00    +0.000 OA
ENDROOT
BRANCH   8  11
ATOM     11  C   UNL     1       6.699   4.645  14.103  0.00  0.00    +0.000 A 
ATOM     12  C   UNL     1       7.650   5.209  13.241  0.00  0.00    +0.000 A 
ATOM     13  C   UNL     1       7.678   4.830  11.897  0.00  0.00    +0.000 A 
ATOM     14  C   UNL     1       6.747   3.911  11.407  0.00  0.00    +0.000 A 
ATOM     15  C   UNL     1       5.778   3.367  12.248  0.00  0.00    +0.000 A 
ATOM     16  C   UNL     1       5.768   3.727  13.595  0.00  0.00    +0.000 A 
BRANCH  15  17
ATOM     17  O   UNL     1       4.894   2.507  11.654  0.00  0.00    +0.000 OA
ATOM     18  C   UNL     1       3.857   3.091  10.871  0.00  0.00    +0.000 C 
ENDBRANCH  15  17
ENDBRANCH   8  11
BRANCH   1  19
ATOM     19  C   UNL     1       3.854   3.673  19.992  0.00  0.00    +0.000 C 
ATOM     20  C   UNL     1       4.196   2.235  20.377  0.00  0.00    +0.000 C 
BRANCH  19  21
ATOM     21  C   UNL     1       2.330   3.819  19.903  0.00  0.00    +0.000 C 
ATOM     22  O   UNL     1       1.550   2.906  20.145  0.00  0.00    +0.000 OA
BRANCH  21  23
ATOM     23  O   UNL     1       1.964   5.053  19.459  0.00  0.00    +0.000 OA
BRANCH  23  25
ATOM     24  C   UNL     1       2.108   7.425  19.718  0.00  0.00    +0.000 C 
ATOM     25  C   UNL     1       2.012   6.094  20.444  0.00  0.00    +0.000 C 
ENDBRANCH  23  25
ENDBRANCH  21  23
ENDBRANCH  19  21
ENDBRANCH   1  19
TORSDOF 6
ENDMDL
