MODEL 1
REMARK VINA RESULT:      -6.2      0.000      0.000
REMARK  Name = 
REMARK  10 active torsions:
REMARK  status: ('A' for Active; 'I' for Inactive)
REMARK    1  A    between atoms: C_1  and  O_2
REMARK    2  A    between atoms: O_2  and  C_3
REMARK    3  A    between atoms: C_6  and  C_7
REMARK    4  A    between atoms: C_9  and  C_10
REMARK    5  A    between atoms: C_10  and  O_11
REMARK    6  A    between atoms: C_10  and  C_12
REMARK    7  A    between atoms: C_12  and  N_13
REMARK    8  A    between atoms: N_13  and  C_14
REMARK    9  A    between atoms: C_14  and  C_15
REMARK   10  A    between atoms: C_14  and  C_16
REMARK                            x       y       z     vdW  Elec       q    Type
REMARK                         _______ _______ _______ _____ _____    ______ ____
ROOT
ATOM      1  C   UNL     1       5.050   4.767  16.746  0.00  0.00    +0.000 A 
ATOM      2  C   UNL     1       5.372   6.124  16.624  0.00  0.00    +0.000 A 
ATOM      3  C   UNL     1       4.526   7.111  17.136  0.00  0.00    +0.000 A 
ATOM      4  C   UNL     1       3.336   6.753  17.774  0.00  0.00    +0.000 A 
ATOM      5  C   UNL     1       2.411   7.796  18.318  0.00  0.00    +0.000 C 
ATOM      6  C   UNL     1       3.012   5.395  17.890  0.00  0.00    +0.000 A 
ATOM      7  C   UNL     1       3.855   4.387  17.385  0.00  0.00    +0.000 A 
ENDROOT
BRANCH   1   9
ATOM      8  C   UNL     1       6.090   3.871  14.815  0.00  0.00    +0.000 C 
ATOM      9  O   UNL     1       5.819   3.763  16.211  0.00  0.00    +0.000 OA
ENDBRANCH   1   9
BRANCH   7  10
ATOM     10  C   UNL     1       3.410   2.941  17.535  0.00  0.00    +0.000 C 
BRANCH  10  11
ATOM     11  O   UNL     1       4.338   2.246  18.377  0.00  0.00    +0.000 OA
ATOM     12  H   UNL     1       5.123   2.824  18.431  0.00  0.00    +0.000 HD
ENDBRANCH  10  11
BRANCH  10  13
ATOM     13  C   UNL     1       1.980   2.725  18.095  0.00  0.00    +0.000 C 
BRANCH  13  14
ATOM     14  N   UNL     1       1.876   1.796  19.232  0.00  0.00    +0.000 NA
ATOM     15  H   UNL     1       2.786   1.358  19.389  0.00  0.00    +0.000 HD
BRANCH  14  16
ATOM     16  C   UNL     1       1.433   2.461  20.467  0.00  0.00    +0.000 C 
ATOM     17  C   UNL     1       2.587   2.704  21.445  0.00  0.00    +0.000 C 
ATOM     18  C   UNL     1       0.789   3.801  20.104  0.00  0.00    +0.000 C 
ENDBRANCH  14  16
ENDBRANCH  13  14
ENDBRANCH  10  13
ENDBRANCH   7  10
TORSDOF 6
ENDMDL
MODEL 2
REMARK VINA RESULT:      -6.1      2.012      3.350
REMARK  Name = 
REMARK  10 active torsions:
REMARK  status: ('A' for Active; 'I' for Inactive)
REMARK    1  A    between atoms: C_1  and  O_2
REMARK    2  A    between atoms: O_2  and  C_3
REMARK    3  A    between atoms: C_6  and  C_7
REMARK    4  A    between atoms: C_9  and  C_10
REMARK    5  A    between atoms: C_10  and  O_11
REMARK    6  A    between atoms: C_10  and  C_12
REMARK    7  A    between atoms: C_12  and  N_13
REMARK    8  A    between atoms: N_13  and  C_14
REMARK    9  A    between atoms: C_14  and  C_15
REMARK   10  A    between atoms: C_14  and  C_16
REMARK                            x       y       z     vdW  Elec       q    Type
REMARK                         _______ _______ _______ _____ _____    ______ ____
ROOT
ATOM      1  C   UNL     1       6.281   4.672  17.680  0.00  0.00    +0.000 A 
ATOM      2  C   UNL     1       7.277   5.125  16.806  0.00  0.00    +0.000 A 
ATOM      3  C   UNL     1       7.191   4.882  15.433  0.00  0.00    +0.000 A 
ATOM      4  C   UNL     1       6.107   4.170  14.913  0.00  0.00    +0.000 A 
ATOM      5  C   UNL     1       6.004   3.889  13.446  0.00  0.00    +0.000 C 
ATOM      6  C   UNL     1       5.115   3.712  15.789  0.00  0.00    +0.000 A 
ATOM      7  C   UNL     1       5.182   3.952  17.174  0.00  0.00    +0.000 A 
ENDROOT
BRANCH   1   9
ATOM      8  C   UNL     1       7.442   5.617  19.516  0.00  0.00    +0.000 C 
ATOM      9  O   UNL     1       6.347   4.836  19.042  0.00  0.00    +0.000 OA
ENDBRANCH   1   9
BRANCH   7  10
ATOM     10  C   UNL     1       4.072   3.395  18.052  0.00  0.00    +0.000 C 
BRANCH  10  11
ATOM     11  O   UNL     1       4.649   2.598  19.093  0.00  0.00    +0.000 OA
ATOM     12  H   UNL     1       5.541   2.966  19.239  0.00  0.00    +0.000 HD
ENDBRANCH  10  11
BRANCH  10  13
ATOM     13  C   UNL     1       3.130   4.443  18.700  0.00  0.00    +0.000 C 
BRANCH  13  14
ATOM     14  N   UNL     1       3.264   4.605  20.157  0.00  0.00    +0.000 NA
ATOM     15  H   UNL     1       3.491   5.581  20.363  0.00  0.00    +0.000 HD
BRANCH  14  16
ATOM     16  C   UNL     1       2.046   4.220  20.884  0.00  0.00    +0.000 C 
ATOM     17  C   UNL     1       0.890   3.871  19.941  0.00  0.00    +0.000 C 
ATOM     18  C   UNL     1       2.359   3.010  21.768  0.00  0.00    +0.000 C 
ENDBRANCH  14  16
ENDBRANCH  13  14
ENDBRANCH  10  13
ENDBRANCH   7  10
TORSDOF 6
ENDMDL
MODEL 3
REMARK VINA RESULT:      -6.0      1.909      3.175
REMARK  Name = 
REMARK  10 active torsions:
REMARK  status: ('A' for Active; 'I' for Inactive)
REMARK    1  A    between atoms: C_1  and  O_2
REMARK    2  A    between atoms: O_2  and  C_3
REMARK    3  A    between atoms: C_6  and  C_7
REMARK    4  A    between atoms: C_9  and  C_10
REMARK    5  A    between atoms: C_10  and  O_11
REMARK    6  A    between atoms: C_10  and  C_12
REMARK    7  A    between atoms: C_12  and  N_13
REMARK    8  A    between atoms: N_13  and  C_14
REMARK    9  A    between atoms: C_14  and  C_15
REMARK   10  A    between atoms: C_14  and  C_16
REMARK                            x       y       z     vdW  Elec       q    Type
REMARK                         _______ _______ _______ _____ _____    ______ ____
ROOT
ATOM      1  C   UNL     1       6.227   5.066  17.642  0.00  0.00    +0.000 A 
ATOM      2  C   UNL     1       7.089   5.598  16.675  0.00  0.00    +0.000 A 
ATOM      3  C   UNL     1       6.999   5.203  15.337  0.00  0.00    +0.000 A 
ATOM      4  C   UNL     1       6.045   4.259  14.948  0.00  0.00    +0.000 A 
ATOM      5  C   UNL     1       5.941   3.815  13.522  0.00  0.00    +0.000 C 
ATOM      6  C   UNL     1       5.187   3.723  15.917  0.00  0.00    +0.000 A 
ATOM      7  C   UNL     1       5.260   4.113  17.267  0.00  0.00    +0.000 A 
ENDROOT
BRANCH   1   9
ATOM      8  C   UNL     1       7.611   5.738  19.443  0.00  0.00    +0.000 C 
ATOM      9  O   UNL     1       6.312   5.379  18.976  0.00  0.00    +0.000 OA
ENDBRANCH   1   9
BRANCH   7  10
ATOM     10  C   UNL     1       4.305   3.461  18.253  0.00  0.00    +0.000 C 
BRANCH  10  11
ATOM     11  O   UNL     1       5.036   3.041  19.412  0.00  0.00    +0.000 OA
ATOM     12  H   UNL     1       5.977   3.161  19.183  0.00  0.00    +0.000 HD
ENDBRANCH  10  11
BRANCH  10  13
ATOM     13  C   UNL     1       3.108   4.332  18.716  0.00  0.00    +0.000 C 
BRANCH  13  14
ATOM     14  N   UNL     1       1.834   3.617  18.901  0.00  0.00    +0.000 NA
ATOM     15  H   UNL     1       2.009   2.611  18.859  0.00  0.00    +0.000 HD
BRANCH  14  16
ATOM     16  C   UNL     1       1.179   3.949  20.175  0.00  0.00    +0.000 C 
ATOM     17  C   UNL     1       1.397   2.870  21.240  0.00  0.00    +0.000 C 
ATOM     18  C   UNL     1       1.734   5.281  20.685  0.00  0.00    +0.000 C 
ENDBRANCH  14  16
ENDBRANCH  13  14
ENDBRANCH  10  13
ENDBRANCH   7  10
TORSDOF 6
ENDMDL
MODEL 4
REMARK VINA RESULT:      -6.0      2.166      3.333
REMARK  Name = 
REMARK  10 active torsions:
REMARK  status: ('A' for Active; 'I' for Inactive)
REMARK    1  A    between atoms: C_1  and  O_2
REMARK    2  A    between atoms: O_2  and  C_3
REMARK    3  A    between atoms: C_6  and  C_7
REMARK    4  A    between atoms: C_9  and  C_10
REMARK    5  A    between atoms: C_10  and  O_11
REMARK    6  A    between atoms: C_10  and  C_12
REMARK    7  A    between atoms: C_12  and  N_13
REMARK    8  A    between atoms: N_13  and  C_14
REMARK    9  A    between atoms: C_14  and  C_15
REMARK   10  A    between atoms: C_14  and  C_16
REMARK                            x       y       z     vdW  Elec       q    Type
REMARK                         _______ _______ _______ _____ _____    ______ ____
ROOT
ATOM      1  C   UNL     1       6.495   4.810  18.143  0.00  0.00    +0.000 A 
ATOM      2  C   UNL     1       7.446   4.831  17.115  0.00  0.00    +0.000 A 
ATOM      3  C   UNL     1       7.075   4.588  15.790  0.00  0.00    +0.000 A 
ATOM      4  C   UNL     1       5.743   4.311  15.473  0.00  0.00    +0.000 A 
ATOM      5  C   UNL     1       5.330   4.036  14.061  0.00  0.00    +0.000 C 
ATOM      6  C   UNL     1       4.794   4.284  16.503  0.00  0.00    +0.000 A 
ATOM      7  C   UNL     1       5.148   4.531  17.843  0.00  0.00    +0.000 A 
ENDROOT
BRANCH   1   9
ATOM      8  C   UNL     1       8.013   5.721  19.717  0.00  0.00    +0.000 C 
ATOM      9  O   UNL     1       6.817   4.986  19.466  0.00  0.00    +0.000 OA
ENDBRANCH   1   9
BRANCH   7  10
ATOM     10  C   UNL     1       4.055   4.457  18.897  0.00  0.00    +0.000 C 
BRANCH  10  11
ATOM     11  O   UNL     1       4.172   5.580  19.779  0.00  0.00    +0.000 OA
ATOM     12  H   UNL     1       4.988   5.423  20.292  0.00  0.00    +0.000 HD
ENDBRANCH  10  11
BRANCH  10  13
ATOM     13  C   UNL     1       2.600   4.401  18.363  0.00  0.00    +0.000 C 
BRANCH  13  14
ATOM     14  N   UNL     1       1.545   4.615  19.367  0.00  0.00    +0.000 NA
ATOM     15  H   UNL     1       0.852   5.264  18.988  0.00  0.00    +0.000 HD
BRANCH  14  16
ATOM     16  C   UNL     1       0.880   3.365  19.764  0.00  0.00    +0.000 C 
ATOM     17  C   UNL     1       1.108   2.237  18.754  0.00  0.00    +0.000 C 
ATOM     18  C   UNL     1       1.415   2.933  21.132  0.00  0.00    +0.000 C 
ENDBRANCH  14  16
ENDBRANCH  13  14
ENDBRANCH  10  13
ENDBRANCH   7  10
TORSDOF 6
ENDMDL
MODEL 5
REMARK VINA RESULT:      -5.9      2.568      4.793
REMARK  Name = 
REMARK  10 active torsions:
REMARK  status: ('A' for Active; 'I' for Inactive)
REMARK    1  A    between atoms: C_1  and  O_2
REMARK    2  A    between atoms: O_2  and  C_3
REMARK    3  A    between atoms: C_6  and  C_7
REMARK    4  A    between atoms: C_9  and  C_10
REMARK    5  A    between atoms: C_10  and  O_11
REMARK    6  A    between atoms: C_10  and  C_12
REMARK    7  A    between atoms: C_12  and  N_13
REMARK    8  A    between atoms: N_13  and  C_14
REMARK    9  A    between atoms: C_14  and  C_15
REMARK   10  A    between atoms: C_14  and  C_16
REMARK                            x       y       z     vdW  Elec       q    Type
REMARK                         _______ _______ _______ _____ _____    ______ ____
ROOT
ATOM      1  C   UNL     1       3.772   4.104  18.720  0.00  0.00    +0.000 A 
ATOM      2  C   UNL     1       2.638   4.567  19.399  0.00  0.00    +0.000 A 
ATOM      3  C   UNL     1       2.134   5.849  19.162  0.00  0.00    +0.000 A 
ATOM      4  C   UNL     1       2.765   6.693  18.245  0.00  0.00    +0.000 A 
ATOM      5  C   UNL     1       2.247   8.073  17.987  0.00  0.00    +0.000 C 
ATOM      6  C   UNL     1       3.903   6.231  17.570  0.00  0.00    +0.000 A 
ATOM      7  C   UNL     1       4.422   4.941  17.792  0.00  0.00    +0.000 A 
ENDROOT
BRANCH   1   9
ATOM      8  C   UNL     1       3.505   1.750  18.692  0.00  0.00    +0.000 C 
ATOM      9  O   UNL     1       4.339   2.876  18.958  0.00  0.00    +0.000 OA
ENDBRANCH   1   9
BRANCH   7  10
ATOM     10  C   UNL     1       5.674   4.534  17.034  0.00  0.00    +0.000 C 
BRANCH  10  11
ATOM     11  O   UNL     1       5.408   3.340  16.287  0.00  0.00    +0.000 OA
ATOM     12  H   UNL     1       5.404   2.618  16.943  0.00  0.00    +0.000 HD
ENDBRANCH  10  11
BRANCH  10  13
ATOM     13  C   UNL     1       6.259   5.598  16.069  0.00  0.00    +0.000 C 
BRANCH  13  14
ATOM     14  N   UNL     1       7.504   6.245  16.514  0.00  0.00    +0.000 NA
ATOM     15  H   UNL     1       7.813   6.902  15.793  0.00  0.00    +0.000 HD
BRANCH  14  16
ATOM     16  C   UNL     1       7.347   6.956  17.791  0.00  0.00    +0.000 C 
ATOM     17  C   UNL     1       8.010   6.216  18.956  0.00  0.00    +0.000 C 
ATOM     18  C   UNL     1       7.966   8.350  17.661  0.00  0.00    +0.000 C 
ENDBRANCH  14  16
ENDBRANCH  13  14
ENDBRANCH  10  13
ENDBRANCH   7  10
TORSDOF 6
ENDMDL
MODEL 6
REMARK VINA RESULT:      -5.9      1.272      2.947
REMARK  Name = 
REMARK  10 active torsions:
REMARK  status: ('A' for Active; 'I' for Inactive)
REMARK    1  A    between atoms: C_1  and  O_2
REMARK    2  A    between atoms: O_2  and  C_3
REMARK    3  A    between atoms: C_6  and  C_7
REMARK    4  A    between atoms: C_9  and  C_10
REMARK    5  A    between atoms: C_10  and  O_11
REMARK    6  A    between atoms: C_10  and  C_12
REMARK    7  A    between atoms: C_12  and  N_13
REMARK    8  A    between atoms: N_13  and  C_14
REMARK    9  A    between atoms: C_14  and  C_15
REMARK   10  A    between atoms: C_14  and  C_16
REMARK                            x       y       z     vdW  Elec       q    Type
REMARK                         _______ _______ _______ _____ _____    ______ ____
ROOT
ATOM      1  C   UNL     1       4.609   5.453  17.345  0.00  0.00    +0.000 A 
ATOM      2  C   UNL     1       5.105   6.338  16.381  0.00  0.00    +0.000 A 
ATOM      3  C   UNL     1       5.630   5.865  15.175  0.00  0.00    +0.000 A 
ATOM      4  C   UNL     1       5.672   4.492  14.919  0.00  0.00    +0.000 A 
ATOM      5  C   UNL     1       6.241   3.966  13.638  0.00  0.00    +0.000 C 
ATOM      6  C   UNL     1       5.181   3.607  15.887  0.00  0.00    +0.000 A 
ATOM      7  C   UNL     1       4.644   4.066  17.105  0.00  0.00    +0.000 A 
ENDROOT
BRANCH   1   9
ATOM      8  C   UNL     1       2.993   6.716  18.531  0.00  0.00    +0.000 C 
ATOM      9  O   UNL     1       4.136   5.863  18.567  0.00  0.00    +0.000 OA
ENDBRANCH   1   9
BRANCH   7  10
ATOM     10  C   UNL     1       4.157   3.032  18.107  0.00  0.00    +0.000 C 
BRANCH  10  11
ATOM     11  O   UNL     1       4.917   3.149  19.316  0.00  0.00    +0.000 OA
ATOM     12  H   UNL     1       5.452   2.334  19.366  0.00  0.00    +0.000 HD
ENDBRANCH  10  11
BRANCH  10  13
ATOM     13  C   UNL     1       2.649   3.094  18.467  0.00  0.00    +0.000 C 
BRANCH  13  14
ATOM     14  N   UNL     1       2.175   2.061  19.402  0.00  0.00    +0.000 NA
ATOM     15  H   UNL     1       2.977   1.522  19.737  0.00  0.00    +0.000 HD
BRANCH  14  16
ATOM     16  C   UNL     1       1.450   2.626  20.549  0.00  0.00    +0.000 C 
ATOM     17  C   UNL     1       2.333   2.744  21.795  0.00  0.00    +0.000 C 
ATOM     18  C   UNL     1       0.925   4.012  20.169  0.00  0.00    +0.000 C 
ENDBRANCH  14  16
ENDBRANCH  13  14
ENDBRANCH  10  13
ENDBRANCH   7  10
TORSDOF 6
ENDMDL
MODEL 7
REMARK VINA RESULT:      -5.9      2.046      4.670
REMARK  Name = 
REMARK  10 active torsions:
REMARK  status: ('A' for Active; 'I' for Inactive)
REMARK    1  A    between atoms: C_1  and  O_2
REMARK    2  A    between atoms: O_2  and  C_3
REMARK    3  A    between atoms: C_6  and  C_7
REMARK    4  A    between atoms: C_9  and  C_10
REMARK    5  A    between atoms: C_10  and  O_11
REMARK    6  A    between atoms: C_10  and  C_12
REMARK    7  A    between atoms: C_12  and  N_13
REMARK    8  A    between atoms: N_13  and  C_14
REMARK    9  A    between atoms: C_14  and  C_15
REMARK   10  A    between atoms: C_14  and  C_16
REMARK                            x       y       z     vdW  Elec       q    Type
REMARK                         _______ _______ _______ _____ _____    ______ ____
ROOT
ATOM      1  C   UNL     1       2.662   4.454  20.015  0.00  0.00    +0.000 A 
ATOM      2  C   UNL     1       2.058   5.556  20.632  0.00  0.00    +0.000 A 
ATOM      3  C   UNL     1       1.986   6.792  19.983  0.00  0.00    +0.000 A 
ATOM      4  C   UNL     1       2.527   6.946  18.705  0.00  0.00    +0.000 A 
ATOM      5  C   UNL     1       2.470   8.264  17.999  0.00  0.00    +0.000 C 
ATOM      6  C   UNL     1       3.137   5.844  18.090  0.00  0.00    +0.000 A 
ATOM      7  C   UNL     1       3.214   4.591  18.726  0.00  0.00    +0.000 A 
ENDROOT
BRANCH   1   9
ATOM      8  C   UNL     1       1.656   2.749  21.315  0.00  0.00    +0.000 C 
ATOM      9  O   UNL     1       2.809   3.236  20.631  0.00  0.00    +0.000 OA
ENDBRANCH   1   9
BRANCH   7  10
ATOM     10  C   UNL     1       3.916   3.459  17.994  0.00  0.00    +0.000 C 
BRANCH  10  11
ATOM     11  O   UNL     1       3.014   2.354  17.857  0.00  0.00    +0.000 OA
ATOM     12  H   UNL     1       3.550   1.557  18.032  0.00  0.00    +0.000 HD
ENDBRANCH  10  11
BRANCH  10  13
ATOM     13  C   UNL     1       4.484   3.806  16.593  0.00  0.00    +0.000 C 
BRANCH  13  14
ATOM     14  N   UNL     1       5.875   3.393  16.350  0.00  0.00    +0.000 NA
ATOM     15  H   UNL     1       5.919   2.874  15.470  0.00  0.00    +0.000 HD
BRANCH  14  16
ATOM     16  C   UNL     1       6.802   4.533  16.294  0.00  0.00    +0.000 C 
ATOM     17  C   UNL     1       6.082   5.858  16.024  0.00  0.00    +0.000 C 
ATOM     18  C   UNL     1       7.551   4.628  17.626  0.00  0.00    +0.000 C 
ENDBRANCH  14  16
ENDBRANCH  13  14
ENDBRANCH  10  13
ENDBRANCH   7  10
TORSDOF 6
ENDMDL
MODEL 8
REMARK VINA RESULT:      -5.9      3.015      5.713
REMARK  Name = 
REMARK  10 active torsions:
REMARK  status: ('A' for Active; 'I' for Inactive)
REMARK    1  A    between atoms: C_1  and  O_2
REMARK    2  A    between atoms: O_2  and  C_3
REMARK    3  A    between atoms: C_6  and  C_7
REMARK    4  A    between atoms: C_9  and  C_10
REMARK    5  A    between atoms: C_10  and  O_11
REMARK    6  A    between atoms: C_10  and  C_12
REMARK    7  A    between atoms: C_12  and  N_13
REMARK    8  A    between atoms: N_13  and  C_14
REMARK    9  A    between atoms: C_14  and  C_15
REMARK   10  A    between atoms: C_14  and  C_16
REMARK                            x       y       z     vdW  Elec       q    Type
REMARK                         _______ _______ _______ _____ _____    ______ ____
ROOT
ATOM      1  C   UNL     1       5.899   5.199  18.006  0.00  0.00    +0.000 A 
ATOM      2  C   UNL     1       5.178   4.924  19.174  0.00  0.00    +0.000 A 
ATOM      3  C   UNL     1       3.995   4.181  19.130  0.00  0.00    +0.000 A 
ATOM      4  C   UNL     1       3.510   3.707  17.909  0.00  0.00    +0.000 A 
ATOM      5  C   UNL     1       2.238   2.921  17.840  0.00  0.00    +0.000 C 
ATOM      6  C   UNL     1       4.228   3.988  16.739  0.00  0.00    +0.000 A 
ATOM      7  C   UNL     1       5.424   4.730  16.766  0.00  0.00    +0.000 A 
ENDROOT
BRANCH   1   9
ATOM      8  C   UNL     1       7.849   5.894  19.157  0.00  0.00    +0.000 C 
ATOM      9  O   UNL     1       7.034   5.970  17.989  0.00  0.00    +0.000 OA
ENDBRANCH   1   9
BRANCH   7  10
ATOM     10  C   UNL     1       6.124   5.007  15.445  0.00  0.00    +0.000 C 
BRANCH  10  11
ATOM     11  O   UNL     1       7.506   4.645  15.557  0.00  0.00    +0.000 OA
ATOM     12  H   UNL     1       7.702   4.119  14.758  0.00  0.00    +0.000 HD
ENDBRANCH  10  11
BRANCH  10  13
ATOM     13  C   UNL     1       5.529   4.297  14.200  0.00  0.00    +0.000 C 
BRANCH  13  14
ATOM     14  N   UNL     1       6.430   3.358  13.512  0.00  0.00    +0.000 NA
ATOM     15  H   UNL     1       6.310   2.426  13.916  0.00  0.00    +0.000 HD
BRANCH  14  16
ATOM     16  C   UNL     1       6.187   3.299  12.063  0.00  0.00    +0.000 C 
ATOM     17  C   UNL     1       6.767   2.033  11.426  0.00  0.00    +0.000 C 
ATOM     18  C   UNL     1       4.677   3.344  11.813  0.00  0.00    +0.000 C 
ENDBRANCH  14  16
ENDBRANCH  13  14
ENDBRANCH  10  13
ENDBRANCH   7  10
TORSDOF 6
ENDMDL
MODEL 9
REMARK VINA RESULT:      -5.9      2.160      3.086
REMARK  Name = 
REMARK  10 active torsions:
REMARK  status: ('A' for Active; 'I' for Inactive)
REMARK    1  A    between atoms: C_1  and  O_2
REMARK    2  A    between atoms: O_2  and  C_3
REMARK    3  A    between atoms: C_6  and  C_7
REMARK    4  A    between atoms: C_9  and  C_10
REMARK    5  A    between atoms: C_10  and  O_11
REMARK    6  A    between atoms: C_10  and  C_12
REMARK    7  A    between atoms: C_12  and  N_13
REMARK    8  A    between atoms: N_13  and  C_14
REMARK    9  A    between atoms: C_14  and  C_15
REMARK   10  A    between atoms: C_14  and  C_16
REMARK                            x       y       z     vdW  Elec       q    Type
REMARK                         _______ _______ _______ _____ _____    ______ ____
ROOT
ATOM      1  C   UNL     1       6.568   4.709  18.038  0.00  0.00    +0.000 A 
ATOM      2  C   UNL     1       7.446   4.876  16.961  0.00  0.00    +0.000 A 
ATOM      3  C   UNL     1       7.027   4.636  15.649  0.00  0.00    +0.000 A 
ATOM      4  C   UNL     1       5.719   4.216  15.397  0.00  0.00    +0.000 A 
ATOM      5  C   UNL     1       5.256   3.943  14.000  0.00  0.00    +0.000 C 
ATOM      6  C   UNL     1       4.843   4.043  16.476  0.00  0.00    +0.000 A 
ATOM      7  C   UNL     1       5.246   4.284  17.803  0.00  0.00    +0.000 A 
ENDROOT
BRANCH   1   9
ATOM      8  C   UNL     1       8.019   5.790  19.567  0.00  0.00    +0.000 C 
ATOM      9  O   UNL     1       6.946   4.876  19.347  0.00  0.00    +0.000 OA
ENDBRANCH   1   9
BRANCH   7  10
ATOM     10  C   UNL     1       4.235   4.047  18.913  0.00  0.00    +0.000 C 
BRANCH  10  11
ATOM     11  O   UNL     1       4.061   5.256  19.661  0.00  0.00    +0.000 OA
ATOM     12  H   UNL     1       4.735   5.224  20.367  0.00  0.00    +0.000 HD
ENDBRANCH  10  11
BRANCH  10  13
ATOM     13  C   UNL     1       2.839   3.543  18.461  0.00  0.00    +0.000 C 
BRANCH  13  14
ATOM     14  N   UNL     1       2.357   2.322  19.127  0.00  0.00    +0.000 NA
ATOM     15  H   UNL     1       3.162   1.762  19.417  0.00  0.00    +0.000 HD
BRANCH  14  16
ATOM     16  C   UNL     1       1.513   2.610  20.296  0.00  0.00    +0.000 C 
ATOM     17  C   UNL     1       2.316   2.648  21.600  0.00  0.00    +0.000 C 
ATOM     18  C   UNL     1       0.824   3.961  20.088  0.00  0.00    +0.000 C 
ENDBRANCH  14  16
ENDBRANCH  13  14
ENDBRANCH  10  13
ENDBRANCH   7  10
TORSDOF 6
ENDMDL
