MODEL 1
REMARK VINA RESULT:      -7.7      0.000      0.000
REMARK  Name = 
REMARK  9 active torsions:
REMARK  status: ('A' for Active; 'I' for Inactive)
REMARK    1  A    between atoms: C_1  and  C_2
REMARK    2  A    between atoms: C_5  and  C_6
REMARK    3  A    between atoms: C_6  and  C_8
REMARK    4  A    between atoms: C_8  and  C_9
REMARK    5  A    between atoms: C_9  and  C_10
REMARK    6  A    between atoms: C_10  and  O_12
REMARK    7  A    between atoms: O_12  and  C_13
REMARK    8  A    between atoms: C_13  and  C_14
REMARK    9  A    between atoms: C_17  and  C_18
REMARK                            x       y       z     vdW  Elec       q    Type
REMARK                         _______ _______ _______ _____ _____    ______ ____
ROOT
ATOM      1  C   UNL     1       1.554   3.170  20.843  0.00  0.00    +0.000 C 
ATOM      2  O   UNL     1       1.852   2.794  21.964  0.00  0.00    +0.000 OA
ENDROOT
BRANCH   1   3
ATOM      3  C   UNL     1       1.097   4.573  20.491  0.00  0.00    +0.000 C 
BRANCH   3   4
ATOM      4  C   UNL     1       2.208   5.596  20.746  0.00  0.00    +0.000 C 
BRANCH   4   5
ATOM      5  C   UNL     1       2.119   6.815  19.842  0.00  0.00    +0.000 C 
ATOM      6  O   UNL     1       2.584   6.809  18.696  0.00  0.00    +0.000 OA
BRANCH   5  11
ATOM      7  C   UNL     1      -0.435  11.616  21.947  0.00  0.00    +0.000 C 
ATOM      8  C   UNL     1       0.209  10.373  21.404  0.00  0.00    +0.000 A 
ATOM      9  C   UNL     1       0.447   9.264  22.222  0.00  0.00    +0.000 A 
ATOM     10  C   UNL     1       1.062   8.117  21.703  0.00  0.00    +0.000 A 
ATOM     11  C   UNL     1       1.451   8.057  20.357  0.00  0.00    +0.000 A 
ATOM     12  C   UNL     1       1.205   9.166  19.538  0.00  0.00    +0.000 A 
ATOM     13  C   UNL     1       0.590  10.312  20.059  0.00  0.00    +0.000 A 
ENDBRANCH   5  11
ENDBRANCH   4   5
ENDBRANCH   3   4
ENDBRANCH   1   3
BRANCH   1  14
ATOM     14  O   UNL     1       1.522   2.370  19.738  0.00  0.00    +0.000 OA
BRANCH  14  15
ATOM     15  C   UNL     1       2.809   1.849  19.341  0.00  0.00    +0.000 C 
BRANCH  15  16
ATOM     16  C   UNL     1       3.466   2.880  18.492  0.00  0.00    +0.000 A 
ATOM     17  N   UNL     1       3.197   3.208  17.246  0.00  0.00    +0.000 NA
ATOM     18  N   UNL     1       4.040   4.243  16.924  0.00  0.00    +0.000 NA
ATOM     19  C   UNL     1       4.782   4.479  17.987  0.00  0.00    +0.000 A 
ATOM     20  O   UNL     1       4.484   3.635  19.033  0.00  0.00    +0.000 OA
BRANCH  19  21
ATOM     21  C   UNL     1       5.844   5.467  18.140  0.00  0.00    +0.000 A 
ATOM     22  C   UNL     1       5.862   6.581  17.279  0.00  0.00    +0.000 A 
ATOM     23  C   UNL     1       6.935   7.475  17.280  0.00  0.00    +0.000 A 
ATOM     24  C   UNL     1       7.999   7.278  18.154  0.00  0.00    +0.000 A 
ATOM     25  C   UNL     1       7.975   6.204  19.045  0.00  0.00    +0.000 A 
ATOM     26  C   UNL     1       6.898   5.309  19.049  0.00  0.00    +0.000 A 
ENDBRANCH  19  21
ENDBRANCH  15  16
ENDBRANCH  14  15
ENDBRANCH   1  14
TORSDOF 8
ENDMDL
MODEL 2
REMARK VINA RESULT:      -7.6      3.958      5.491
REMARK  Name = 
REMARK  9 active torsions:
REMARK  status: ('A' for Active; 'I' for Inactive)
REMARK    1  A    between atoms: C_1  and  C_2
REMARK    2  A    between atoms: C_5  and  C_6
REMARK    3  A    between atoms: C_6  and  C_8
REMARK    4  A    between atoms: C_8  and  C_9
REMARK    5  A    between atoms: C_9  and  C_10
REMARK    6  A    between atoms: C_10  and  O_12
REMARK    7  A    between atoms: O_12  and  C_13
REMARK    8  A    between atoms: C_13  and  C_14
REMARK    9  A    between atoms: C_17  and  C_18
REMARK                            x       y       z     vdW  Elec       q    Type
REMARK                         _______ _______ _______ _____ _____    ______ ____
ROOT
ATOM      1  C   UNL     1       5.939   4.820  18.981  0.00  0.00    +0.000 C 
ATOM      2  O   UNL     1       6.682   5.287  19.828  0.00  0.00    +0.000 OA
ENDROOT
BRANCH   1   3
ATOM      3  C   UNL     1       4.821   3.834  19.257  0.00  0.00    +0.000 C 
BRANCH   3   4
ATOM      4  C   UNL     1       4.075   3.470  17.970  0.00  0.00    +0.000 C 
BRANCH   4   5
ATOM      5  C   UNL     1       2.652   4.004  17.930  0.00  0.00    +0.000 C 
ATOM      6  O   UNL     1       1.784   3.488  17.216  0.00  0.00    +0.000 OA
BRANCH   5  11
ATOM      7  C   UNL     1       1.278   8.544  21.321  0.00  0.00    +0.000 C 
ATOM      8  C   UNL     1       1.617   7.374  20.444  0.00  0.00    +0.000 A 
ATOM      9  C   UNL     1       1.375   6.062  20.861  0.00  0.00    +0.000 A 
ATOM     10  C   UNL     1       1.709   4.980  20.035  0.00  0.00    +0.000 A 
ATOM     11  C   UNL     1       2.295   5.190  18.778  0.00  0.00    +0.000 A 
ATOM     12  C   UNL     1       2.531   6.506  18.360  0.00  0.00    +0.000 A 
ATOM     13  C   UNL     1       2.194   7.586  19.186  0.00  0.00    +0.000 A 
ENDBRANCH   5  11
ENDBRANCH   4   5
ENDBRANCH   3   4
ENDBRANCH   1   3
BRANCH   1  14
ATOM     14  O   UNL     1       6.040   5.061  17.641  0.00  0.00    +0.000 OA
BRANCH  14  15
ATOM     15  C   UNL     1       7.360   4.856  17.095  0.00  0.00    +0.000 C 
BRANCH  15  16
ATOM     16  C   UNL     1       7.233   4.836  15.613  0.00  0.00    +0.000 A 
ATOM     17  N   UNL     1       7.864   5.579  14.727  0.00  0.00    +0.000 NA
ATOM     18  N   UNL     1       7.443   5.152  13.492  0.00  0.00    +0.000 NA
ATOM     19  C   UNL     1       6.574   4.183  13.693  0.00  0.00    +0.000 A 
ATOM     20  O   UNL     1       6.373   3.929  15.032  0.00  0.00    +0.000 OA
BRANCH  19  21
ATOM     21  C   UNL     1       5.828   3.423  12.698  0.00  0.00    +0.000 A 
ATOM     22  C   UNL     1       6.438   2.299  12.108  0.00  0.00    +0.000 A 
ATOM     23  C   UNL     1       5.832   1.626  11.044  0.00  0.00    +0.000 A 
ATOM     24  C   UNL     1       4.600   2.057  10.565  0.00  0.00    +0.000 A 
ATOM     25  C   UNL     1       3.961   3.141  11.168  0.00  0.00    +0.000 A 
ATOM     26  C   UNL     1       4.564   3.814  12.238  0.00  0.00    +0.000 A 
ENDBRANCH  19  21
ENDBRANCH  15  16
ENDBRANCH  14  15
ENDBRANCH   1  14
TORSDOF 8
ENDMDL
MODEL 3
REMARK VINA RESULT:      -7.5      0.569      1.446
REMARK  Name = 
REMARK  9 active torsions:
REMARK  status: ('A' for Active; 'I' for Inactive)
REMARK    1  A    between atoms: C_1  and  C_2
REMARK    2  A    between atoms: C_5  and  C_6
REMARK    3  A    between atoms: C_6  and  C_8
REMARK    4  A    between atoms: C_8  and  C_9
REMARK    5  A    between atoms: C_9  and  C_10
REMARK    6  A    between atoms: C_10  and  O_12
REMARK    7  A    between atoms: O_12  and  C_13
REMARK    8  A    between atoms: C_13  and  C_14
REMARK    9  A    between atoms: C_17  and  C_18
REMARK                            x       y       z     vdW  Elec       q    Type
REMARK                         _______ _______ _______ _____ _____    ______ ____
ROOT
ATOM      1  C   UNL     1       1.948   3.164  21.243  0.00  0.00    +0.000 C 
ATOM      2  O   UNL     1       1.469   2.663  22.246  0.00  0.00    +0.000 OA
ENDROOT
BRANCH   1   3
ATOM      3  C   UNL     1       1.396   4.386  20.534  0.00  0.00    +0.000 C 
BRANCH   3   4
ATOM      4  C   UNL     1       2.275   5.615  20.785  0.00  0.00    +0.000 C 
BRANCH   4   5
ATOM      5  C   UNL     1       2.126   6.686  19.717  0.00  0.00    +0.000 C 
ATOM      6  O   UNL     1       2.428   6.473  18.536  0.00  0.00    +0.000 OA
BRANCH   5  11
ATOM      7  C   UNL     1       0.036  11.943  21.129  0.00  0.00    +0.000 C 
ATOM      8  C   UNL     1       0.588  10.596  20.765  0.00  0.00    +0.000 A 
ATOM      9  C   UNL     1       0.904  10.276  19.441  0.00  0.00    +0.000 A 
ATOM     10  C   UNL     1       1.406   9.009  19.116  0.00  0.00    +0.000 A 
ATOM     11  C   UNL     1       1.600   8.036  20.107  0.00  0.00    +0.000 A 
ATOM     12  C   UNL     1       1.289   8.361  21.434  0.00  0.00    +0.000 A 
ATOM     13  C   UNL     1       0.788   9.629  21.758  0.00  0.00    +0.000 A 
ENDBRANCH   5  11
ENDBRANCH   4   5
ENDBRANCH   3   4
ENDBRANCH   1   3
BRANCH   1  14
ATOM     14  O   UNL     1       3.021   2.665  20.562  0.00  0.00    +0.000 OA
BRANCH  14  15
ATOM     15  C   UNL     1       2.734   2.271  19.203  0.00  0.00    +0.000 C 
BRANCH  15  16
ATOM     16  C   UNL     1       3.525   3.155  18.304  0.00  0.00    +0.000 A 
ATOM     17  N   UNL     1       3.362   3.368  17.015  0.00  0.00    +0.000 NA
ATOM     18  N   UNL     1       4.306   4.297  16.652  0.00  0.00    +0.000 NA
ATOM     19  C   UNL     1       4.997   4.589  17.735  0.00  0.00    +0.000 A 
ATOM     20  O   UNL     1       4.566   3.884  18.837  0.00  0.00    +0.000 OA
BRANCH  19  21
ATOM     21  C   UNL     1       6.124   5.505  17.864  0.00  0.00    +0.000 A 
ATOM     22  C   UNL     1       7.057   5.289  18.895  0.00  0.00    +0.000 A 
ATOM     23  C   UNL     1       8.067   6.217  19.160  0.00  0.00    +0.000 A 
ATOM     24  C   UNL     1       8.169   7.367  18.384  0.00  0.00    +0.000 A 
ATOM     25  C   UNL     1       7.281   7.573  17.328  0.00  0.00    +0.000 A 
ATOM     26  C   UNL     1       6.270   6.642  17.059  0.00  0.00    +0.000 A 
ENDBRANCH  19  21
ENDBRANCH  15  16
ENDBRANCH  14  15
ENDBRANCH   1  14
TORSDOF 8
ENDMDL
MODEL 4
REMARK VINA RESULT:      -7.5      1.063      1.867
REMARK  Name = 
REMARK  9 active torsions:
REMARK  status: ('A' for Active; 'I' for Inactive)
REMARK    1  A    between atoms: C_1  and  C_2
REMARK    2  A    between atoms: C_5  and  C_6
REMARK    3  A    between atoms: C_6  and  C_8
REMARK    4  A    between atoms: C_8  and  C_9
REMARK    5  A    between atoms: C_9  and  C_10
REMARK    6  A    between atoms: C_10  and  O_12
REMARK    7  A    between atoms: O_12  and  C_13
REMARK    8  A    between atoms: C_13  and  C_14
REMARK    9  A    between atoms: C_17  and  C_18
REMARK                            x       y       z     vdW  Elec       q    Type
REMARK                         _______ _______ _______ _____ _____    ______ ____
ROOT
ATOM      1  C   UNL     1       1.864   2.864  20.438  0.00  0.00    +0.000 C 
ATOM      2  O   UNL     1       2.422   2.513  21.464  0.00  0.00    +0.000 OA
ENDROOT
BRANCH   1   3
ATOM      3  C   UNL     1       1.048   4.132  20.283  0.00  0.00    +0.000 C 
BRANCH   3   4
ATOM      4  C   UNL     1       1.577   4.992  19.131  0.00  0.00    +0.000 C 
BRANCH   4   5
ATOM      5  C   UNL     1       2.475   6.128  19.594  0.00  0.00    +0.000 C 
ATOM      6  O   UNL     1       3.575   5.915  20.117  0.00  0.00    +0.000 OA
BRANCH   5  11
ATOM      7  C   UNL     1       0.660  11.608  18.770  0.00  0.00    +0.000 C 
ATOM      8  C   UNL     1       1.142  10.203  18.984  0.00  0.00    +0.000 A 
ATOM      9  C   UNL     1       1.770   9.488  17.959  0.00  0.00    +0.000 A 
ATOM     10  C   UNL     1       2.201   8.171  18.171  0.00  0.00    +0.000 A 
ATOM     11  C   UNL     1       2.011   7.544  19.411  0.00  0.00    +0.000 A 
ATOM     12  C   UNL     1       1.388   8.264  20.438  0.00  0.00    +0.000 A 
ATOM     13  C   UNL     1       0.958   9.581  20.224  0.00  0.00    +0.000 A 
ENDBRANCH   5  11
ENDBRANCH   4   5
ENDBRANCH   3   4
ENDBRANCH   1   3
BRANCH   1  14
ATOM     14  O   UNL     1       1.833   2.135  19.283  0.00  0.00    +0.000 OA
BRANCH  14  15
ATOM     15  C   UNL     1       3.122   1.655  18.846  0.00  0.00    +0.000 C 
BRANCH  15  16
ATOM     16  C   UNL     1       3.744   2.728  18.024  0.00  0.00    +0.000 A 
ATOM     17  N   UNL     1       3.435   3.105  16.800  0.00  0.00    +0.000 NA
ATOM     18  N   UNL     1       4.258   4.162  16.499  0.00  0.00    +0.000 NA
ATOM     19  C   UNL     1       5.028   4.362  17.549  0.00  0.00    +0.000 A 
ATOM     20  O   UNL     1       4.769   3.471  18.567  0.00  0.00    +0.000 OA
BRANCH  19  21
ATOM     21  C   UNL     1       6.084   5.355  17.714  0.00  0.00    +0.000 A 
ATOM     22  C   UNL     1       7.095   5.115  18.664  0.00  0.00    +0.000 A 
ATOM     23  C   UNL     1       8.042   6.095  18.971  0.00  0.00    +0.000 A 
ATOM     24  C   UNL     1       8.001   7.324  18.320  0.00  0.00    +0.000 A 
ATOM     25  C   UNL     1       7.033   7.560  17.343  0.00  0.00    +0.000 A 
ATOM     26  C   UNL     1       6.086   6.577  17.030  0.00  0.00    +0.000 A 
ENDBRANCH  19  21
ENDBRANCH  15  16
ENDBRANCH  14  15
ENDBRANCH   1  14
TORSDOF 8
ENDMDL
MODEL 5
REMARK VINA RESULT:      -7.4      3.903      6.481
REMARK  Name = 
REMARK  9 active torsions:
REMARK  status: ('A' for Active; 'I' for Inactive)
REMARK    1  A    between atoms: C_1  and  C_2
REMARK    2  A    between atoms: C_5  and  C_6
REMARK    3  A    between atoms: C_6  and  C_8
REMARK    4  A    between atoms: C_8  and  C_9
REMARK    5  A    between atoms: C_9  and  C_10
REMARK    6  A    between atoms: C_10  and  O_12
REMARK    7  A    between atoms: O_12  and  C_13
REMARK    8  A    between atoms: C_13  and  C_14
REMARK    9  A    between atoms: C_17  and  C_18
REMARK                            x       y       z     vdW  Elec       q    Type
REMARK                         _______ _______ _______ _____ _____    ______ ____
ROOT
ATOM      1  C   UNL     1       6.440   5.500  15.898  0.00  0.00    +0.000 C 
ATOM      2  O   UNL     1       5.868   6.126  15.022  0.00  0.00    +0.000 OA
ENDROOT
BRANCH   1   3
ATOM      3  C   UNL     1       5.889   4.264  16.583  0.00  0.00    +0.000 C 
BRANCH   3   4
ATOM      4  C   UNL     1       4.358   4.263  16.573  0.00  0.00    +0.000 C 
BRANCH   4   5
ATOM      5  C   UNL     1       3.751   5.099  17.688  0.00  0.00    +0.000 C 
ATOM      6  O   UNL     1       3.817   6.335  17.685  0.00  0.00    +0.000 OA
BRANCH   5  11
ATOM      7  C   UNL     1       1.145   2.390  22.146  0.00  0.00    +0.000 C 
ATOM      8  C   UNL     1       1.814   3.075  20.990  0.00  0.00    +0.000 A 
ATOM      9  C   UNL     1       3.150   2.814  20.667  0.00  0.00    +0.000 A 
ATOM     10  C   UNL     1       3.763   3.472  19.592  0.00  0.00    +0.000 A 
ATOM     11  C   UNL     1       3.054   4.405  18.822  0.00  0.00    +0.000 A 
ATOM     12  C   UNL     1       1.715   4.660  19.143  0.00  0.00    +0.000 A 
ATOM     13  C   UNL     1       1.103   4.000  20.217  0.00  0.00    +0.000 A 
ENDBRANCH   5  11
ENDBRANCH   4   5
ENDBRANCH   3   4
ENDBRANCH   1   3
BRANCH   1  14
ATOM     14  O   UNL     1       7.641   5.850  16.444  0.00  0.00    +0.000 OA
BRANCH  14  15
ATOM     15  C   UNL     1       7.569   6.265  17.825  0.00  0.00    +0.000 C 
BRANCH  15  16
ATOM     16  C   UNL     1       7.809   7.733  17.864  0.00  0.00    +0.000 A 
ATOM     17  N   UNL     1       7.182   8.683  17.203  0.00  0.00    +0.000 NA
ATOM     18  N   UNL     1       7.732   9.872  17.613  0.00  0.00    +0.000 NA
ATOM     19  C   UNL     1       8.669   9.580  18.491  0.00  0.00    +0.000 A 
ATOM     20  O   UNL     1       8.791   8.224  18.697  0.00  0.00    +0.000 OA
BRANCH  19  21
ATOM     21  C   UNL     1       9.556  10.497  19.199  0.00  0.00    +0.000 A 
ATOM     22  C   UNL     1       9.217  10.892  20.506  0.00  0.00    +0.000 A 
ATOM     23  C   UNL     1       9.945  11.881  21.172  0.00  0.00    +0.000 A 
ATOM     24  C   UNL     1      11.035  12.478  20.545  0.00  0.00    +0.000 A 
ATOM     25  C   UNL     1      11.411  12.065  19.267  0.00  0.00    +0.000 A 
ATOM     26  C   UNL     1      10.685  11.070  18.599  0.00  0.00    +0.000 A 
ENDBRANCH  19  21
ENDBRANCH  15  16
ENDBRANCH  14  15
ENDBRANCH   1  14
TORSDOF 8
ENDMDL
MODEL 6
REMARK VINA RESULT:      -7.4      3.999      7.729
REMARK  Name = 
REMARK  9 active torsions:
REMARK  status: ('A' for Active; 'I' for Inactive)
REMARK    1  A    between atoms: C_1  and  C_2
REMARK    2  A    between atoms: C_5  and  C_6
REMARK    3  A    between atoms: C_6  and  C_8
REMARK    4  A    between atoms: C_8  and  C_9
REMARK    5  A    between atoms: C_9  and  C_10
REMARK    6  A    between atoms: C_10  and  O_12
REMARK    7  A    between atoms: O_12  and  C_13
REMARK    8  A    between atoms: C_13  and  C_14
REMARK    9  A    between atoms: C_17  and  C_18
REMARK                            x       y       z     vdW  Elec       q    Type
REMARK                         _______ _______ _______ _____ _____    ______ ____
ROOT
ATOM      1  C   UNL     1       7.431   6.897  17.669  0.00  0.00    +0.000 C 
ATOM      2  O   UNL     1       7.901   6.136  18.499  0.00  0.00    +0.000 OA
ENDROOT
BRANCH   1   3
ATOM      3  C   UNL     1       7.232   8.386  17.871  0.00  0.00    +0.000 C 
BRANCH   3   4
ATOM      4  C   UNL     1       8.468   9.174  17.426  0.00  0.00    +0.000 C 
BRANCH   4   5
ATOM      5  C   UNL     1       9.030  10.073  18.515  0.00  0.00    +0.000 C 
ATOM      6  O   UNL     1       9.045   9.725  19.702  0.00  0.00    +0.000 OA
BRANCH   5  11
ATOM      7  C   UNL     1      11.239  15.247  16.981  0.00  0.00    +0.000 C 
ATOM      8  C   UNL     1      10.678  13.916  17.390  0.00  0.00    +0.000 A 
ATOM      9  C   UNL     1      11.465  12.761  17.375  0.00  0.00    +0.000 A 
ATOM     10  C   UNL     1      10.921  11.524  17.747  0.00  0.00    +0.000 A 
ATOM     11  C   UNL     1       9.579  11.418  18.138  0.00  0.00    +0.000 A 
ATOM     12  C   UNL     1       8.793  12.578  18.159  0.00  0.00    +0.000 A 
ATOM     13  C   UNL     1       9.339  13.814  17.788  0.00  0.00    +0.000 A 
ENDBRANCH   5  11
ENDBRANCH   4   5
ENDBRANCH   3   4
ENDBRANCH   1   3
BRANCH   1  14
ATOM     14  O   UNL     1       6.949   6.514  16.450  0.00  0.00    +0.000 OA
BRANCH  14  15
ATOM     15  C   UNL     1       5.517   6.633  16.310  0.00  0.00    +0.000 C 
BRANCH  15  16
ATOM     16  C   UNL     1       4.915   5.352  16.769  0.00  0.00    +0.000 A 
ATOM     17  N   UNL     1       5.034   4.154  16.234  0.00  0.00    +0.000 NA
ATOM     18  N   UNL     1       4.335   3.295  17.046  0.00  0.00    +0.000 NA
ATOM     19  C   UNL     1       3.822   4.017  18.021  0.00  0.00    +0.000 A 
ATOM     20  O   UNL     1       4.137   5.353  17.906  0.00  0.00    +0.000 OA
BRANCH  19  21
ATOM     21  C   UNL     1       2.979   3.570  19.123  0.00  0.00    +0.000 A 
ATOM     22  C   UNL     1       1.615   3.921  19.118  0.00  0.00    +0.000 A 
ATOM     23  C   UNL     1       0.797   3.652  20.217  0.00  0.00    +0.000 A 
ATOM     24  C   UNL     1       1.327   3.012  21.333  0.00  0.00    +0.000 A 
ATOM     25  C   UNL     1       2.665   2.617  21.337  0.00  0.00    +0.000 A 
ATOM     26  C   UNL     1       3.486   2.882  20.233  0.00  0.00    +0.000 A 
ENDBRANCH  19  21
ENDBRANCH  15  16
ENDBRANCH  14  15
ENDBRANCH   1  14
TORSDOF 8
ENDMDL
MODEL 7
REMARK VINA RESULT:      -7.4      1.528      2.387
REMARK  Name = 
REMARK  9 active torsions:
REMARK  status: ('A' for Active; 'I' for Inactive)
REMARK    1  A    between atoms: C_1  and  C_2
REMARK    2  A    between atoms: C_5  and  C_6
REMARK    3  A    between atoms: C_6  and  C_8
REMARK    4  A    between atoms: C_8  and  C_9
REMARK    5  A    between atoms: C_9  and  C_10
REMARK    6  A    between atoms: C_10  and  O_12
REMARK    7  A    between atoms: O_12  and  C_13
REMARK    8  A    between atoms: C_13  and  C_14
REMARK    9  A    between atoms: C_17  and  C_18
REMARK                            x       y       z     vdW  Elec       q    Type
REMARK                         _______ _______ _______ _____ _____    ______ ____
ROOT
ATOM      1  C   UNL     1       1.595   2.498  19.320  0.00  0.00    +0.000 C 
ATOM      2  O   UNL     1       0.837   2.486  18.364  0.00  0.00    +0.000 OA
ENDROOT
BRANCH   1   3
ATOM      3  C   UNL     1       1.255   3.049  20.691  0.00  0.00    +0.000 C 
BRANCH   3   4
ATOM      4  C   UNL     1       1.054   4.567  20.642  0.00  0.00    +0.000 C 
BRANCH   4   5
ATOM      5  C   UNL     1       2.310   5.326  20.247  0.00  0.00    +0.000 C 
ATOM      6  O   UNL     1       3.437   4.832  20.380  0.00  0.00    +0.000 OA
BRANCH   5  11
ATOM      7  C   UNL     1       1.793  10.661  17.952  0.00  0.00    +0.000 C 
ATOM      8  C   UNL     1       1.941   9.290  18.546  0.00  0.00    +0.000 A 
ATOM      9  C   UNL     1       2.519   8.244  17.819  0.00  0.00    +0.000 A 
ATOM     10  C   UNL     1       2.637   6.967  18.384  0.00  0.00    +0.000 A 
ATOM     11  C   UNL     1       2.178   6.711  19.684  0.00  0.00    +0.000 A 
ATOM     12  C   UNL     1       1.606   7.762  20.412  0.00  0.00    +0.000 A 
ATOM     13  C   UNL     1       1.490   9.038  19.847  0.00  0.00    +0.000 A 
ENDBRANCH   5  11
ENDBRANCH   4   5
ENDBRANCH   3   4
ENDBRANCH   1   3
BRANCH   1  14
ATOM     14  O   UNL     1       2.892   2.073  19.288  0.00  0.00    +0.000 OA
BRANCH  14  15
ATOM     15  C   UNL     1       3.387   1.767  17.967  0.00  0.00    +0.000 C 
BRANCH  15  16
ATOM     16  C   UNL     1       3.971   3.016  17.407  0.00  0.00    +0.000 A 
ATOM     17  N   UNL     1       3.588   3.694  16.344  0.00  0.00    +0.000 NA
ATOM     18  N   UNL     1       4.407   4.793  16.269  0.00  0.00    +0.000 NA
ATOM     19  C   UNL     1       5.248   4.718  17.280  0.00  0.00    +0.000 A 
ATOM     20  O   UNL     1       5.042   3.596  18.051  0.00  0.00    +0.000 OA
BRANCH  19  21
ATOM     21  C   UNL     1       6.328   5.636  17.622  0.00  0.00    +0.000 A 
ATOM     22  C   UNL     1       7.113   5.365  18.758  0.00  0.00    +0.000 A 
ATOM     23  C   UNL     1       8.058   6.284  19.218  0.00  0.00    +0.000 A 
ATOM     24  C   UNL     1       8.245   7.483  18.537  0.00  0.00    +0.000 A 
ATOM     25  C   UNL     1       7.507   7.747  17.383  0.00  0.00    +0.000 A 
ATOM     26  C   UNL     1       6.562   6.824  16.918  0.00  0.00    +0.000 A 
ENDBRANCH  19  21
ENDBRANCH  15  16
ENDBRANCH  14  15
ENDBRANCH   1  14
TORSDOF 8
ENDMDL
MODEL 8
REMARK VINA RESULT:      -7.4      1.110      1.436
REMARK  Name = 
REMARK  9 active torsions:
REMARK  status: ('A' for Active; 'I' for Inactive)
REMARK    1  A    between atoms: C_1  and  C_2
REMARK    2  A    between atoms: C_5  and  C_6
REMARK    3  A    between atoms: C_6  and  C_8
REMARK    4  A    between atoms: C_8  and  C_9
REMARK    5  A    between atoms: C_9  and  C_10
REMARK    6  A    between atoms: C_10  and  O_12
REMARK    7  A    between atoms: O_12  and  C_13
REMARK    8  A    between atoms: C_13  and  C_14
REMARK    9  A    between atoms: C_17  and  C_18
REMARK                            x       y       z     vdW  Elec       q    Type
REMARK                         _______ _______ _______ _____ _____    ______ ____
ROOT
ATOM      1  C   UNL     1       1.300   3.142  20.141  0.00  0.00    +0.000 C 
ATOM      2  O   UNL     1       1.448   2.273  20.983  0.00  0.00    +0.000 OA
ENDROOT
BRANCH   1   3
ATOM      3  C   UNL     1       0.889   4.572  20.432  0.00  0.00    +0.000 C 
BRANCH   3   4
ATOM      4  C   UNL     1       2.112   5.489  20.536  0.00  0.00    +0.000 C 
BRANCH   4   5
ATOM      5  C   UNL     1       2.100   6.622  19.524  0.00  0.00    +0.000 C 
ATOM      6  O   UNL     1       2.496   6.461  18.363  0.00  0.00    +0.000 OA
BRANCH   5  11
ATOM      7  C   UNL     1       0.171  11.840  21.271  0.00  0.00    +0.000 C 
ATOM      8  C   UNL     1       0.653  10.492  20.821  0.00  0.00    +0.000 A 
ATOM      9  C   UNL     1       0.744   9.419  21.713  0.00  0.00    +0.000 A 
ATOM     10  C   UNL     1       1.209   8.171  21.279  0.00  0.00    +0.000 A 
ATOM     11  C   UNL     1       1.594   7.971  19.946  0.00  0.00    +0.000 A 
ATOM     12  C   UNL     1       1.495   9.044  19.051  0.00  0.00    +0.000 A 
ATOM     13  C   UNL     1       1.029  10.292  19.487  0.00  0.00    +0.000 A 
ENDBRANCH   5  11
ENDBRANCH   4   5
ENDBRANCH   3   4
ENDBRANCH   1   3
BRANCH   1  14
ATOM     14  O   UNL     1       1.417   2.947  18.795  0.00  0.00    +0.000 OA
BRANCH  14  15
ATOM     15  C   UNL     1       2.517   2.095  18.409  0.00  0.00    +0.000 C 
BRANCH  15  16
ATOM     16  C   UNL     1       3.776   2.783  18.806  0.00  0.00    +0.000 A 
ATOM     17  N   UNL     1       4.609   2.470  19.777  0.00  0.00    +0.000 NA
ATOM     18  N   UNL     1       5.641   3.372  19.711  0.00  0.00    +0.000 NA
ATOM     19  C   UNL     1       5.375   4.190  18.713  0.00  0.00    +0.000 A 
ATOM     20  O   UNL     1       4.185   3.886  18.090  0.00  0.00    +0.000 OA
BRANCH  19  21
ATOM     21  C   UNL     1       6.155   5.334  18.255  0.00  0.00    +0.000 A 
ATOM     22  C   UNL     1       7.372   5.624  18.899  0.00  0.00    +0.000 A 
ATOM     23  C   UNL     1       8.083   6.790  18.604  0.00  0.00    +0.000 A 
ATOM     24  C   UNL     1       7.595   7.675  17.648  0.00  0.00    +0.000 A 
ATOM     25  C   UNL     1       6.413   7.379  16.969  0.00  0.00    +0.000 A 
ATOM     26  C   UNL     1       5.701   6.208  17.259  0.00  0.00    +0.000 A 
ENDBRANCH  19  21
ENDBRANCH  15  16
ENDBRANCH  14  15
ENDBRANCH   1  14
TORSDOF 8
ENDMDL
MODEL 9
REMARK VINA RESULT:      -7.2      3.733      7.046
REMARK  Name = 
REMARK  9 active torsions:
REMARK  status: ('A' for Active; 'I' for Inactive)
REMARK    1  A    between atoms: C_1  and  C_2
REMARK    2  A    between atoms: C_5  and  C_6
REMARK    3  A    between atoms: C_6  and  C_8
REMARK    4  A    between atoms: C_8  and  C_9
REMARK    5  A    between atoms: C_9  and  C_10
REMARK    6  A    between atoms: C_10  and  O_12
REMARK    7  A    between atoms: O_12  and  C_13
REMARK    8  A    between atoms: C_13  and  C_14
REMARK    9  A    between atoms: C_17  and  C_18
REMARK                            x       y       z     vdW  Elec       q    Type
REMARK                         _______ _______ _______ _____ _____    ______ ____
ROOT
ATOM      1  C   UNL     1       7.623   5.416  17.611  0.00  0.00    +0.000 C 
ATOM      2  O   UNL     1       8.027   4.305  17.909  0.00  0.00    +0.000 OA
ENDROOT
BRANCH   1   3
ATOM      3  C   UNL     1       7.356   6.537  18.597  0.00  0.00    +0.000 C 
BRANCH   3   4
ATOM      4  C   UNL     1       8.505   7.550  18.606  0.00  0.00    +0.000 C 
BRANCH   4   5
ATOM      5  C   UNL     1       8.117   8.903  18.032  0.00  0.00    +0.000 C 
ATOM      6  O   UNL     1       7.255   9.011  17.150  0.00  0.00    +0.000 OA
BRANCH   5  11
ATOM      7  C   UNL     1      10.690  13.760  19.976  0.00  0.00    +0.000 C 
ATOM      8  C   UNL     1      10.040  12.507  19.466  0.00  0.00    +0.000 A 
ATOM      9  C   UNL     1       9.403  12.475  18.222  0.00  0.00    +0.000 A 
ATOM     10  C   UNL     1       8.789  11.301  17.767  0.00  0.00    +0.000 A 
ATOM     11  C   UNL     1       8.798  10.136  18.548  0.00  0.00    +0.000 A 
ATOM     12  C   UNL     1       9.442  10.168  19.791  0.00  0.00    +0.000 A 
ATOM     13  C   UNL     1      10.057  11.343  20.244  0.00  0.00    +0.000 A 
ENDBRANCH   5  11
ENDBRANCH   4   5
ENDBRANCH   3   4
ENDBRANCH   1   3
BRANCH   1  14
ATOM     14  O   UNL     1       7.284   5.806  16.347  0.00  0.00    +0.000 OA
BRANCH  14  15
ATOM     15  C   UNL     1       6.148   5.109  15.792  0.00  0.00    +0.000 C 
BRANCH  15  16
ATOM     16  C   UNL     1       5.002   5.312  16.719  0.00  0.00    +0.000 A 
ATOM     17  N   UNL     1       4.249   6.382  16.868  0.00  0.00    +0.000 NA
ATOM     18  N   UNL     1       3.299   6.062  17.805  0.00  0.00    +0.000 NA
ATOM     19  C   UNL     1       3.532   4.822  18.183  0.00  0.00    +0.000 A 
ATOM     20  O   UNL     1       4.620   4.274  17.541  0.00  0.00    +0.000 OA
BRANCH  19  21
ATOM     21  C   UNL     1       2.812   4.033  19.176  0.00  0.00    +0.000 A 
ATOM     22  C   UNL     1       1.407   4.114  19.215  0.00  0.00    +0.000 A 
ATOM     23  C   UNL     1       0.678   3.502  20.238  0.00  0.00    +0.000 A 
ATOM     24  C   UNL     1       1.343   2.787  21.228  0.00  0.00    +0.000 A 
ATOM     25  C   UNL     1       2.732   2.660  21.179  0.00  0.00    +0.000 A 
ATOM     26  C   UNL     1       3.464   3.268  20.151  0.00  0.00    +0.000 A 
ENDBRANCH  19  21
ENDBRANCH  15  16
ENDBRANCH  14  15
ENDBRANCH   1  14
TORSDOF 8
ENDMDL
