MODEL 1
REMARK VINA RESULT:      -7.5      0.000      0.000
REMARK  Name = 
REMARK  10 active torsions:
REMARK  status: ('A' for Active; 'I' for Inactive)
REMARK    1  A    between atoms: C_1  and  C_2
REMARK    2  A    between atoms: C_2  and  C_3
REMARK    3  A    between atoms: C_2  and  C_4
REMARK    4  A    between atoms: C_4  and  N_5
REMARK    5  A    between atoms: C_4  and  C_22
REMARK    6  A    between atoms: N_5  and  S_6
REMARK    7  A    between atoms: S_6  and  C_9
REMARK    8  A    between atoms: C_12  and  C_13
REMARK    9  A    between atoms: C_19  and  N_20
REMARK   10  A    between atoms: C_22  and  O_24
REMARK                            x       y       z     vdW  Elec       q    Type
REMARK                         _______ _______ _______ _____ _____    ______ ____
ROOT
ATOM      1  C   UNL     1       2.819   6.720  18.890  0.00  0.00    +0.000 A 
ATOM      2  C   UNL     1       2.223   6.699  20.143  0.00  0.00    +0.000 A 
ATOM      3  C   UNL     1       1.415   7.773  20.524  0.00  0.00    +0.000 A 
ATOM      4  C   UNL     1       1.216   8.899  19.694  0.00  0.00    +0.000 A 
ATOM      5  C   UNL     1       1.863   8.908  18.427  0.00  0.00    +0.000 A 
ATOM      6  C   UNL     1       2.663   7.817  18.047  0.00  0.00    +0.000 A 
ENDROOT
BRANCH   4   7
ATOM      7  C   UNL     1       0.324   9.993  20.180  0.00  0.00    +0.000 A 
ATOM      8  C   UNL     1       0.516  10.585  21.443  0.00  0.00    +0.000 A 
ATOM      9  C   UNL     1      -0.326  11.597  21.917  0.00  0.00    +0.000 A 
ATOM     10  C   UNL     1      -1.364  12.068  21.121  0.00  0.00    +0.000 A 
ATOM     11  C   UNL     1      -1.585  11.499  19.872  0.00  0.00    +0.000 A 
ATOM     12  C   UNL     1      -0.773  10.451  19.426  0.00  0.00    +0.000 A 
ENDBRANCH   4   7
BRANCH   1  13
ATOM     13  S   UNL     1       3.844   5.375  18.375  0.00  0.00    +0.000 S 
ATOM     14  O   UNL     1       5.197   5.844  18.248  0.00  0.00    +0.000 OA
ATOM     15  O   UNL     1       3.155   4.708  17.293  0.00  0.00    +0.000 OA
BRANCH  13  16
ATOM     16  N   UNL     1       3.774   4.287  19.683  0.00  0.00    +0.000 NA
ATOM     17  H   UNL     1       4.647   4.280  20.213  0.00  0.00    +0.000 HD
BRANCH  16  18
ATOM     18  C   UNL     1       3.199   2.905  19.481  0.00  0.00    +0.000 C 
BRANCH  18  20
ATOM     19  C   UNL     1       2.027   3.178  21.729  0.00  0.00    +0.000 C 
ATOM     20  C   UNL     1       1.906   2.653  20.288  0.00  0.00    +0.000 C 
ATOM     21  C   UNL     1       0.681   3.347  19.673  0.00  0.00    +0.000 C 
ENDBRANCH  18  20
BRANCH  18  22
ATOM     22  C   UNL     1       4.334   1.863  19.617  0.00  0.00    +0.000 C 
ATOM     23  O   UNL     1       5.138   1.793  20.532  0.00  0.00    +0.000 OA
BRANCH  22  24
ATOM     24  O   UNL     1       4.263   0.906  18.651  0.00  0.00    +0.000 OA
ATOM     25  H   UNL     1       4.572   0.046  19.008  0.00  0.00    +0.000 HD
ENDBRANCH  22  24
ENDBRANCH  18  22
ENDBRANCH  16  18
ENDBRANCH  13  16
ENDBRANCH   1  13
BRANCH   5  26
ATOM     26  N   UNL     1       1.933  10.040  17.601  0.00  0.00    +0.000 N 
ATOM     27  H   UNL     1       1.081  10.324  17.133  0.00  0.00    +0.000 HD
ATOM     28  H   UNL     1       2.764  10.121  17.027  0.00  0.00    +0.000 HD
ENDBRANCH   5  26
TORSDOF 8
ENDMDL
MODEL 2
REMARK VINA RESULT:      -7.5      0.240      1.007
REMARK  Name = 
REMARK  10 active torsions:
REMARK  status: ('A' for Active; 'I' for Inactive)
REMARK    1  A    between atoms: C_1  and  C_2
REMARK    2  A    between atoms: C_2  and  C_3
REMARK    3  A    between atoms: C_2  and  C_4
REMARK    4  A    between atoms: C_4  and  N_5
REMARK    5  A    between atoms: C_4  and  C_22
REMARK    6  A    between atoms: N_5  and  S_6
REMARK    7  A    between atoms: S_6  and  C_9
REMARK    8  A    between atoms: C_12  and  C_13
REMARK    9  A    between atoms: C_19  and  N_20
REMARK   10  A    between atoms: C_22  and  O_24
REMARK                            x       y       z     vdW  Elec       q    Type
REMARK                         _______ _______ _______ _____ _____    ______ ____
ROOT
ATOM      1  C   UNL     1       2.767   6.698  18.991  0.00  0.00    +0.000 A 
ATOM      2  C   UNL     1       2.181   6.685  20.249  0.00  0.00    +0.000 A 
ATOM      3  C   UNL     1       1.373   7.760  20.628  0.00  0.00    +0.000 A 
ATOM      4  C   UNL     1       1.165   8.880  19.790  0.00  0.00    +0.000 A 
ATOM      5  C   UNL     1       1.801   8.880  18.519  0.00  0.00    +0.000 A 
ATOM      6  C   UNL     1       2.602   7.788  18.141  0.00  0.00    +0.000 A 
ENDROOT
BRANCH   4   7
ATOM      7  C   UNL     1       0.274   9.975  20.275  0.00  0.00    +0.000 A 
ATOM      8  C   UNL     1      -0.714  10.535  19.442  0.00  0.00    +0.000 A 
ATOM      9  C   UNL     1      -1.541  11.575  19.880  0.00  0.00    +0.000 A 
ATOM     10  C   UNL     1      -1.424  12.060  21.177  0.00  0.00    +0.000 A 
ATOM     11  C   UNL     1      -0.452  11.534  22.022  0.00  0.00    +0.000 A 
ATOM     12  C   UNL     1       0.408  10.531  21.561  0.00  0.00    +0.000 A 
ENDBRANCH   4   7
BRANCH   1  13
ATOM     13  S   UNL     1       3.791   5.352  18.479  0.00  0.00    +0.000 S 
ATOM     14  O   UNL     1       5.162   5.784  18.480  0.00  0.00    +0.000 OA
ATOM     15  O   UNL     1       3.169   4.766  17.313  0.00  0.00    +0.000 OA
BRANCH  13  16
ATOM     16  N   UNL     1       3.593   4.197  19.714  0.00  0.00    +0.000 NA
ATOM     17  H   UNL     1       4.375   4.212  20.372  0.00  0.00    +0.000 HD
BRANCH  16  18
ATOM     18  C   UNL     1       3.141   2.798  19.370  0.00  0.00    +0.000 C 
BRANCH  18  20
ATOM     19  C   UNL     1       1.598   3.101  21.377  0.00  0.00    +0.000 C 
ATOM     20  C   UNL     1       1.794   2.410  20.016  0.00  0.00    +0.000 C 
ATOM     21  C   UNL     1       0.588   2.804  19.149  0.00  0.00    +0.000 C 
ENDBRANCH  18  20
BRANCH  18  22
ATOM     22  C   UNL     1       4.328   1.824  19.566  0.00  0.00    +0.000 C 
ATOM     23  O   UNL     1       5.117   1.833  20.495  0.00  0.00    +0.000 OA
BRANCH  22  24
ATOM     24  O   UNL     1       4.324   0.828  18.638  0.00  0.00    +0.000 OA
ATOM     25  H   UNL     1       4.838   0.060  18.969  0.00  0.00    +0.000 HD
ENDBRANCH  22  24
ENDBRANCH  18  22
ENDBRANCH  16  18
ENDBRANCH  13  16
ENDBRANCH   1  13
BRANCH   5  26
ATOM     26  N   UNL     1       1.862  10.006  17.684  0.00  0.00    +0.000 N 
ATOM     27  H   UNL     1       1.176  10.068  16.941  0.00  0.00    +0.000 HD
ATOM     28  H   UNL     1       2.790  10.308  17.412  0.00  0.00    +0.000 HD
ENDBRANCH   5  26
TORSDOF 8
ENDMDL
MODEL 3
REMARK VINA RESULT:      -7.4      2.839      3.868
REMARK  Name = 
REMARK  10 active torsions:
REMARK  status: ('A' for Active; 'I' for Inactive)
REMARK    1  A    between atoms: C_1  and  C_2
REMARK    2  A    between atoms: C_2  and  C_3
REMARK    3  A    between atoms: C_2  and  C_4
REMARK    4  A    between atoms: C_4  and  N_5
REMARK    5  A    between atoms: C_4  and  C_22
REMARK    6  A    between atoms: N_5  and  S_6
REMARK    7  A    between atoms: S_6  and  C_9
REMARK    8  A    between atoms: C_12  and  C_13
REMARK    9  A    between atoms: C_19  and  N_20
REMARK   10  A    between atoms: C_22  and  O_24
REMARK                            x       y       z     vdW  Elec       q    Type
REMARK                         _______ _______ _______ _____ _____    ______ ____
ROOT
ATOM      1  C   UNL     1       3.135   5.772  18.642  0.00  0.00    +0.000 A 
ATOM      2  C   UNL     1       2.660   5.539  19.924  0.00  0.00    +0.000 A 
ATOM      3  C   UNL     1       1.939   6.546  20.571  0.00  0.00    +0.000 A 
ATOM      4  C   UNL     1       1.713   7.810  19.980  0.00  0.00    +0.000 A 
ATOM      5  C   UNL     1       2.237   8.032  18.676  0.00  0.00    +0.000 A 
ATOM      6  C   UNL     1       2.949   7.008  18.029  0.00  0.00    +0.000 A 
ENDROOT
BRANCH   4   7
ATOM      7  C   UNL     1       0.920   8.820  20.741  0.00  0.00    +0.000 A 
ATOM      8  C   UNL     1       0.916   8.836  22.149  0.00  0.00    +0.000 A 
ATOM      9  C   UNL     1       0.161   9.766  22.872  0.00  0.00    +0.000 A 
ATOM     10  C   UNL     1      -0.585  10.728  22.202  0.00  0.00    +0.000 A 
ATOM     11  C   UNL     1      -0.610  10.734  20.812  0.00  0.00    +0.000 A 
ATOM     12  C   UNL     1       0.104   9.768  20.094  0.00  0.00    +0.000 A 
ENDBRANCH   4   7
BRANCH   1  13
ATOM     13  S   UNL     1       4.046   4.517  17.794  0.00  0.00    +0.000 S 
ATOM     14  O   UNL     1       3.139   3.748  16.987  0.00  0.00    +0.000 OA
ATOM     15  O   UNL     1       4.924   3.903  18.765  0.00  0.00    +0.000 OA
BRANCH  13  16
ATOM     16  N   UNL     1       5.075   5.393  16.759  0.00  0.00    +0.000 NA
ATOM     17  H   UNL     1       4.658   5.521  15.835  0.00  0.00    +0.000 HD
BRANCH  16  18
ATOM     18  C   UNL     1       6.546   5.054  16.697  0.00  0.00    +0.000 C 
BRANCH  18  20
ATOM     19  C   UNL     1       6.817   7.490  17.396  0.00  0.00    +0.000 C 
ATOM     20  C   UNL     1       7.446   6.086  17.410  0.00  0.00    +0.000 C 
ATOM     21  C   UNL     1       7.694   5.734  18.885  0.00  0.00    +0.000 C 
ENDBRANCH  18  20
BRANCH  18  22
ATOM     22  C   UNL     1       6.914   4.676  15.243  0.00  0.00    +0.000 C 
ATOM     23  O   UNL     1       7.713   5.260  14.530  0.00  0.00    +0.000 OA
BRANCH  22  24
ATOM     24  O   UNL     1       6.345   3.498  14.864  0.00  0.00    +0.000 OA
ATOM     25  H   UNL     1       5.367   3.578  14.883  0.00  0.00    +0.000 HD
ENDBRANCH  22  24
ENDBRANCH  18  22
ENDBRANCH  16  18
ENDBRANCH  13  16
ENDBRANCH   1  13
BRANCH   5  26
ATOM     26  N   UNL     1       2.278   9.294  18.064  0.00  0.00    +0.000 N 
ATOM     27  H   UNL     1       2.978   9.946  18.396  0.00  0.00    +0.000 HD
ATOM     28  H   UNL     1       1.381   9.720  17.862  0.00  0.00    +0.000 HD
ENDBRANCH   5  26
TORSDOF 8
ENDMDL
MODEL 4
REMARK VINA RESULT:      -7.3      2.819      3.949
REMARK  Name = 
REMARK  10 active torsions:
REMARK  status: ('A' for Active; 'I' for Inactive)
REMARK    1  A    between atoms: C_1  and  C_2
REMARK    2  A    between atoms: C_2  and  C_3
REMARK    3  A    between atoms: C_2  and  C_4
REMARK    4  A    between atoms: C_4  and  N_5
REMARK    5  A    between atoms: C_4  and  C_22
REMARK    6  A    between atoms: N_5  and  S_6
REMARK    7  A    between atoms: S_6  and  C_9
REMARK    8  A    between atoms: C_12  and  C_13
REMARK    9  A    between atoms: C_19  and  N_20
REMARK   10  A    between atoms: C_22  and  O_24
REMARK                            x       y       z     vdW  Elec       q    Type
REMARK                         _______ _______ _______ _____ _____    ______ ____
ROOT
ATOM      1  C   UNL     1       2.864   6.954  18.600  0.00  0.00    +0.000 A 
ATOM      2  C   UNL     1       2.685   7.846  17.553  0.00  0.00    +0.000 A 
ATOM      3  C   UNL     1       1.926   8.999  17.771  0.00  0.00    +0.000 A 
ATOM      4  C   UNL     1       1.301   9.267  19.010  0.00  0.00    +0.000 A 
ATOM      5  C   UNL     1       1.476   8.321  20.057  0.00  0.00    +0.000 A 
ATOM      6  C   UNL     1       2.253   7.170  19.832  0.00  0.00    +0.000 A 
ENDROOT
BRANCH   4   7
ATOM      7  C   UNL     1       0.521  10.532  19.155  0.00  0.00    +0.000 A 
ATOM      8  C   UNL     1      -0.830  10.606  18.764  0.00  0.00    +0.000 A 
ATOM      9  C   UNL     1      -1.564  11.791  18.876  0.00  0.00    +0.000 A 
ATOM     10  C   UNL     1      -0.973  12.927  19.417  0.00  0.00    +0.000 A 
ATOM     11  C   UNL     1       0.362  12.890  19.804  0.00  0.00    +0.000 A 
ATOM     12  C   UNL     1       1.106  11.717  19.639  0.00  0.00    +0.000 A 
ENDBRANCH   4   7
BRANCH   1  13
ATOM     13  S   UNL     1       3.822   5.488  18.359  0.00  0.00    +0.000 S 
ATOM     14  O   UNL     1       3.109   4.606  17.475  0.00  0.00    +0.000 OA
ATOM     15  O   UNL     1       4.283   5.064  19.662  0.00  0.00    +0.000 OA
BRANCH  13  16
ATOM     16  N   UNL     1       5.216   6.041  17.554  0.00  0.00    +0.000 NA
ATOM     17  H   UNL     1       4.992   6.419  16.632  0.00  0.00    +0.000 HD
BRANCH  16  18
ATOM     18  C   UNL     1       6.469   5.198  17.555  0.00  0.00    +0.000 C 
BRANCH  18  20
ATOM     19  C   UNL     1       7.639   7.455  17.751  0.00  0.00    +0.000 C 
ATOM     20  C   UNL     1       7.717   5.951  18.065  0.00  0.00    +0.000 C 
ATOM     21  C   UNL     1       7.897   5.832  19.587  0.00  0.00    +0.000 C 
ENDBRANCH  18  20
BRANCH  18  22
ATOM     22  C   UNL     1       6.587   4.471  16.194  0.00  0.00    +0.000 C 
ATOM     23  O   UNL     1       7.402   4.713  15.319  0.00  0.00    +0.000 OA
BRANCH  22  24
ATOM     24  O   UNL     1       5.752   3.398  16.118  0.00  0.00    +0.000 OA
ATOM     25  H   UNL     1       5.168   3.372  16.906  0.00  0.00    +0.000 HD
ENDBRANCH  22  24
ENDBRANCH  18  22
ENDBRANCH  16  18
ENDBRANCH  13  16
ENDBRANCH   1  13
BRANCH   5  26
ATOM     26  N   UNL     1       0.745   8.345  21.254  0.00  0.00    +0.000 N 
ATOM     27  H   UNL     1       0.426   7.456  21.619  0.00  0.00    +0.000 HD
ATOM     28  H   UNL     1       0.067   9.093  21.345  0.00  0.00    +0.000 HD
ENDBRANCH   5  26
TORSDOF 8
ENDMDL
MODEL 5
REMARK VINA RESULT:      -7.3      4.275      7.758
REMARK  Name = 
REMARK  10 active torsions:
REMARK  status: ('A' for Active; 'I' for Inactive)
REMARK    1  A    between atoms: C_1  and  C_2
REMARK    2  A    between atoms: C_2  and  C_3
REMARK    3  A    between atoms: C_2  and  C_4
REMARK    4  A    between atoms: C_4  and  N_5
REMARK    5  A    between atoms: C_4  and  C_22
REMARK    6  A    between atoms: N_5  and  S_6
REMARK    7  A    between atoms: S_6  and  C_9
REMARK    8  A    between atoms: C_12  and  C_13
REMARK    9  A    between atoms: C_19  and  N_20
REMARK   10  A    between atoms: C_22  and  O_24
REMARK                            x       y       z     vdW  Elec       q    Type
REMARK                         _______ _______ _______ _____ _____    ______ ____
ROOT
ATOM      1  C   UNL     1       1.373   9.689  19.247  0.00  0.00    +0.000 A 
ATOM      2  C   UNL     1       1.899   9.528  17.973  0.00  0.00    +0.000 A 
ATOM      3  C   UNL     1       2.421   8.283  17.610  0.00  0.00    +0.000 A 
ATOM      4  C   UNL     1       2.467   7.194  18.510  0.00  0.00    +0.000 A 
ATOM      5  C   UNL     1       1.948   7.395  19.818  0.00  0.00    +0.000 A 
ATOM      6  C   UNL     1       1.414   8.647  20.170  0.00  0.00    +0.000 A 
ENDROOT
BRANCH   4   7
ATOM      7  C   UNL     1       3.030   5.898  18.029  0.00  0.00    +0.000 A 
ATOM      8  C   UNL     1       4.401   5.758  17.742  0.00  0.00    +0.000 A 
ATOM      9  C   UNL     1       4.936   4.554  17.271  0.00  0.00    +0.000 A 
ATOM     10  C   UNL     1       4.114   3.444  17.109  0.00  0.00    +0.000 A 
ATOM     11  C   UNL     1       2.753   3.551  17.375  0.00  0.00    +0.000 A 
ATOM     12  C   UNL     1       2.216   4.774  17.794  0.00  0.00    +0.000 A 
ENDBRANCH   4   7
BRANCH   1  13
ATOM     13  S   UNL     1       0.702  11.249  19.736  0.00  0.00    +0.000 S 
ATOM     14  O   UNL     1      -0.656  11.338  19.271  0.00  0.00    +0.000 OA
ATOM     15  O   UNL     1       1.692  12.253  19.421  0.00  0.00    +0.000 OA
BRANCH  13  16
ATOM     16  N   UNL     1       0.680  11.166  21.437  0.00  0.00    +0.000 NA
ATOM     17  H   UNL     1       1.459  10.610  21.796  0.00  0.00    +0.000 HD
BRANCH  16  18
ATOM     18  C   UNL     1      -0.618  10.895  22.160  0.00  0.00    +0.000 C 
BRANCH  18  20
ATOM     19  C   UNL     1      -0.809  13.433  22.299  0.00  0.00    +0.000 C 
ATOM     20  C   UNL     1      -1.122  12.095  22.991  0.00  0.00    +0.000 C 
ATOM     21  C   UNL     1      -2.642  12.063  23.212  0.00  0.00    +0.000 C 
ENDBRANCH  18  20
BRANCH  18  22
ATOM     22  C   UNL     1      -0.518   9.528  22.877  0.00  0.00    +0.000 C 
ATOM     23  O   UNL     1      -0.877   8.453  22.426  0.00  0.00    +0.000 OA
BRANCH  22  24
ATOM     24  O   UNL     1       0.166   9.620  24.051  0.00  0.00    +0.000 OA
ATOM     25  H   UNL     1       0.346   8.722  24.405  0.00  0.00    +0.000 HD
ENDBRANCH  22  24
ENDBRANCH  18  22
ENDBRANCH  16  18
ENDBRANCH  13  16
ENDBRANCH   1  13
BRANCH   5  26
ATOM     26  N   UNL     1       2.126   6.485  20.871  0.00  0.00    +0.000 N 
ATOM     27  H   UNL     1       2.975   5.933  20.866  0.00  0.00    +0.000 HD
ATOM     28  H   UNL     1       1.302   5.967  21.155  0.00  0.00    +0.000 HD
ENDBRANCH   5  26
TORSDOF 8
ENDMDL
MODEL 6
REMARK VINA RESULT:      -7.3      2.803      4.034
REMARK  Name = 
REMARK  10 active torsions:
REMARK  status: ('A' for Active; 'I' for Inactive)
REMARK    1  A    between atoms: C_1  and  C_2
REMARK    2  A    between atoms: C_2  and  C_3
REMARK    3  A    between atoms: C_2  and  C_4
REMARK    4  A    between atoms: C_4  and  N_5
REMARK    5  A    between atoms: C_4  and  C_22
REMARK    6  A    between atoms: N_5  and  S_6
REMARK    7  A    between atoms: S_6  and  C_9
REMARK    8  A    between atoms: C_12  and  C_13
REMARK    9  A    between atoms: C_19  and  N_20
REMARK   10  A    between atoms: C_22  and  O_24
REMARK                            x       y       z     vdW  Elec       q    Type
REMARK                         _______ _______ _______ _____ _____    ______ ____
ROOT
ATOM      1  C   UNL     1       2.794   7.230  18.631  0.00  0.00    +0.000 A 
ATOM      2  C   UNL     1       2.547   8.161  17.631  0.00  0.00    +0.000 A 
ATOM      3  C   UNL     1       1.730   9.257  17.917  0.00  0.00    +0.000 A 
ATOM      4  C   UNL     1       1.113   9.430  19.177  0.00  0.00    +0.000 A 
ATOM      5  C   UNL     1       1.358   8.446  20.173  0.00  0.00    +0.000 A 
ATOM      6  C   UNL     1       2.193   7.353  19.880  0.00  0.00    +0.000 A 
ENDROOT
BRANCH   4   7
ATOM      7  C   UNL     1       0.267  10.641  19.395  0.00  0.00    +0.000 A 
ATOM      8  C   UNL     1       0.767  11.769  20.073  0.00  0.00    +0.000 A 
ATOM      9  C   UNL     1      -0.023  12.901  20.301  0.00  0.00    +0.000 A 
ATOM     10  C   UNL     1      -1.327  12.946  19.822  0.00  0.00    +0.000 A 
ATOM     11  C   UNL     1      -1.854  11.846  19.156  0.00  0.00    +0.000 A 
ATOM     12  C   UNL     1      -1.077  10.696  18.978  0.00  0.00    +0.000 A 
ENDBRANCH   4   7
BRANCH   1  13
ATOM     13  S   UNL     1       3.827   5.833  18.304  0.00  0.00    +0.000 S 
ATOM     14  O   UNL     1       3.114   4.916  17.456  0.00  0.00    +0.000 OA
ATOM     15  O   UNL     1       4.402   5.428  19.566  0.00  0.00    +0.000 OA
BRANCH  13  16
ATOM     16  N   UNL     1       5.123   6.487  17.415  0.00  0.00    +0.000 NA
ATOM     17  H   UNL     1       4.797   6.977  16.579  0.00  0.00    +0.000 HD
BRANCH  16  18
ATOM     18  C   UNL     1       6.357   5.653  17.162  0.00  0.00    +0.000 C 
BRANCH  18  20
ATOM     19  C   UNL     1       7.649   7.791  17.670  0.00  0.00    +0.000 C 
ATOM     20  C   UNL     1       7.642   6.255  17.770  0.00  0.00    +0.000 C 
ATOM     21  C   UNL     1       7.807   5.915  19.259  0.00  0.00    +0.000 C 
ENDBRANCH  18  20
BRANCH  18  22
ATOM     22  C   UNL     1       6.398   5.256  15.667  0.00  0.00    +0.000 C 
ATOM     23  O   UNL     1       7.354   5.376  14.919  0.00  0.00    +0.000 OA
BRANCH  22  24
ATOM     24  O   UNL     1       5.266   4.602  15.284  0.00  0.00    +0.000 OA
ATOM     25  H   UNL     1       5.403   3.633  15.345  0.00  0.00    +0.000 HD
ENDBRANCH  22  24
ENDBRANCH  18  22
ENDBRANCH  16  18
ENDBRANCH  13  16
ENDBRANCH   1  13
BRANCH   5  26
ATOM     26  N   UNL     1       0.648   8.372  21.381  0.00  0.00    +0.000 N 
ATOM     27  H   UNL     1      -0.304   8.717  21.379  0.00  0.00    +0.000 HD
ATOM     28  H   UNL     1       1.168   8.607  22.218  0.00  0.00    +0.000 HD
ENDBRANCH   5  26
TORSDOF 8
ENDMDL
MODEL 7
REMARK VINA RESULT:      -7.2      1.310      1.908
REMARK  Name = 
REMARK  10 active torsions:
REMARK  status: ('A' for Active; 'I' for Inactive)
REMARK    1  A    between atoms: C_1  and  C_2
REMARK    2  A    between atoms: C_2  and  C_3
REMARK    3  A    between atoms: C_2  and  C_4
REMARK    4  A    between atoms: C_4  and  N_5
REMARK    5  A    between atoms: C_4  and  C_22
REMARK    6  A    between atoms: N_5  and  S_6
REMARK    7  A    between atoms: S_6  and  C_9
REMARK    8  A    between atoms: C_12  and  C_13
REMARK    9  A    between atoms: C_19  and  N_20
REMARK   10  A    between atoms: C_22  and  O_24
REMARK                            x       y       z     vdW  Elec       q    Type
REMARK                         _______ _______ _______ _____ _____    ______ ____
ROOT
ATOM      1  C   UNL     1       2.502   7.248  18.752  0.00  0.00    +0.000 A 
ATOM      2  C   UNL     1       2.199   8.199  17.788  0.00  0.00    +0.000 A 
ATOM      3  C   UNL     1       1.491   9.343  18.166  0.00  0.00    +0.000 A 
ATOM      4  C   UNL     1       1.037   9.545  19.490  0.00  0.00    +0.000 A 
ATOM      5  C   UNL     1       1.335   8.540  20.451  0.00  0.00    +0.000 A 
ATOM      6  C   UNL     1       2.060   7.399  20.063  0.00  0.00    +0.000 A 
ENDROOT
BRANCH   4   7
ATOM      7  C   UNL     1       0.300  10.804  19.805  0.00  0.00    +0.000 A 
ATOM      8  C   UNL     1      -1.022  11.007  19.364  0.00  0.00    +0.000 A 
ATOM      9  C   UNL     1      -1.715  12.191  19.636  0.00  0.00    +0.000 A 
ATOM     10  C   UNL     1      -1.113  13.192  20.389  0.00  0.00    +0.000 A 
ATOM     11  C   UNL     1       0.195  13.028  20.831  0.00  0.00    +0.000 A 
ATOM     12  C   UNL     1       0.902  11.863  20.510  0.00  0.00    +0.000 A 
ENDBRANCH   4   7
BRANCH   1  13
ATOM     13  S   UNL     1       3.400   5.792  18.307  0.00  0.00    +0.000 S 
ATOM     14  O   UNL     1       4.767   6.151  18.043  0.00  0.00    +0.000 OA
ATOM     15  O   UNL     1       2.593   5.074  17.346  0.00  0.00    +0.000 OA
BRANCH  13  16
ATOM     16  N   UNL     1       3.358   4.843  19.719  0.00  0.00    +0.000 NA
ATOM     17  H   UNL     1       4.043   5.162  20.407  0.00  0.00    +0.000 HD
BRANCH  16  18
ATOM     18  C   UNL     1       3.292   3.338  19.611  0.00  0.00    +0.000 C 
BRANCH  18  20
ATOM     19  C   UNL     1       2.062   3.256  21.843  0.00  0.00    +0.000 C 
ATOM     20  C   UNL     1       2.122   2.715  20.403  0.00  0.00    +0.000 C 
ATOM     21  C   UNL     1       0.754   3.012  19.769  0.00  0.00    +0.000 C 
ENDBRANCH  18  20
BRANCH  18  22
ATOM     22  C   UNL     1       4.703   2.753  19.854  0.00  0.00    +0.000 C 
ATOM     23  O   UNL     1       4.967   1.772  20.529  0.00  0.00    +0.000 OA
BRANCH  22  24
ATOM     24  O   UNL     1       5.649   3.379  19.100  0.00  0.00    +0.000 OA
ATOM     25  H   UNL     1       5.784   4.295  19.425  0.00  0.00    +0.000 HD
ENDBRANCH  22  24
ENDBRANCH  18  22
ENDBRANCH  16  18
ENDBRANCH  13  16
ENDBRANCH   1  13
BRANCH   5  26
ATOM     26  N   UNL     1       0.767   8.502  21.733  0.00  0.00    +0.000 N 
ATOM     27  H   UNL     1       0.351   9.358  22.080  0.00  0.00    +0.000 HD
ATOM     28  H   UNL     1       1.285   7.984  22.434  0.00  0.00    +0.000 HD
ENDBRANCH   5  26
TORSDOF 8
ENDMDL
MODEL 8
REMARK VINA RESULT:      -7.2      1.229      1.837
REMARK  Name = 
REMARK  10 active torsions:
REMARK  status: ('A' for Active; 'I' for Inactive)
REMARK    1  A    between atoms: C_1  and  C_2
REMARK    2  A    between atoms: C_2  and  C_3
REMARK    3  A    between atoms: C_2  and  C_4
REMARK    4  A    between atoms: C_4  and  N_5
REMARK    5  A    between atoms: C_4  and  C_22
REMARK    6  A    between atoms: N_5  and  S_6
REMARK    7  A    between atoms: S_6  and  C_9
REMARK    8  A    between atoms: C_12  and  C_13
REMARK    9  A    between atoms: C_19  and  N_20
REMARK   10  A    between atoms: C_22  and  O_24
REMARK                            x       y       z     vdW  Elec       q    Type
REMARK                         _______ _______ _______ _____ _____    ______ ____
ROOT
ATOM      1  C   UNL     1       3.186   6.999  18.479  0.00  0.00    +0.000 A 
ATOM      2  C   UNL     1       2.918   7.937  17.492  0.00  0.00    +0.000 A 
ATOM      3  C   UNL     1       2.033   8.981  17.776  0.00  0.00    +0.000 A 
ATOM      4  C   UNL     1       1.371   9.092  19.020  0.00  0.00    +0.000 A 
ATOM      5  C   UNL     1       1.642   8.100  20.002  0.00  0.00    +0.000 A 
ATOM      6  C   UNL     1       2.543   7.061  19.713  0.00  0.00    +0.000 A 
ENDROOT
BRANCH   4   7
ATOM      7  C   UNL     1       0.454  10.249  19.237  0.00  0.00    +0.000 A 
ATOM      8  C   UNL     1       0.834  11.343  20.038  0.00  0.00    +0.000 A 
ATOM      9  C   UNL     1      -0.025  12.423  20.264  0.00  0.00    +0.000 A 
ATOM     10  C   UNL     1      -1.278  12.453  19.664  0.00  0.00    +0.000 A 
ATOM     11  C   UNL     1      -1.688  11.385  18.874  0.00  0.00    +0.000 A 
ATOM     12  C   UNL     1      -0.845  10.283  18.695  0.00  0.00    +0.000 A 
ENDBRANCH   4   7
BRANCH   1  13
ATOM     13  S   UNL     1       4.303   5.668  18.155  0.00  0.00    +0.000 S 
ATOM     14  O   UNL     1       5.651   6.163  18.232  0.00  0.00    +0.000 OA
ATOM     15  O   UNL     1       3.804   4.971  16.992  0.00  0.00    +0.000 OA
BRANCH  13  16
ATOM     16  N   UNL     1       4.050   4.600  19.455  0.00  0.00    +0.000 NA
ATOM     17  H   UNL     1       4.929   4.342  19.907  0.00  0.00    +0.000 HD
BRANCH  16  18
ATOM     18  C   UNL     1       3.107   3.430  19.295  0.00  0.00    +0.000 C 
BRANCH  18  20
ATOM     19  C   UNL     1       0.650   2.844  19.637  0.00  0.00    +0.000 C 
ATOM     20  C   UNL     1       1.908   3.469  20.266  0.00  0.00    +0.000 C 
ATOM     21  C   UNL     1       2.175   2.694  21.566  0.00  0.00    +0.000 C 
ENDBRANCH  18  20
BRANCH  18  22
ATOM     22  C   UNL     1       3.933   2.123  19.239  0.00  0.00    +0.000 C 
ATOM     23  O   UNL     1       3.649   1.122  18.604  0.00  0.00    +0.000 OA
BRANCH  22  24
ATOM     24  O   UNL     1       5.128   2.250  19.881  0.00  0.00    +0.000 OA
ATOM     25  H   UNL     1       5.506   3.139  19.711  0.00  0.00    +0.000 HD
ENDBRANCH  22  24
ENDBRANCH  18  22
ENDBRANCH  16  18
ENDBRANCH  13  16
ENDBRANCH   1  13
BRANCH   5  26
ATOM     26  N   UNL     1       0.901   7.961  21.186  0.00  0.00    +0.000 N 
ATOM     27  H   UNL     1       0.937   8.727  21.847  0.00  0.00    +0.000 HD
ATOM     28  H   UNL     1       0.923   7.044  21.619  0.00  0.00    +0.000 HD
ENDBRANCH   5  26
TORSDOF 8
ENDMDL
MODEL 9
REMARK VINA RESULT:      -7.2      1.273      1.762
REMARK  Name = 
REMARK  10 active torsions:
REMARK  status: ('A' for Active; 'I' for Inactive)
REMARK    1  A    between atoms: C_1  and  C_2
REMARK    2  A    between atoms: C_2  and  C_3
REMARK    3  A    between atoms: C_2  and  C_4
REMARK    4  A    between atoms: C_4  and  N_5
REMARK    5  A    between atoms: C_4  and  C_22
REMARK    6  A    between atoms: N_5  and  S_6
REMARK    7  A    between atoms: S_6  and  C_9
REMARK    8  A    between atoms: C_12  and  C_13
REMARK    9  A    between atoms: C_19  and  N_20
REMARK   10  A    between atoms: C_22  and  O_24
REMARK                            x       y       z     vdW  Elec       q    Type
REMARK                         _______ _______ _______ _____ _____    ______ ____
ROOT
ATOM      1  C   UNL     1       3.177   6.623  18.491  0.00  0.00    +0.000 A 
ATOM      2  C   UNL     1       2.933   7.505  17.449  0.00  0.00    +0.000 A 
ATOM      3  C   UNL     1       2.166   8.647  17.696  0.00  0.00    +0.000 A 
ATOM      4  C   UNL     1       1.595   8.912  18.962  0.00  0.00    +0.000 A 
ATOM      5  C   UNL     1       1.836   7.976  20.004  0.00  0.00    +0.000 A 
ATOM      6  C   UNL     1       2.620   6.837  19.749  0.00  0.00    +0.000 A 
ENDROOT
BRANCH   4   7
ATOM      7  C   UNL     1       0.802  10.165  19.136  0.00  0.00    +0.000 A 
ATOM      8  C   UNL     1      -0.587  10.124  19.362  0.00  0.00    +0.000 A 
ATOM      9  C   UNL     1      -1.344  11.292  19.507  0.00  0.00    +0.000 A 
ATOM     10  C   UNL     1      -0.721  12.534  19.463  0.00  0.00    +0.000 A 
ATOM     11  C   UNL     1       0.648  12.609  19.232  0.00  0.00    +0.000 A 
ATOM     12  C   UNL     1       1.390  11.440  19.035  0.00  0.00    +0.000 A 
ENDBRANCH   4   7
BRANCH   1  13
ATOM     13  S   UNL     1       4.147   5.171  18.213  0.00  0.00    +0.000 S 
ATOM     14  O   UNL     1       5.535   5.542  18.166  0.00  0.00    +0.000 OA
ATOM     15  O   UNL     1       3.509   4.434  17.146  0.00  0.00    +0.000 OA
BRANCH  13  16
ATOM     16  N   UNL     1       3.889   4.237  19.612  0.00  0.00    +0.000 NA
ATOM     17  H   UNL     1       4.711   4.234  20.219  0.00  0.00    +0.000 HD
BRANCH  16  18
ATOM     18  C   UNL     1       3.237   2.879  19.500  0.00  0.00    +0.000 C 
BRANCH  18  20
ATOM     19  C   UNL     1       2.213   3.328  21.791  0.00  0.00    +0.000 C 
ATOM     20  C   UNL     1       1.989   2.719  20.395  0.00  0.00    +0.000 C 
ATOM     21  C   UNL     1       0.749   3.413  19.811  0.00  0.00    +0.000 C 
ENDBRANCH  18  20
BRANCH  18  22
ATOM     22  C   UNL     1       4.328   1.787  19.603  0.00  0.00    +0.000 C 
ATOM     23  O   UNL     1       5.088   1.618  20.542  0.00  0.00    +0.000 OA
BRANCH  22  24
ATOM     24  O   UNL     1       4.266   0.908  18.565  0.00  0.00    +0.000 OA
ATOM     25  H   UNL     1       4.279  -0.012  18.904  0.00  0.00    +0.000 HD
ENDBRANCH  22  24
ENDBRANCH  18  22
ENDBRANCH  16  18
ENDBRANCH  13  16
ENDBRANCH   1  13
BRANCH   5  26
ATOM     26  N   UNL     1       1.162   7.996  21.234  0.00  0.00    +0.000 N 
ATOM     27  H   UNL     1       0.151   8.049  21.207  0.00  0.00    +0.000 HD
ATOM     28  H   UNL     1       1.583   8.560  21.964  0.00  0.00    +0.000 HD
ENDBRANCH   5  26
TORSDOF 8
ENDMDL
