MODEL 1
REMARK VINA RESULT:      -6.8      0.000      0.000
REMARK  Name = 
REMARK  10 active torsions:
REMARK  status: ('A' for Active; 'I' for Inactive)
REMARK    1  A    between atoms: C_1  and  C_2
REMARK    2  A    between atoms: C_2  and  C_3
REMARK    3  A    between atoms: C_3  and  C_4
REMARK    4  A    between atoms: C_4  and  C_5
REMARK    5  A    between atoms: C_5  and  C_6
REMARK    6  A    between atoms: C_6  and  C_7
REMARK    7  A    between atoms: C_7  and  C_8
REMARK    8  A    between atoms: C_7  and  N_11
REMARK    9  A    between atoms: C_8  and  C_9
REMARK   10  A    between atoms: C_9  and  O_10
REMARK                            x       y       z     vdW  Elec       q    Type
REMARK                         _______ _______ _______ _____ _____    ______ ____
ROOT
ATOM      1  C   UNL     1       6.108   5.499  17.747  0.00  0.00    +0.000 C 
ENDROOT
BRANCH   1   2
ATOM      2  N   UNL     1       4.818   5.271  18.408  0.00  0.00    +0.000 N 
ATOM      3  C   UNL     1       3.718   6.107  18.375  0.00  0.00    +0.000 A 
ATOM      4 BR   UNL     1       3.581   7.741  17.459  0.00  0.00    +0.000 Br
ATOM      5  N   UNL     1       2.709   5.626  19.071  0.00  0.00    +0.000 NA
ATOM      6  C   UNL     1       3.157   4.433  19.584  0.00  0.00    +0.000 A 
ATOM      7  C   UNL     1       2.612   3.447  20.396  0.00  0.00    +0.000 A 
ATOM      8 CL   UNL     1       1.026   3.631  20.964  0.00  0.00    +0.000 Cl
ATOM      9  N   UNL     1       3.305   2.350  20.758  0.00  0.00    +0.000 NA
ATOM     10  C   UNL     1       4.552   2.244  20.275  0.00  0.00    +0.000 A 
ATOM     11  N   UNL     1       5.195   3.103  19.466  0.00  0.00    +0.000 NA
ATOM     12  C   UNL     1       4.455   4.186  19.168  0.00  0.00    +0.000 A 
ENDBRANCH   1   2
BRANCH   1  13
ATOM     13  C   UNL     1       7.295   5.577  18.738  0.00  0.00    +0.000 C 
BRANCH  13  14
ATOM     14  C   UNL     1       8.042   6.907  18.723  0.00  0.00    +0.000 C 
BRANCH  14  15
ATOM     15  C   UNL     1       7.656   7.741  17.497  0.00  0.00    +0.000 C 
BRANCH  15  16
ATOM     16  C   UNL     1       7.965   9.213  17.755  0.00  0.00    +0.000 C 
BRANCH  16  18
ATOM     17  C   UNL     1       9.521  10.827  18.866  0.00  0.00    +0.000 C 
ATOM     18  C   UNL     1       8.965   9.411  18.891  0.00  0.00    +0.000 C 
ENDBRANCH  16  18
ENDBRANCH  15  16
ENDBRANCH  14  15
ENDBRANCH  13  14
ENDBRANCH   1  13
BRANCH   1  19
ATOM     19  C   UNL     1       6.318   4.523  16.572  0.00  0.00    +0.000 C 
BRANCH  19  20
ATOM     20  C   UNL     1       6.258   5.157  15.188  0.00  0.00    +0.000 C 
BRANCH  20  21
ATOM     21  O   UNL     1       7.584   5.389  14.727  0.00  0.00    +0.000 OA
ATOM     22  H   UNL     1       7.540   5.572  13.773  0.00  0.00    +0.000 HD
ENDBRANCH  20  21
ENDBRANCH  19  20
ENDBRANCH   1  19
TORSDOF 9
ENDMDL
MODEL 2
REMARK VINA RESULT:      -6.6      1.933      4.404
REMARK  Name = 
REMARK  10 active torsions:
REMARK  status: ('A' for Active; 'I' for Inactive)
REMARK    1  A    between atoms: C_1  and  C_2
REMARK    2  A    between atoms: C_2  and  C_3
REMARK    3  A    between atoms: C_3  and  C_4
REMARK    4  A    between atoms: C_4  and  C_5
REMARK    5  A    between atoms: C_5  and  C_6
REMARK    6  A    between atoms: C_6  and  C_7
REMARK    7  A    between atoms: C_7  and  C_8
REMARK    8  A    between atoms: C_7  and  N_11
REMARK    9  A    between atoms: C_8  and  C_9
REMARK   10  A    between atoms: C_9  and  O_10
REMARK                            x       y       z     vdW  Elec       q    Type
REMARK                         _______ _______ _______ _____ _____    ______ ____
ROOT
ATOM      1  C   UNL     1       6.538   4.889  18.009  0.00  0.00    +0.000 C 
ENDROOT
BRANCH   1   2
ATOM      2  N   UNL     1       5.146   4.852  18.472  0.00  0.00    +0.000 N 
ATOM      3  C   UNL     1       4.154   5.765  18.170  0.00  0.00    +0.000 A 
ATOM      4 BR   UNL     1       4.323   7.278  17.071  0.00  0.00    +0.000 Br
ATOM      5  N   UNL     1       3.008   5.459  18.741  0.00  0.00    +0.000 NA
ATOM      6  C   UNL     1       3.250   4.305  19.447  0.00  0.00    +0.000 A 
ATOM      7  C   UNL     1       2.492   3.476  20.263  0.00  0.00    +0.000 A 
ATOM      8 CL   UNL     1       0.865   3.859  20.542  0.00  0.00    +0.000 Cl
ATOM      9  N   UNL     1       3.007   2.379  20.850  0.00  0.00    +0.000 NA
ATOM     10  C   UNL     1       4.296   2.111  20.591  0.00  0.00    +0.000 A 
ATOM     11  N   UNL     1       5.138   2.808  19.808  0.00  0.00    +0.000 NA
ATOM     12  C   UNL     1       4.565   3.903  19.277  0.00  0.00    +0.000 A 
ENDBRANCH   1   2
BRANCH   1  13
ATOM     13  C   UNL     1       6.667   5.093  16.480  0.00  0.00    +0.000 C 
BRANCH  13  14
ATOM     14  C   UNL     1       6.108   3.948  15.642  0.00  0.00    +0.000 C 
BRANCH  14  15
ATOM     15  C   UNL     1       5.606   4.451  14.285  0.00  0.00    +0.000 C 
BRANCH  15  16
ATOM     16  C   UNL     1       6.266   3.656  13.162  0.00  0.00    +0.000 C 
BRANCH  16  18
ATOM     17  C   UNL     1       5.778   1.921  11.427  0.00  0.00    +0.000 C 
ATOM     18  C   UNL     1       5.261   3.172  12.120  0.00  0.00    +0.000 C 
ENDBRANCH  16  18
ENDBRANCH  15  16
ENDBRANCH  14  15
ENDBRANCH  13  14
ENDBRANCH   1  13
BRANCH   1  19
ATOM     19  C   UNL     1       7.386   5.857  18.859  0.00  0.00    +0.000 C 
BRANCH  19  20
ATOM     20  C   UNL     1       7.875   7.100  18.126  0.00  0.00    +0.000 C 
BRANCH  20  21
ATOM     21  O   UNL     1       8.693   7.864  19.004  0.00  0.00    +0.000 OA
ATOM     22  H   UNL     1       8.360   7.737  19.909  0.00  0.00    +0.000 HD
ENDBRANCH  20  21
ENDBRANCH  19  20
ENDBRANCH   1  19
TORSDOF 9
ENDMDL
MODEL 3
REMARK VINA RESULT:      -6.6      1.958      4.408
REMARK  Name = 
REMARK  10 active torsions:
REMARK  status: ('A' for Active; 'I' for Inactive)
REMARK    1  A    between atoms: C_1  and  C_2
REMARK    2  A    between atoms: C_2  and  C_3
REMARK    3  A    between atoms: C_3  and  C_4
REMARK    4  A    between atoms: C_4  and  C_5
REMARK    5  A    between atoms: C_5  and  C_6
REMARK    6  A    between atoms: C_6  and  C_7
REMARK    7  A    between atoms: C_7  and  C_8
REMARK    8  A    between atoms: C_7  and  N_11
REMARK    9  A    between atoms: C_8  and  C_9
REMARK   10  A    between atoms: C_9  and  O_10
REMARK                            x       y       z     vdW  Elec       q    Type
REMARK                         _______ _______ _______ _____ _____    ______ ____
ROOT
ATOM      1  C   UNL     1       6.383   4.704  17.430  0.00  0.00    +0.000 C 
ENDROOT
BRANCH   1   2
ATOM      2  N   UNL     1       5.055   4.816  18.043  0.00  0.00    +0.000 N 
ATOM      3  C   UNL     1       4.105   5.784  17.779  0.00  0.00    +0.000 A 
ATOM      4 BR   UNL     1       4.259   7.197  16.550  0.00  0.00    +0.000 Br
ATOM      5  N   UNL     1       3.013   5.616  18.494  0.00  0.00    +0.000 NA
ATOM      6  C   UNL     1       3.248   4.500  19.260  0.00  0.00    +0.000 A 
ATOM      7  C   UNL     1       2.529   3.796  20.217  0.00  0.00    +0.000 A 
ATOM      8 CL   UNL     1       0.978   4.332  20.640  0.00  0.00    +0.000 Cl
ATOM      9  N   UNL     1       3.025   2.705  20.830  0.00  0.00    +0.000 NA
ATOM     10  C   UNL     1       4.252   2.313  20.455  0.00  0.00    +0.000 A 
ATOM     11  N   UNL     1       5.048   2.880  19.532  0.00  0.00    +0.000 NA
ATOM     12  C   UNL     1       4.501   3.978  18.981  0.00  0.00    +0.000 A 
ENDBRANCH   1   2
BRANCH   1  13
ATOM     13  C   UNL     1       6.348   4.102  16.004  0.00  0.00    +0.000 C 
BRANCH  13  14
ATOM     14  C   UNL     1       6.973   4.988  14.931  0.00  0.00    +0.000 C 
BRANCH  14  15
ATOM     15  C   UNL     1       6.956   4.295  13.566  0.00  0.00    +0.000 C 
BRANCH  15  16
ATOM     16  C   UNL     1       5.536   3.853  13.226  0.00  0.00    +0.000 C 
BRANCH  16  18
ATOM     17  C   UNL     1       4.069   3.237  11.295  0.00  0.00    +0.000 C 
ATOM     18  C   UNL     1       5.459   3.102  11.899  0.00  0.00    +0.000 C 
ENDBRANCH  16  18
ENDBRANCH  15  16
ENDBRANCH  14  15
ENDBRANCH  13  14
ENDBRANCH   1  13
BRANCH   1  19
ATOM     19  C   UNL     1       7.168   6.026  17.548  0.00  0.00    +0.000 C 
BRANCH  19  20
ATOM     20  C   UNL     1       7.864   6.247  18.885  0.00  0.00    +0.000 C 
BRANCH  20  21
ATOM     21  O   UNL     1       8.140   4.983  19.479  0.00  0.00    +0.000 OA
ATOM     22  H   UNL     1       8.929   5.084  20.038  0.00  0.00    +0.000 HD
ENDBRANCH  20  21
ENDBRANCH  19  20
ENDBRANCH   1  19
TORSDOF 9
ENDMDL
MODEL 4
REMARK VINA RESULT:      -6.6      2.242      4.593
REMARK  Name = 
REMARK  10 active torsions:
REMARK  status: ('A' for Active; 'I' for Inactive)
REMARK    1  A    between atoms: C_1  and  C_2
REMARK    2  A    between atoms: C_2  and  C_3
REMARK    3  A    between atoms: C_3  and  C_4
REMARK    4  A    between atoms: C_4  and  C_5
REMARK    5  A    between atoms: C_5  and  C_6
REMARK    6  A    between atoms: C_6  and  C_7
REMARK    7  A    between atoms: C_7  and  C_8
REMARK    8  A    between atoms: C_7  and  N_11
REMARK    9  A    between atoms: C_8  and  C_9
REMARK   10  A    between atoms: C_9  and  O_10
REMARK                            x       y       z     vdW  Elec       q    Type
REMARK                         _______ _______ _______ _____ _____    ______ ____
ROOT
ATOM      1  C   UNL     1       5.502   5.322  16.880  0.00  0.00    +0.000 C 
ENDROOT
BRANCH   1   2
ATOM      2  N   UNL     1       4.223   5.035  17.539  0.00  0.00    +0.000 N 
ATOM      3  C   UNL     1       3.259   5.956  17.902  0.00  0.00    +0.000 A 
ATOM      4 BR   UNL     1       3.326   7.813  17.627  0.00  0.00    +0.000 Br
ATOM      5  N   UNL     1       2.222   5.388  18.481  0.00  0.00    +0.000 NA
ATOM      6  C   UNL     1       2.510   4.044  18.504  0.00  0.00    +0.000 A 
ATOM      7  C   UNL     1       1.862   2.909  18.972  0.00  0.00    +0.000 A 
ATOM      8 CL   UNL     1       0.348   3.072  19.715  0.00  0.00    +0.000 Cl
ATOM      9  N   UNL     1       2.399   1.679  18.863  0.00  0.00    +0.000 NA
ATOM     10  C   UNL     1       3.593   1.598  18.258  0.00  0.00    +0.000 A 
ATOM     11  N   UNL     1       4.320   2.603  17.740  0.00  0.00    +0.000 NA
ATOM     12  C   UNL     1       3.737   3.804  17.907  0.00  0.00    +0.000 A 
ENDBRANCH   1   2
BRANCH   1  13
ATOM     13  C   UNL     1       5.346   5.707  15.388  0.00  0.00    +0.000 C 
BRANCH  13  14
ATOM     14  C   UNL     1       5.220   4.518  14.442  0.00  0.00    +0.000 C 
BRANCH  14  15
ATOM     15  C   UNL     1       6.593   4.077  13.924  0.00  0.00    +0.000 C 
BRANCH  15  16
ATOM     16  C   UNL     1       6.548   3.916  12.407  0.00  0.00    +0.000 C 
BRANCH  16  18
ATOM     17  C   UNL     1       5.771   1.763  11.397  0.00  0.00    +0.000 C 
ATOM     18  C   UNL     1       5.335   3.116  11.940  0.00  0.00    +0.000 C 
ENDBRANCH  16  18
ENDBRANCH  15  16
ENDBRANCH  14  15
ENDBRANCH  13  14
ENDBRANCH   1  13
BRANCH   1  19
ATOM     19  C   UNL     1       6.353   6.305  17.710  0.00  0.00    +0.000 C 
BRANCH  19  20
ATOM     20  C   UNL     1       7.559   5.686  18.404  0.00  0.00    +0.000 C 
BRANCH  20  21
ATOM     21  O   UNL     1       7.565   4.283  18.163  0.00  0.00    +0.000 OA
ATOM     22  H   UNL     1       7.264   4.137  17.250  0.00  0.00    +0.000 HD
ENDBRANCH  20  21
ENDBRANCH  19  20
ENDBRANCH   1  19
TORSDOF 9
ENDMDL
MODEL 5
REMARK VINA RESULT:      -6.4      2.409      4.152
REMARK  Name = 
REMARK  10 active torsions:
REMARK  status: ('A' for Active; 'I' for Inactive)
REMARK    1  A    between atoms: C_1  and  C_2
REMARK    2  A    between atoms: C_2  and  C_3
REMARK    3  A    between atoms: C_3  and  C_4
REMARK    4  A    between atoms: C_4  and  C_5
REMARK    5  A    between atoms: C_5  and  C_6
REMARK    6  A    between atoms: C_6  and  C_7
REMARK    7  A    between atoms: C_7  and  C_8
REMARK    8  A    between atoms: C_7  and  N_11
REMARK    9  A    between atoms: C_8  and  C_9
REMARK   10  A    between atoms: C_9  and  O_10
REMARK                            x       y       z     vdW  Elec       q    Type
REMARK                         _______ _______ _______ _____ _____    ______ ____
ROOT
ATOM      1  C   UNL     1       6.820   4.530  17.659  0.00  0.00    +0.000 C 
ENDROOT
BRANCH   1   2
ATOM      2  N   UNL     1       5.447   4.710  18.143  0.00  0.00    +0.000 N 
ATOM      3  C   UNL     1       4.586   5.738  17.811  0.00  0.00    +0.000 A 
ATOM      4 BR   UNL     1       4.940   7.159  16.635  0.00  0.00    +0.000 Br
ATOM      5  N   UNL     1       3.420   5.622  18.413  0.00  0.00    +0.000 NA
ATOM      6  C   UNL     1       3.516   4.481  19.173  0.00  0.00    +0.000 A 
ATOM      7  C   UNL     1       2.667   3.806  20.040  0.00  0.00    +0.000 A 
ATOM      8 CL   UNL     1       1.116   4.425  20.323  0.00  0.00    +0.000 Cl
ATOM      9  N   UNL     1       3.037   2.676  20.673  0.00  0.00    +0.000 NA
ATOM     10  C   UNL     1       4.270   2.219  20.409  0.00  0.00    +0.000 A 
ATOM     11  N   UNL     1       5.184   2.753  19.580  0.00  0.00    +0.000 NA
ATOM     12  C   UNL     1       4.757   3.891  19.004  0.00  0.00    +0.000 A 
ENDBRANCH   1   2
BRANCH   1  13
ATOM     13  C   UNL     1       6.945   4.648  16.120  0.00  0.00    +0.000 C 
BRANCH  13  14
ATOM     14  C   UNL     1       6.000   3.739  15.341  0.00  0.00    +0.000 C 
BRANCH  14  15
ATOM     15  C   UNL     1       5.560   4.396  14.029  0.00  0.00    +0.000 C 
BRANCH  15  16
ATOM     16  C   UNL     1       5.753   3.421  12.871  0.00  0.00    +0.000 C 
BRANCH  16  18
ATOM     17  C   UNL     1       7.535   5.104  12.367  0.00  0.00    +0.000 C 
ATOM     18  C   UNL     1       7.029   3.698  12.080  0.00  0.00    +0.000 C 
ENDBRANCH  16  18
ENDBRANCH  15  16
ENDBRANCH  14  15
ENDBRANCH  13  14
ENDBRANCH   1  13
BRANCH   1  19
ATOM     19  C   UNL     1       7.814   5.404  18.451  0.00  0.00    +0.000 C 
BRANCH  19  20
ATOM     20  C   UNL     1       7.400   5.714  19.883  0.00  0.00    +0.000 C 
BRANCH  20  21
ATOM     21  O   UNL     1       8.379   5.189  20.774  0.00  0.00    +0.000 OA
ATOM     22  H   UNL     1       8.751   4.388  20.367  0.00  0.00    +0.000 HD
ENDBRANCH  20  21
ENDBRANCH  19  20
ENDBRANCH   1  19
TORSDOF 9
ENDMDL
MODEL 6
REMARK VINA RESULT:      -6.3      2.073      4.454
REMARK  Name = 
REMARK  10 active torsions:
REMARK  status: ('A' for Active; 'I' for Inactive)
REMARK    1  A    between atoms: C_1  and  C_2
REMARK    2  A    between atoms: C_2  and  C_3
REMARK    3  A    between atoms: C_3  and  C_4
REMARK    4  A    between atoms: C_4  and  C_5
REMARK    5  A    between atoms: C_5  and  C_6
REMARK    6  A    between atoms: C_6  and  C_7
REMARK    7  A    between atoms: C_7  and  C_8
REMARK    8  A    between atoms: C_7  and  N_11
REMARK    9  A    between atoms: C_8  and  C_9
REMARK   10  A    between atoms: C_9  and  O_10
REMARK                            x       y       z     vdW  Elec       q    Type
REMARK                         _______ _______ _______ _____ _____    ______ ____
ROOT
ATOM      1  C   UNL     1       5.529   5.163  17.040  0.00  0.00    +0.000 C 
ENDROOT
BRANCH   1   2
ATOM      2  N   UNL     1       4.240   4.940  17.705  0.00  0.00    +0.000 N 
ATOM      3  C   UNL     1       3.297   5.902  18.015  0.00  0.00    +0.000 A 
ATOM      4 BR   UNL     1       3.410   7.740  17.645  0.00  0.00    +0.000 Br
ATOM      5  N   UNL     1       2.244   5.388  18.616  0.00  0.00    +0.000 NA
ATOM      6  C   UNL     1       2.500   4.042  18.709  0.00  0.00    +0.000 A 
ATOM      7  C   UNL     1       1.822   2.947  19.231  0.00  0.00    +0.000 A 
ATOM      8 CL   UNL     1       0.309   3.185  19.956  0.00  0.00    +0.000 Cl
ATOM      9  N   UNL     1       2.330   1.701  19.189  0.00  0.00    +0.000 NA
ATOM     10  C   UNL     1       3.525   1.561  18.596  0.00  0.00    +0.000 A 
ATOM     11  N   UNL     1       4.279   2.521  18.031  0.00  0.00    +0.000 NA
ATOM     12  C   UNL     1       3.724   3.742  18.134  0.00  0.00    +0.000 A 
ENDBRANCH   1   2
BRANCH   1  13
ATOM     13  C   UNL     1       5.385   5.574  15.554  0.00  0.00    +0.000 C 
BRANCH  13  14
ATOM     14  C   UNL     1       5.649   4.446  14.561  0.00  0.00    +0.000 C 
BRANCH  14  15
ATOM     15  C   UNL     1       6.897   4.733  13.720  0.00  0.00    +0.000 C 
BRANCH  15  16
ATOM     16  C   UNL     1       6.872   3.886  12.451  0.00  0.00    +0.000 C 
BRANCH  16  18
ATOM     17  C   UNL     1       5.650   1.966  11.413  0.00  0.00    +0.000 C 
ATOM     18  C   UNL     1       5.502   3.266  12.189  0.00  0.00    +0.000 C 
ENDBRANCH  16  18
ENDBRANCH  15  16
ENDBRANCH  14  15
ENDBRANCH  13  14
ENDBRANCH   1  13
BRANCH   1  19
ATOM     19  C   UNL     1       6.440   6.086  17.875  0.00  0.00    +0.000 C 
BRANCH  19  20
ATOM     20  C   UNL     1       7.484   6.855  17.077  0.00  0.00    +0.000 C 
BRANCH  20  21
ATOM     21  O   UNL     1       7.321   8.248  17.319  0.00  0.00    +0.000 OA
ATOM     22  H   UNL     1       6.465   8.517  16.943  0.00  0.00    +0.000 HD
ENDBRANCH  20  21
ENDBRANCH  19  20
ENDBRANCH   1  19
TORSDOF 9
ENDMDL
MODEL 7
REMARK VINA RESULT:      -6.2      2.464      4.839
REMARK  Name = 
REMARK  10 active torsions:
REMARK  status: ('A' for Active; 'I' for Inactive)
REMARK    1  A    between atoms: C_1  and  C_2
REMARK    2  A    between atoms: C_2  and  C_3
REMARK    3  A    between atoms: C_3  and  C_4
REMARK    4  A    between atoms: C_4  and  C_5
REMARK    5  A    between atoms: C_5  and  C_6
REMARK    6  A    between atoms: C_6  and  C_7
REMARK    7  A    between atoms: C_7  and  C_8
REMARK    8  A    between atoms: C_7  and  N_11
REMARK    9  A    between atoms: C_8  and  C_9
REMARK   10  A    between atoms: C_9  and  O_10
REMARK                            x       y       z     vdW  Elec       q    Type
REMARK                         _______ _______ _______ _____ _____    ______ ____
ROOT
ATOM      1  C   UNL     1       5.833   4.499  16.489  0.00  0.00    +0.000 C 
ENDROOT
BRANCH   1   2
ATOM      2  N   UNL     1       4.606   4.596  17.289  0.00  0.00    +0.000 N 
ATOM      3  C   UNL     1       3.911   5.751  17.592  0.00  0.00    +0.000 A 
ATOM      4 BR   UNL     1       4.343   7.494  17.041  0.00  0.00    +0.000 Br
ATOM      5  N   UNL     1       2.850   5.511  18.333  0.00  0.00    +0.000 NA
ATOM      6  C   UNL     1       2.844   4.151  18.530  0.00  0.00    +0.000 A 
ATOM      7  C   UNL     1       2.025   3.261  19.213  0.00  0.00    +0.000 A 
ATOM      8 CL   UNL     1       0.678   3.858  20.049  0.00  0.00    +0.000 Cl
ATOM      9  N   UNL     1       2.270   1.937  19.243  0.00  0.00    +0.000 NA
ATOM     10  C   UNL     1       3.342   1.511  18.557  0.00  0.00    +0.000 A 
ATOM     11  N   UNL     1       4.203   2.251  17.837  0.00  0.00    +0.000 NA
ATOM     12  C   UNL     1       3.914   3.564  17.874  0.00  0.00    +0.000 A 
ENDBRANCH   1   2
BRANCH   1  13
ATOM     13  C   UNL     1       5.578   4.607  14.966  0.00  0.00    +0.000 C 
BRANCH  13  14
ATOM     14  C   UNL     1       6.791   4.279  14.100  0.00  0.00    +0.000 C 
BRANCH  14  15
ATOM     15  C   UNL     1       6.376   4.006  12.651  0.00  0.00    +0.000 C 
BRANCH  15  16
ATOM     16  C   UNL     1       4.918   3.557  12.605  0.00  0.00    +0.000 C 
BRANCH  16  18
ATOM     17  C   UNL     1       3.449   3.533  10.580  0.00  0.00    +0.000 C 
ATOM     18  C   UNL     1       4.574   2.819  11.314  0.00  0.00    +0.000 C 
ENDBRANCH  16  18
ENDBRANCH  15  16
ENDBRANCH  14  15
ENDBRANCH  13  14
ENDBRANCH   1  13
BRANCH   1  19
ATOM     19  C   UNL     1       6.928   5.445  17.024  0.00  0.00    +0.000 C 
BRANCH  19  20
ATOM     20  C   UNL     1       7.382   5.164  18.450  0.00  0.00    +0.000 C 
BRANCH  20  21
ATOM     21  O   UNL     1       8.083   6.299  18.946  0.00  0.00    +0.000 OA
ATOM     22  H   UNL     1       9.033   6.096  18.923  0.00  0.00    +0.000 HD
ENDBRANCH  20  21
ENDBRANCH  19  20
ENDBRANCH   1  19
TORSDOF 9
ENDMDL
MODEL 8
REMARK VINA RESULT:      -6.2      2.032      4.100
REMARK  Name = 
REMARK  10 active torsions:
REMARK  status: ('A' for Active; 'I' for Inactive)
REMARK    1  A    between atoms: C_1  and  C_2
REMARK    2  A    between atoms: C_2  and  C_3
REMARK    3  A    between atoms: C_3  and  C_4
REMARK    4  A    between atoms: C_4  and  C_5
REMARK    5  A    between atoms: C_5  and  C_6
REMARK    6  A    between atoms: C_6  and  C_7
REMARK    7  A    between atoms: C_7  and  C_8
REMARK    8  A    between atoms: C_7  and  N_11
REMARK    9  A    between atoms: C_8  and  C_9
REMARK   10  A    between atoms: C_9  and  O_10
REMARK                            x       y       z     vdW  Elec       q    Type
REMARK                         _______ _______ _______ _____ _____    ______ ____
ROOT
ATOM      1  C   UNL     1       5.434   5.114  17.661  0.00  0.00    +0.000 C 
ENDROOT
BRANCH   1   2
ATOM      2  N   UNL     1       4.340   4.843  18.601  0.00  0.00    +0.000 N 
ATOM      3  C   UNL     1       3.209   5.614  18.792  0.00  0.00    +0.000 A 
ATOM      4 BR   UNL     1       2.769   7.198  17.885  0.00  0.00    +0.000 Br
ATOM      5  N   UNL     1       2.413   5.107  19.710  0.00  0.00    +0.000 NA
ATOM      6  C   UNL     1       3.039   3.963  20.143  0.00  0.00    +0.000 A 
ATOM      7  C   UNL     1       2.752   2.983  21.084  0.00  0.00    +0.000 A 
ATOM      8 CL   UNL     1       1.324   3.102  21.988  0.00  0.00    +0.000 Cl
ATOM      9  N   UNL     1       3.576   1.943  21.312  0.00  0.00    +0.000 NA
ATOM     10  C   UNL     1       4.689   1.886  20.565  0.00  0.00    +0.000 A 
ATOM     11  N   UNL     1       5.080   2.745  19.608  0.00  0.00    +0.000 NA
ATOM     12  C   UNL     1       4.225   3.772  19.453  0.00  0.00    +0.000 A 
ENDBRANCH   1   2
BRANCH   1  13
ATOM     13  C   UNL     1       4.945   5.385  16.217  0.00  0.00    +0.000 C 
BRANCH  13  14
ATOM     14  C   UNL     1       6.063   5.487  15.184  0.00  0.00    +0.000 C 
BRANCH  14  15
ATOM     15  C   UNL     1       6.017   4.311  14.204  0.00  0.00    +0.000 C 
BRANCH  15  16
ATOM     16  C   UNL     1       7.060   4.509  13.108  0.00  0.00    +0.000 C 
BRANCH  16  18
ATOM     17  C   UNL     1       5.386   3.065  11.937  0.00  0.00    +0.000 C 
ATOM     18  C   UNL     1       6.793   3.638  11.883  0.00  0.00    +0.000 C 
ENDBRANCH  16  18
ENDBRANCH  15  16
ENDBRANCH  14  15
ENDBRANCH  13  14
ENDBRANCH   1  13
BRANCH   1  19
ATOM     19  C   UNL     1       6.402   6.177  18.220  0.00  0.00    +0.000 C 
BRANCH  19  20
ATOM     20  C   UNL     1       7.779   5.655  18.607  0.00  0.00    +0.000 C 
BRANCH  20  21
ATOM     21  O   UNL     1       7.907   4.308  18.166  0.00  0.00    +0.000 OA
ATOM     22  H   UNL     1       7.167   3.801  18.542  0.00  0.00    +0.000 HD
ENDBRANCH  20  21
ENDBRANCH  19  20
ENDBRANCH   1  19
TORSDOF 9
ENDMDL
MODEL 9
REMARK VINA RESULT:      -6.1      3.048      5.188
REMARK  Name = 
REMARK  10 active torsions:
REMARK  status: ('A' for Active; 'I' for Inactive)
REMARK    1  A    between atoms: C_1  and  C_2
REMARK    2  A    between atoms: C_2  and  C_3
REMARK    3  A    between atoms: C_3  and  C_4
REMARK    4  A    between atoms: C_4  and  C_5
REMARK    5  A    between atoms: C_5  and  C_6
REMARK    6  A    between atoms: C_6  and  C_7
REMARK    7  A    between atoms: C_7  and  C_8
REMARK    8  A    between atoms: C_7  and  N_11
REMARK    9  A    between atoms: C_8  and  C_9
REMARK   10  A    between atoms: C_9  and  O_10
REMARK                            x       y       z     vdW  Elec       q    Type
REMARK                         _______ _______ _______ _____ _____    ______ ____
ROOT
ATOM      1  C   UNL     1       5.733   5.149  16.439  0.00  0.00    +0.000 C 
ENDROOT
BRANCH   1   2
ATOM      2  N   UNL     1       5.285   4.637  17.740  0.00  0.00    +0.000 N 
ATOM      3  C   UNL     1       5.934   4.788  18.950  0.00  0.00    +0.000 A 
ATOM      4 BR   UNL     1       7.545   5.704  19.250  0.00  0.00    +0.000 Br
ATOM      5  N   UNL     1       5.282   4.210  19.938  0.00  0.00    +0.000 NA
ATOM      6  C   UNL     1       4.165   3.657  19.360  0.00  0.00    +0.000 A 
ATOM      7  C   UNL     1       3.085   2.915  19.823  0.00  0.00    +0.000 A 
ATOM      8 CL   UNL     1       2.999   2.526  21.470  0.00  0.00    +0.000 Cl
ATOM      9  N   UNL     1       2.106   2.484  19.005  0.00  0.00    +0.000 NA
ATOM     10  C   UNL     1       2.212   2.826  17.712  0.00  0.00    +0.000 A 
ATOM     11  N   UNL     1       3.183   3.554  17.133  0.00  0.00    +0.000 NA
ATOM     12  C   UNL     1       4.139   3.927  18.002  0.00  0.00    +0.000 A 
ENDBRANCH   1   2
BRANCH   1  13
ATOM     13  C   UNL     1       5.750   4.068  15.331  0.00  0.00    +0.000 C 
BRANCH  13  14
ATOM     14  C   UNL     1       6.551   4.451  14.091  0.00  0.00    +0.000 C 
BRANCH  14  15
ATOM     15  C   UNL     1       6.237   3.514  12.921  0.00  0.00    +0.000 C 
BRANCH  15  16
ATOM     16  C   UNL     1       4.892   3.888  12.304  0.00  0.00    +0.000 C 
BRANCH  16  18
ATOM     17  C   UNL     1       3.244   3.462  10.471  0.00  0.00    +0.000 C 
ATOM     18  C   UNL     1       4.470   2.928  11.195  0.00  0.00    +0.000 C 
ENDBRANCH  16  18
ENDBRANCH  15  16
ENDBRANCH  14  15
ENDBRANCH  13  14
ENDBRANCH   1  13
BRANCH   1  19
ATOM     19  C   UNL     1       4.987   6.444  16.059  0.00  0.00    +0.000 C 
BRANCH  19  20
ATOM     20  C   UNL     1       4.416   7.228  17.233  0.00  0.00    +0.000 C 
BRANCH  20  21
ATOM     21  O   UNL     1       3.300   7.989  16.785  0.00  0.00    +0.000 OA
ATOM     22  H   UNL     1       2.830   7.463  16.116  0.00  0.00    +0.000 HD
ENDBRANCH  20  21
ENDBRANCH  19  20
ENDBRANCH   1  19
TORSDOF 9
ENDMDL
