MODEL 1
REMARK VINA RESULT:      -8.5      0.000      0.000
REMARK  Name = 
REMARK  6 active torsions:
REMARK  status: ('A' for Active; 'I' for Inactive)
REMARK    1  A    between atoms: C_1  and  C_2
REMARK    2  A    between atoms: N_6  and  C_7
REMARK    3  A    between atoms: C_7  and  C_8
REMARK    4  A    between atoms: C_9  and  O_10
REMARK    5  A    between atoms: C_14  and  O_15
REMARK    6  A    between atoms: C_16  and  C_17
REMARK                            x       y       z     vdW  Elec       q    Type
REMARK                         _______ _______ _______ _____ _____    ______ ____
ROOT
ATOM      1  C   UNL     1      -0.824  11.025  21.014  0.00  0.00    +0.000 A 
ATOM      2  C   UNL     1      -1.140  10.876  22.367  0.00  0.00    +0.000 A 
ATOM      3  C   UNL     1      -0.455   9.974  23.176  0.00  0.00    +0.000 A 
ATOM      4  C   UNL     1       0.514   9.131  22.627  0.00  0.00    +0.000 A 
ATOM      5  C   UNL     1       0.769   9.150  21.251  0.00  0.00    +0.000 A 
ATOM      6  C   UNL     1       1.664   8.207  20.572  0.00  0.00    +0.000 A 
ATOM      7  C   UNL     1       1.864   8.278  19.245  0.00  0.00    +0.000 A 
ATOM      8  C   UNL     1       1.193   9.308  18.421  0.00  0.00    +0.000 A 
ATOM      9  N   UNL     1       1.271   9.466  17.146  0.00  0.00    +0.000 NA
ATOM     10  O   UNL     1       0.376  10.204  19.095  0.00  0.00    +0.000 OA
ATOM     11  C   UNL     1       0.114  10.116  20.480  0.00  0.00    +0.000 A 
ATOM     12  H   UNL     1       1.867   8.748  16.718  0.00  0.00    +0.000 HD
ENDROOT
BRANCH   7  13
ATOM     13  C   UNL     1       2.632   7.283  18.582  0.00  0.00    +0.000 A 
ATOM     14  N   UNL     1       3.690   7.520  17.830  0.00  0.00    +0.000 NA
ATOM     15  C   UNL     1       4.186   6.344  17.305  0.00  0.00    +0.000 A 
ATOM     16  C   UNL     1       5.249   6.248  16.388  0.00  0.00    +0.000 A 
ATOM     17  C   UNL     1       5.619   4.997  15.888  0.00  0.00    +0.000 A 
ATOM     18  C   UNL     1       4.986   3.844  16.339  0.00  0.00    +0.000 A 
ATOM     19  C   UNL     1       3.955   3.911  17.285  0.00  0.00    +0.000 A 
ATOM     20  C   UNL     1       3.548   5.180  17.729  0.00  0.00    +0.000 A 
ATOM     21  S   UNL     1       2.265   5.608  18.796  0.00  0.00    +0.000 S 
ENDBRANCH   7  13
BRANCH   2  22
ATOM     22  O   UNL     1      -2.125  11.610  22.970  0.00  0.00    +0.000 OA
ATOM     23  H   UNL     1      -2.396  12.306  22.330  0.00  0.00    +0.000 HD
ENDBRANCH   2  22
BRANCH   6  24
ATOM     24  O   UNL     1       2.244   7.208  21.340  0.00  0.00    +0.000 OA
ATOM     25  H   UNL     1       2.183   6.369  20.853  0.00  0.00    +0.000 HD
ENDBRANCH   6  24
BRANCH   1  26
ATOM     26  C   UNL     1      -1.476  12.054  20.109  0.00  0.00    +0.000 C 
BRANCH  26  32
ATOM     27  C   UNL     1      -3.347   9.774  16.778  0.00  0.00    +0.000 C 
ATOM     28  C   UNL     1      -3.260  11.302  16.820  0.00  0.00    +0.000 C 
ATOM     29  C   UNL     1      -4.615  11.938  17.152  0.00  0.00    +0.000 C 
ATOM     30  C   UNL     1      -4.975  11.736  18.618  0.00  0.00    +0.000 C 
ATOM     31  C   UNL     1      -3.844  12.204  19.536  0.00  0.00    +0.000 C 
ATOM     32  N   UNL     1      -2.562  11.524  19.232  0.00  0.00    +0.000 NA
ATOM     33  C   UNL     1      -2.191  11.784  17.820  0.00  0.00    +0.000 C 
ENDBRANCH  26  32
ENDBRANCH   1  26
TORSDOF 5
ENDMDL
MODEL 2
REMARK VINA RESULT:      -8.5      3.577      9.084
REMARK  Name = 
REMARK  6 active torsions:
REMARK  status: ('A' for Active; 'I' for Inactive)
REMARK    1  A    between atoms: C_1  and  C_2
REMARK    2  A    between atoms: N_6  and  C_7
REMARK    3  A    between atoms: C_7  and  C_8
REMARK    4  A    between atoms: C_9  and  O_10
REMARK    5  A    between atoms: C_14  and  O_15
REMARK    6  A    between atoms: C_16  and  C_17
REMARK                            x       y       z     vdW  Elec       q    Type
REMARK                         _______ _______ _______ _____ _____    ______ ____
ROOT
ATOM      1  C   UNL     1       1.759   7.837  19.920  0.00  0.00    +0.000 A 
ATOM      2  C   UNL     1       1.950   7.900  18.537  0.00  0.00    +0.000 A 
ATOM      3  C   UNL     1       1.730   9.077  17.827  0.00  0.00    +0.000 A 
ATOM      4  C   UNL     1       1.225  10.206  18.477  0.00  0.00    +0.000 A 
ATOM      5  C   UNL     1       0.890  10.149  19.835  0.00  0.00    +0.000 A 
ATOM      6  C   UNL     1       0.226  11.239  20.560  0.00  0.00    +0.000 A 
ATOM      7  C   UNL     1      -0.071  11.118  21.865  0.00  0.00    +0.000 A 
ATOM      8  C   UNL     1       0.260   9.888  22.619  0.00  0.00    +0.000 A 
ATOM      9  N   UNL     1       0.004   9.633  23.853  0.00  0.00    +0.000 NA
ATOM     10  O   UNL     1       0.913   8.888  21.913  0.00  0.00    +0.000 OA
ATOM     11  C   UNL     1       1.190   8.974  20.532  0.00  0.00    +0.000 A 
ATOM     12  H   UNL     1      -0.506  10.406  24.295  0.00  0.00    +0.000 HD
ENDROOT
BRANCH   7  13
ATOM     13  C   UNL     1      -0.824  12.128  22.523  0.00  0.00    +0.000 A 
ATOM     14  N   UNL     1      -0.327  13.251  23.004  0.00  0.00    +0.000 NA
ATOM     15  C   UNL     1      -1.314  13.999  23.612  0.00  0.00    +0.000 A 
ATOM     16  C   UNL     1      -1.109  15.205  24.308  0.00  0.00    +0.000 A 
ATOM     17  C   UNL     1      -2.188  15.837  24.929  0.00  0.00    +0.000 A 
ATOM     18  C   UNL     1      -3.472  15.314  24.811  0.00  0.00    +0.000 A 
ATOM     19  C   UNL     1      -3.708  14.139  24.086  0.00  0.00    +0.000 A 
ATOM     20  C   UNL     1      -2.603  13.478  23.523  0.00  0.00    +0.000 A 
ATOM     21  S   UNL     1      -2.540  11.983  22.670  0.00  0.00    +0.000 S 
ENDBRANCH   7  13
BRANCH   2  22
ATOM     22  O   UNL     1       2.375   6.821  17.810  0.00  0.00    +0.000 OA
ATOM     23  H   UNL     1       2.889   6.248  18.422  0.00  0.00    +0.000 HD
ENDBRANCH   2  22
BRANCH   6  24
ATOM     24  O   UNL     1      -0.133  12.364  19.835  0.00  0.00    +0.000 OA
ATOM     25  H   UNL     1       0.579  12.568  19.206  0.00  0.00    +0.000 HD
ENDBRANCH   6  24
BRANCH   1  26
ATOM     26  C   UNL     1       2.069   6.608  20.753  0.00  0.00    +0.000 C 
BRANCH  26  32
ATOM     27  C   UNL     1       0.718   2.962  18.590  0.00  0.00    +0.000 C 
ATOM     28  C   UNL     1       1.409   2.935  19.956  0.00  0.00    +0.000 C 
ATOM     29  C   UNL     1       2.865   2.467  19.845  0.00  0.00    +0.000 C 
ATOM     30  C   UNL     1       3.743   3.541  19.218  0.00  0.00    +0.000 C 
ATOM     31  C   UNL     1       3.590   4.877  19.947  0.00  0.00    +0.000 C 
ATOM     32  N   UNL     1       2.180   5.334  19.983  0.00  0.00    +0.000 NA
ATOM     33  C   UNL     1       1.347   4.307  20.653  0.00  0.00    +0.000 C 
ENDBRANCH  26  32
ENDBRANCH   1  26
TORSDOF 5
ENDMDL
MODEL 3
REMARK VINA RESULT:      -8.3      0.743      1.174
REMARK  Name = 
REMARK  6 active torsions:
REMARK  status: ('A' for Active; 'I' for Inactive)
REMARK    1  A    between atoms: C_1  and  C_2
REMARK    2  A    between atoms: N_6  and  C_7
REMARK    3  A    between atoms: C_7  and  C_8
REMARK    4  A    between atoms: C_9  and  O_10
REMARK    5  A    between atoms: C_14  and  O_15
REMARK    6  A    between atoms: C_16  and  C_17
REMARK                            x       y       z     vdW  Elec       q    Type
REMARK                         _______ _______ _______ _____ _____    ______ ____
ROOT
ATOM      1  C   UNL     1      -0.866  11.081  21.045  0.00  0.00    +0.000 A 
ATOM      2  C   UNL     1      -1.164  10.972  22.406  0.00  0.00    +0.000 A 
ATOM      3  C   UNL     1      -0.484  10.079  23.228  0.00  0.00    +0.000 A 
ATOM      4  C   UNL     1       0.461   9.204  22.686  0.00  0.00    +0.000 A 
ATOM      5  C   UNL     1       0.695   9.183  21.307  0.00  0.00    +0.000 A 
ATOM      6  C   UNL     1       1.562   8.206  20.638  0.00  0.00    +0.000 A 
ATOM      7  C   UNL     1       1.742   8.240  19.307  0.00  0.00    +0.000 A 
ATOM      8  C   UNL     1       1.078   9.261  18.467  0.00  0.00    +0.000 A 
ATOM      9  N   UNL     1       1.140   9.384  17.188  0.00  0.00    +0.000 NA
ATOM     10  O   UNL     1       0.289  10.189  19.130  0.00  0.00    +0.000 OA
ATOM     11  C   UNL     1       0.047  10.142  20.521  0.00  0.00    +0.000 A 
ATOM     12  H   UNL     1       1.716   8.645  16.770  0.00  0.00    +0.000 HD
ENDROOT
BRANCH   7  13
ATOM     13  C   UNL     1       2.482   7.213  18.659  0.00  0.00    +0.000 A 
ATOM     14  N   UNL     1       2.180   5.929  18.689  0.00  0.00    +0.000 NA
ATOM     15  C   UNL     1       3.114   5.193  17.990  0.00  0.00    +0.000 A 
ATOM     16  C   UNL     1       3.144   3.789  17.903  0.00  0.00    +0.000 A 
ATOM     17  C   UNL     1       4.180   3.161  17.208  0.00  0.00    +0.000 A 
ATOM     18  C   UNL     1       5.146   3.918  16.551  0.00  0.00    +0.000 A 
ATOM     19  C   UNL     1       5.111   5.318  16.587  0.00  0.00    +0.000 A 
ATOM     20  C   UNL     1       4.102   5.934  17.345  0.00  0.00    +0.000 A 
ATOM     21  S   UNL     1       3.844   7.606  17.671  0.00  0.00    +0.000 S 
ENDBRANCH   7  13
BRANCH   2  22
ATOM     22  O   UNL     1      -2.125  11.741  23.005  0.00  0.00    +0.000 OA
ATOM     23  H   UNL     1      -2.183  11.449  23.942  0.00  0.00    +0.000 HD
ENDBRANCH   2  22
BRANCH   6  24
ATOM     24  O   UNL     1       2.134   7.216  21.423  0.00  0.00    +0.000 OA
ATOM     25  H   UNL     1       2.832   7.618  21.967  0.00  0.00    +0.000 HD
ENDBRANCH   6  24
BRANCH   1  26
ATOM     26  C   UNL     1      -1.513  12.099  20.124  0.00  0.00    +0.000 C 
BRANCH  26  32
ATOM     27  C   UNL     1      -3.299   9.766  16.782  0.00  0.00    +0.000 C 
ATOM     28  C   UNL     1      -3.216  11.296  16.805  0.00  0.00    +0.000 C 
ATOM     29  C   UNL     1      -4.580  11.932  17.095  0.00  0.00    +0.000 C 
ATOM     30  C   UNL     1      -4.974  11.749  18.555  0.00  0.00    +0.000 C 
ATOM     31  C   UNL     1      -3.867  12.234  19.493  0.00  0.00    +0.000 C 
ATOM     32  N   UNL     1      -2.576  11.554  19.229  0.00  0.00    +0.000 NA
ATOM     33  C   UNL     1      -2.173  11.795  17.823  0.00  0.00    +0.000 C 
ENDBRANCH  26  32
ENDBRANCH   1  26
TORSDOF 5
ENDMDL
MODEL 4
REMARK VINA RESULT:      -8.2      3.507      9.127
REMARK  Name = 
REMARK  6 active torsions:
REMARK  status: ('A' for Active; 'I' for Inactive)
REMARK    1  A    between atoms: C_1  and  C_2
REMARK    2  A    between atoms: N_6  and  C_7
REMARK    3  A    between atoms: C_7  and  C_8
REMARK    4  A    between atoms: C_9  and  O_10
REMARK    5  A    between atoms: C_14  and  O_15
REMARK    6  A    between atoms: C_16  and  C_17
REMARK                            x       y       z     vdW  Elec       q    Type
REMARK                         _______ _______ _______ _____ _____    ______ ____
ROOT
ATOM      1  C   UNL     1       1.854   7.792  19.879  0.00  0.00    +0.000 A 
ATOM      2  C   UNL     1       2.116   7.863  18.508  0.00  0.00    +0.000 A 
ATOM      3  C   UNL     1       1.862   9.021  17.780  0.00  0.00    +0.000 A 
ATOM      4  C   UNL     1       1.253  10.119  18.394  0.00  0.00    +0.000 A 
ATOM      5  C   UNL     1       0.849  10.045  19.732  0.00  0.00    +0.000 A 
ATOM      6  C   UNL     1       0.080  11.093  20.414  0.00  0.00    +0.000 A 
ATOM      7  C   UNL     1      -0.278  10.959  21.702  0.00  0.00    +0.000 A 
ATOM      8  C   UNL     1       0.087   9.754  22.480  0.00  0.00    +0.000 A 
ATOM      9  N   UNL     1      -0.218   9.488  23.701  0.00  0.00    +0.000 NA
ATOM     10  O   UNL     1       0.839   8.795  21.818  0.00  0.00    +0.000 OA
ATOM     11  C   UNL     1       1.184   8.894  20.452  0.00  0.00    +0.000 A 
ATOM     12  H   UNL     1      -0.798  10.229  24.110  0.00  0.00    +0.000 HD
ENDROOT
BRANCH   7  13
ATOM     13  C   UNL     1      -1.128  11.921  22.311  0.00  0.00    +0.000 A 
ATOM     14  N   UNL     1      -2.347  11.681  22.756  0.00  0.00    +0.000 NA
ATOM     15  C   UNL     1      -2.917  12.832  23.260  0.00  0.00    +0.000 A 
ATOM     16  C   UNL     1      -4.240  12.948  23.727  0.00  0.00    +0.000 A 
ATOM     17  C   UNL     1      -4.713  14.188  24.160  0.00  0.00    +0.000 A 
ATOM     18  C   UNL     1      -3.867  15.292  24.191  0.00  0.00    +0.000 A 
ATOM     19  C   UNL     1      -2.534  15.191  23.773  0.00  0.00    +0.000 A 
ATOM     20  C   UNL     1      -2.090  13.954  23.277  0.00  0.00    +0.000 A 
ATOM     21  S   UNL     1      -0.564  13.529  22.602  0.00  0.00    +0.000 S 
ENDBRANCH   7  13
BRANCH   2  22
ATOM     22  O   UNL     1       2.646   6.810  17.813  0.00  0.00    +0.000 OA
ATOM     23  H   UNL     1       2.355   6.908  16.878  0.00  0.00    +0.000 HD
ENDBRANCH   2  22
BRANCH   6  24
ATOM     24  O   UNL     1      -0.309  12.192  19.663  0.00  0.00    +0.000 OA
ATOM     25  H   UNL     1      -1.243  12.083  19.416  0.00  0.00    +0.000 HD
ENDBRANCH   6  24
BRANCH   1  26
ATOM     26  C   UNL     1       2.196   6.588  20.737  0.00  0.00    +0.000 C 
BRANCH  26  32
ATOM     27  C   UNL     1       0.713   2.918  18.705  0.00  0.00    +0.000 C 
ATOM     28  C   UNL     1       1.424   2.912  20.061  0.00  0.00    +0.000 C 
ATOM     29  C   UNL     1       2.864   2.401  19.943  0.00  0.00    +0.000 C 
ATOM     30  C   UNL     1       3.762   3.432  19.271  0.00  0.00    +0.000 C 
ATOM     31  C   UNL     1       3.657   4.793  19.961  0.00  0.00    +0.000 C 
ATOM     32  N   UNL     1       2.260   5.289  20.003  0.00  0.00    +0.000 NA
ATOM     33  C   UNL     1       1.410   4.306  20.717  0.00  0.00    +0.000 C 
ENDBRANCH  26  32
ENDBRANCH   1  26
TORSDOF 5
ENDMDL
MODEL 5
REMARK VINA RESULT:      -8.2      2.954      8.643
REMARK  Name = 
REMARK  6 active torsions:
REMARK  status: ('A' for Active; 'I' for Inactive)
REMARK    1  A    between atoms: C_1  and  C_2
REMARK    2  A    between atoms: N_6  and  C_7
REMARK    3  A    between atoms: C_7  and  C_8
REMARK    4  A    between atoms: C_9  and  O_10
REMARK    5  A    between atoms: C_14  and  O_15
REMARK    6  A    between atoms: C_16  and  C_17
REMARK                            x       y       z     vdW  Elec       q    Type
REMARK                         _______ _______ _______ _____ _____    ______ ____
ROOT
ATOM      1  C   UNL     1       2.788   6.016  18.705  0.00  0.00    +0.000 A 
ATOM      2  C   UNL     1       2.840   4.993  19.656  0.00  0.00    +0.000 A 
ATOM      3  C   UNL     1       2.167   5.096  20.870  0.00  0.00    +0.000 A 
ATOM      4  C   UNL     1       1.489   6.273  21.200  0.00  0.00    +0.000 A 
ATOM      5  C   UNL     1       1.523   7.374  20.337  0.00  0.00    +0.000 A 
ATOM      6  C   UNL     1       0.961   8.689  20.665  0.00  0.00    +0.000 A 
ATOM      7  C   UNL     1       1.029   9.706  19.791  0.00  0.00    +0.000 A 
ATOM      8  C   UNL     1       1.670   9.541  18.467  0.00  0.00    +0.000 A 
ATOM      9  N   UNL     1       1.829  10.436  17.557  0.00  0.00    +0.000 NA
ATOM     10  O   UNL     1       2.165   8.280  18.174  0.00  0.00    +0.000 OA
ATOM     11  C   UNL     1       2.148   7.211  19.096  0.00  0.00    +0.000 A 
ATOM     12  H   UNL     1       1.465  11.346  17.860  0.00  0.00    +0.000 HD
ENDROOT
BRANCH   7  13
ATOM     13  C   UNL     1       0.594  11.006  20.170  0.00  0.00    +0.000 A 
ATOM     14  N   UNL     1       1.347  11.913  20.761  0.00  0.00    +0.000 NA
ATOM     15  C   UNL     1       0.618  13.054  21.026  0.00  0.00    +0.000 A 
ATOM     16  C   UNL     1       1.090  14.177  21.731  0.00  0.00    +0.000 A 
ATOM     17  C   UNL     1       0.229  15.247  21.982  0.00  0.00    +0.000 A 
ATOM     18  C   UNL     1      -1.070  15.236  21.485  0.00  0.00    +0.000 A 
ATOM     19  C   UNL     1      -1.549  14.149  20.743  0.00  0.00    +0.000 A 
ATOM     20  C   UNL     1      -0.694  13.050  20.555  0.00  0.00    +0.000 A 
ATOM     21  S   UNL     1      -1.004  11.540  19.788  0.00  0.00    +0.000 S 
ENDBRANCH   7  13
BRANCH   2  22
ATOM     22  O   UNL     1       3.540   3.836  19.444  0.00  0.00    +0.000 OA
ATOM     23  H   UNL     1       3.222   3.461  18.592  0.00  0.00    +0.000 HD
ENDBRANCH   2  22
BRANCH   6  24
ATOM     24  O   UNL     1       0.414   8.853  21.929  0.00  0.00    +0.000 OA
ATOM     25  H   UNL     1       0.456   8.003  22.398  0.00  0.00    +0.000 HD
ENDBRANCH   6  24
BRANCH   1  26
ATOM     26  C   UNL     1       3.427   5.917  17.333  0.00  0.00    +0.000 C 
BRANCH  26  32
ATOM     27  C   UNL     1       7.699   5.712  18.563  0.00  0.00    +0.000 C 
ATOM     28  C   UNL     1       7.223   6.301  17.231  0.00  0.00    +0.000 C 
ATOM     29  C   UNL     1       7.511   5.356  16.060  0.00  0.00    +0.000 C 
ATOM     30  C   UNL     1       6.571   4.157  16.074  0.00  0.00    +0.000 C 
ATOM     31  C   UNL     1       5.109   4.600  16.151  0.00  0.00    +0.000 C 
ATOM     32  N   UNL     1       4.849   5.461  17.330  0.00  0.00    +0.000 NA
ATOM     33  C   UNL     1       5.724   6.655  17.269  0.00  0.00    +0.000 C 
ENDBRANCH  26  32
ENDBRANCH   1  26
TORSDOF 5
ENDMDL
MODEL 6
REMARK VINA RESULT:      -8.2      1.438      2.021
REMARK  Name = 
REMARK  6 active torsions:
REMARK  status: ('A' for Active; 'I' for Inactive)
REMARK    1  A    between atoms: C_1  and  C_2
REMARK    2  A    between atoms: N_6  and  C_7
REMARK    3  A    between atoms: C_7  and  C_8
REMARK    4  A    between atoms: C_9  and  O_10
REMARK    5  A    between atoms: C_14  and  O_15
REMARK    6  A    between atoms: C_16  and  C_17
REMARK                            x       y       z     vdW  Elec       q    Type
REMARK                         _______ _______ _______ _____ _____    ______ ____
ROOT
ATOM      1  C   UNL     1      -0.740  11.234  21.278  0.00  0.00    +0.000 A 
ATOM      2  C   UNL     1      -1.198  10.938  22.564  0.00  0.00    +0.000 A 
ATOM      3  C   UNL     1      -0.679   9.870  23.291  0.00  0.00    +0.000 A 
ATOM      4  C   UNL     1       0.258   9.012  22.708  0.00  0.00    +0.000 A 
ATOM      5  C   UNL     1       0.646   9.190  21.375  0.00  0.00    +0.000 A 
ATOM      6  C   UNL     1       1.512   8.259  20.644  0.00  0.00    +0.000 A 
ATOM      7  C   UNL     1       1.845   8.488  19.362  0.00  0.00    +0.000 A 
ATOM      8  C   UNL     1       1.352   9.683  18.641  0.00  0.00    +0.000 A 
ATOM      9  N   UNL     1       1.567  10.001  17.414  0.00  0.00    +0.000 NA
ATOM     10  O   UNL     1       0.560  10.559  19.367  0.00  0.00    +0.000 OA
ATOM     11  C   UNL     1       0.158  10.314  20.699  0.00  0.00    +0.000 A 
ATOM     12  H   UNL     1       2.134   9.290  16.938  0.00  0.00    +0.000 HD
ENDROOT
BRANCH   7  13
ATOM     13  C   UNL     1       2.580   7.516  18.630  0.00  0.00    +0.000 A 
ATOM     14  N   UNL     1       3.600   7.780  17.835  0.00  0.00    +0.000 NA
ATOM     15  C   UNL     1       4.070   6.623  17.247  0.00  0.00    +0.000 A 
ATOM     16  C   UNL     1       5.087   6.560  16.276  0.00  0.00    +0.000 A 
ATOM     17  C   UNL     1       5.431   5.327  15.717  0.00  0.00    +0.000 A 
ATOM     18  C   UNL     1       4.820   4.158  16.159  0.00  0.00    +0.000 A 
ATOM     19  C   UNL     1       3.837   4.192  17.156  0.00  0.00    +0.000 A 
ATOM     20  C   UNL     1       3.452   5.445  17.662  0.00  0.00    +0.000 A 
ATOM     21  S   UNL     1       2.223   5.834  18.804  0.00  0.00    +0.000 S 
ENDBRANCH   7  13
BRANCH   2  22
ATOM     22  O   UNL     1      -2.165  11.683  23.183  0.00  0.00    +0.000 OA
ATOM     23  H   UNL     1      -2.008  11.609  24.152  0.00  0.00    +0.000 HD
ENDBRANCH   2  22
BRANCH   6  24
ATOM     24  O   UNL     1       1.922   7.112  21.306  0.00  0.00    +0.000 OA
ATOM     25  H   UNL     1       2.842   6.922  21.057  0.00  0.00    +0.000 HD
ENDBRANCH   6  24
BRANCH   1  26
ATOM     26  C   UNL     1      -1.206  12.437  20.479  0.00  0.00    +0.000 C 
BRANCH  26  32
ATOM     27  C   UNL     1      -5.475  12.654  21.715  0.00  0.00    +0.000 C 
ATOM     28  C   UNL     1      -4.935  13.246  20.410  0.00  0.00    +0.000 C 
ATOM     29  C   UNL     1      -4.833  14.774  20.480  0.00  0.00    +0.000 C 
ATOM     30  C   UNL     1      -3.675  15.208  21.369  0.00  0.00    +0.000 C 
ATOM     31  C   UNL     1      -2.369  14.532  20.949  0.00  0.00    +0.000 C 
ATOM     32  N   UNL     1      -2.481  13.053  20.952  0.00  0.00    +0.000 NA
ATOM     33  C   UNL     1      -3.569  12.642  20.033  0.00  0.00    +0.000 C 
ENDBRANCH  26  32
ENDBRANCH   1  26
TORSDOF 5
ENDMDL
MODEL 7
REMARK VINA RESULT:      -8.2      2.002      3.174
REMARK  Name = 
REMARK  6 active torsions:
REMARK  status: ('A' for Active; 'I' for Inactive)
REMARK    1  A    between atoms: C_1  and  C_2
REMARK    2  A    between atoms: N_6  and  C_7
REMARK    3  A    between atoms: C_7  and  C_8
REMARK    4  A    between atoms: C_9  and  O_10
REMARK    5  A    between atoms: C_14  and  O_15
REMARK    6  A    between atoms: C_16  and  C_17
REMARK                            x       y       z     vdW  Elec       q    Type
REMARK                         _______ _______ _______ _____ _____    ______ ____
ROOT
ATOM      1  C   UNL     1      -0.632  11.304  21.133  0.00  0.00    +0.000 A 
ATOM      2  C   UNL     1      -1.127  11.040  22.413  0.00  0.00    +0.000 A 
ATOM      3  C   UNL     1      -0.660   9.965  23.164  0.00  0.00    +0.000 A 
ATOM      4  C   UNL     1       0.259   9.068  22.613  0.00  0.00    +0.000 A 
ATOM      5  C   UNL     1       0.680   9.215  21.286  0.00  0.00    +0.000 A 
ATOM      6  C   UNL     1       1.530   8.245  20.585  0.00  0.00    +0.000 A 
ATOM      7  C   UNL     1       1.897   8.445  19.309  0.00  0.00    +0.000 A 
ATOM      8  C   UNL     1       1.461   9.647  18.562  0.00  0.00    +0.000 A 
ATOM      9  N   UNL     1       1.712   9.941  17.336  0.00  0.00    +0.000 NA
ATOM     10  O   UNL     1       0.683  10.559  19.260  0.00  0.00    +0.000 OA
ATOM     11  C   UNL     1       0.246  10.345  20.585  0.00  0.00    +0.000 A 
ATOM     12  H   UNL     1       2.264   9.205  16.881  0.00  0.00    +0.000 HD
ENDROOT
BRANCH   7  13
ATOM     13  C   UNL     1       2.613   7.440  18.604  0.00  0.00    +0.000 A 
ATOM     14  N   UNL     1       3.650   7.660  17.818  0.00  0.00    +0.000 NA
ATOM     15  C   UNL     1       4.094   6.479  17.259  0.00  0.00    +0.000 A 
ATOM     16  C   UNL     1       5.121   6.369  16.302  0.00  0.00    +0.000 A 
ATOM     17  C   UNL     1       5.438   5.116  15.771  0.00  0.00    +0.000 A 
ATOM     18  C   UNL     1       4.790   3.974  16.228  0.00  0.00    +0.000 A 
ATOM     19  C   UNL     1       3.796   4.054  17.211  0.00  0.00    +0.000 A 
ATOM     20  C   UNL     1       3.440   5.327  17.688  0.00  0.00    +0.000 A 
ATOM     21  S   UNL     1       2.208   5.772  18.806  0.00  0.00    +0.000 S 
ENDBRANCH   7  13
BRANCH   2  22
ATOM     22  O   UNL     1      -2.081  11.825  23.002  0.00  0.00    +0.000 OA
ATOM     23  H   UNL     1      -2.787  11.223  23.327  0.00  0.00    +0.000 HD
ENDBRANCH   2  22
BRANCH   6  24
ATOM     24  O   UNL     1       1.886   7.094  21.271  0.00  0.00    +0.000 OA
ATOM     25  H   UNL     1       1.798   7.261  22.224  0.00  0.00    +0.000 HD
ENDBRANCH   6  24
BRANCH   1  26
ATOM     26  C   UNL     1      -1.040  12.511  20.310  0.00  0.00    +0.000 C 
BRANCH  26  32
ATOM     27  C   UNL     1       1.481  15.727  22.071  0.00  0.00    +0.000 C 
ATOM     28  C   UNL     1       0.218  15.990  21.245  0.00  0.00    +0.000 C 
ATOM     29  C   UNL     1       0.557  16.490  19.837  0.00  0.00    +0.000 C 
ATOM     30  C   UNL     1       1.109  15.366  18.970  0.00  0.00    +0.000 C 
ATOM     31  C   UNL     1       0.177  14.153  18.975  0.00  0.00    +0.000 C 
ATOM     32  N   UNL     1      -0.081  13.654  20.347  0.00  0.00    +0.000 NA
ATOM     33  C   UNL     1      -0.679  14.740  21.161  0.00  0.00    +0.000 C 
ENDBRANCH  26  32
ENDBRANCH   1  26
TORSDOF 5
ENDMDL
MODEL 8
REMARK VINA RESULT:      -8.1      1.970      3.107
REMARK  Name = 
REMARK  6 active torsions:
REMARK  status: ('A' for Active; 'I' for Inactive)
REMARK    1  A    between atoms: C_1  and  C_2
REMARK    2  A    between atoms: N_6  and  C_7
REMARK    3  A    between atoms: C_7  and  C_8
REMARK    4  A    between atoms: C_9  and  O_10
REMARK    5  A    between atoms: C_14  and  O_15
REMARK    6  A    between atoms: C_16  and  C_17
REMARK                            x       y       z     vdW  Elec       q    Type
REMARK                         _______ _______ _______ _____ _____    ______ ____
ROOT
ATOM      1  C   UNL     1      -0.700  11.316  21.084  0.00  0.00    +0.000 A 
ATOM      2  C   UNL     1      -1.183  11.069  22.372  0.00  0.00    +0.000 A 
ATOM      3  C   UNL     1      -0.696  10.016  23.139  0.00  0.00    +0.000 A 
ATOM      4  C   UNL     1       0.234   9.123  22.599  0.00  0.00    +0.000 A 
ATOM      5  C   UNL     1       0.645   9.251  21.268  0.00  0.00    +0.000 A 
ATOM      6  C   UNL     1       1.506   8.281  20.580  0.00  0.00    +0.000 A 
ATOM      7  C   UNL     1       1.862   8.463  19.298  0.00  0.00    +0.000 A 
ATOM      8  C   UNL     1       1.404   9.643  18.532  0.00  0.00    +0.000 A 
ATOM      9  N   UNL     1       1.644   9.918  17.298  0.00  0.00    +0.000 NA
ATOM     10  O   UNL     1       0.617  10.557  19.217  0.00  0.00    +0.000 OA
ATOM     11  C   UNL     1       0.190  10.361  20.549  0.00  0.00    +0.000 A 
ATOM     12  H   UNL     1       2.205   9.182  16.855  0.00  0.00    +0.000 HD
ENDROOT
BRANCH   7  13
ATOM     13  C   UNL     1       2.590   7.455  18.608  0.00  0.00    +0.000 A 
ATOM     14  N   UNL     1       3.631   7.674  17.827  0.00  0.00    +0.000 NA
ATOM     15  C   UNL     1       4.087   6.491  17.282  0.00  0.00    +0.000 A 
ATOM     16  C   UNL     1       5.121   6.378  16.334  0.00  0.00    +0.000 A 
ATOM     17  C   UNL     1       5.450   5.123  15.817  0.00  0.00    +0.000 A 
ATOM     18  C   UNL     1       4.805   3.980  16.280  0.00  0.00    +0.000 A 
ATOM     19  C   UNL     1       3.803   4.064  17.256  0.00  0.00    +0.000 A 
ATOM     20  C   UNL     1       3.436   5.339  17.718  0.00  0.00    +0.000 A 
ATOM     21  S   UNL     1       2.193   5.787  18.823  0.00  0.00    +0.000 S 
ENDBRANCH   7  13
BRANCH   2  22
ATOM     22  O   UNL     1      -2.145  11.851  22.951  0.00  0.00    +0.000 OA
ATOM     23  H   UNL     1      -1.861  12.786  22.838  0.00  0.00    +0.000 HD
ENDBRANCH   2  22
BRANCH   6  24
ATOM     24  O   UNL     1       1.883   7.148  21.285  0.00  0.00    +0.000 OA
ATOM     25  H   UNL     1       2.225   7.423  22.152  0.00  0.00    +0.000 HD
ENDBRANCH   6  24
BRANCH   1  26
ATOM     26  C   UNL     1      -1.130  12.501  20.240  0.00  0.00    +0.000 C 
BRANCH  26  32
ATOM     27  C   UNL     1       0.513  16.518  19.258  0.00  0.00    +0.000 C 
ATOM     28  C   UNL     1       1.286  15.211  19.064  0.00  0.00    +0.000 C 
ATOM     29  C   UNL     1       2.366  15.027  20.136  0.00  0.00    +0.000 C 
ATOM     30  C   UNL     1       1.750  14.675  21.484  0.00  0.00    +0.000 C 
ATOM     31  C   UNL     1       0.803  13.479  21.366  0.00  0.00    +0.000 C 
ATOM     32  N   UNL     1      -0.267  13.713  20.366  0.00  0.00    +0.000 NA
ATOM     33  C   UNL     1       0.346  13.990  19.045  0.00  0.00    +0.000 C 
ENDBRANCH  26  32
ENDBRANCH   1  26
TORSDOF 5
ENDMDL
MODEL 9
REMARK VINA RESULT:      -8.0      2.203      3.450
REMARK  Name = 
REMARK  6 active torsions:
REMARK  status: ('A' for Active; 'I' for Inactive)
REMARK    1  A    between atoms: C_1  and  C_2
REMARK    2  A    between atoms: N_6  and  C_7
REMARK    3  A    between atoms: C_7  and  C_8
REMARK    4  A    between atoms: C_9  and  O_10
REMARK    5  A    between atoms: C_14  and  O_15
REMARK    6  A    between atoms: C_16  and  C_17
REMARK                            x       y       z     vdW  Elec       q    Type
REMARK                         _______ _______ _______ _____ _____    ______ ____
ROOT
ATOM      1  C   UNL     1      -0.502  11.335  21.127  0.00  0.00    +0.000 A 
ATOM      2  C   UNL     1      -1.003  11.132  22.416  0.00  0.00    +0.000 A 
ATOM      3  C   UNL     1      -0.590  10.054  23.193  0.00  0.00    +0.000 A 
ATOM      4  C   UNL     1       0.277   9.095  22.661  0.00  0.00    +0.000 A 
ATOM      5  C   UNL     1       0.698   9.184  21.329  0.00  0.00    +0.000 A 
ATOM      6  C   UNL     1       1.491   8.153  20.651  0.00  0.00    +0.000 A 
ATOM      7  C   UNL     1       1.860   8.299  19.367  0.00  0.00    +0.000 A 
ATOM      8  C   UNL     1       1.485   9.503  18.591  0.00  0.00    +0.000 A 
ATOM      9  N   UNL     1       1.744   9.751  17.356  0.00  0.00    +0.000 NA
ATOM     10  O   UNL     1       0.761  10.473  19.268  0.00  0.00    +0.000 OA
ATOM     11  C   UNL     1       0.321  10.318  20.601  0.00  0.00    +0.000 A 
ATOM     12  H   UNL     1       2.254   8.975  16.919  0.00  0.00    +0.000 HD
ENDROOT
BRANCH   7  13
ATOM     13  C   UNL     1       2.518   7.239  18.687  0.00  0.00    +0.000 A 
ATOM     14  N   UNL     1       2.133   5.977  18.701  0.00  0.00    +0.000 NA
ATOM     15  C   UNL     1       3.004   5.195  17.971  0.00  0.00    +0.000 A 
ATOM     16  C   UNL     1       2.940   3.793  17.859  0.00  0.00    +0.000 A 
ATOM     17  C   UNL     1       3.920   3.113  17.132  0.00  0.00    +0.000 A 
ATOM     18  C   UNL     1       4.919   3.817  16.468  0.00  0.00    +0.000 A 
ATOM     19  C   UNL     1       4.977   5.215  16.529  0.00  0.00    +0.000 A 
ATOM     20  C   UNL     1       4.025   5.882  17.318  0.00  0.00    +0.000 A 
ATOM     21  S   UNL     1       3.883   7.560  17.677  0.00  0.00    +0.000 S 
ENDBRANCH   7  13
BRANCH   2  22
ATOM     22  O   UNL     1      -1.910  11.982  22.988  0.00  0.00    +0.000 OA
ATOM     23  H   UNL     1      -1.507  12.880  22.978  0.00  0.00    +0.000 HD
ENDBRANCH   2  22
BRANCH   6  24
ATOM     24  O   UNL     1       1.789   7.002  21.365  0.00  0.00    +0.000 OA
ATOM     25  H   UNL     1       1.312   6.257  20.963  0.00  0.00    +0.000 HD
ENDBRANCH   6  24
BRANCH   1  26
ATOM     26  C   UNL     1      -0.850  12.541  20.274  0.00  0.00    +0.000 C 
BRANCH  26  32
ATOM     27  C   UNL     1       3.211  14.313  20.678  0.00  0.00    +0.000 C 
ATOM     28  C   UNL     1       1.938  14.970  21.219  0.00  0.00    +0.000 C 
ATOM     29  C   UNL     1       1.501  16.157  20.353  0.00  0.00    +0.000 C 
ATOM     30  C   UNL     1       0.915  15.687  19.028  0.00  0.00    +0.000 C 
ATOM     31  C   UNL     1      -0.194  14.656  19.247  0.00  0.00    +0.000 C 
ATOM     32  N   UNL     1       0.277  13.490  20.034  0.00  0.00    +0.000 NA
ATOM     33  C   UNL     1       0.784  13.956  21.346  0.00  0.00    +0.000 C 
ENDBRANCH  26  32
ENDBRANCH   1  26
TORSDOF 5
ENDMDL
