MODEL 1
REMARK VINA RESULT:      -5.6      0.000      0.000
REMARK  Name = 
REMARK  17 active torsions:
REMARK  status: ('A' for Active; 'I' for Inactive)
REMARK    1  A    between atoms: C_1  and  C_2
REMARK    2  A    between atoms: C_2  and  C_3
REMARK    3  A    between atoms: C_3  and  C_4
REMARK    4  A    between atoms: C_4  and  C_5
REMARK    5  A    between atoms: C_5  and  C_6
REMARK    6  A    between atoms: C_6  and  C_7
REMARK    7  A    between atoms: C_7  and  C_8
REMARK    8  A    between atoms: C_8  and  C_9
REMARK    9  A    between atoms: C_9  and  C_10
REMARK   10  A    between atoms: C_10  and  C_11
REMARK   11  A    between atoms: C_11  and  C_12
REMARK   12  A    between atoms: C_12  and  C_13
REMARK   13  A    between atoms: C_13  and  C_14
REMARK   14  A    between atoms: C_14  and  C_15
REMARK   15  A    between atoms: C_15  and  C_16
REMARK   16  A    between atoms: C_16  and  C_17
REMARK   17  A    between atoms: C_17  and  C_18
REMARK                            x       y       z     vdW  Elec       q    Type
REMARK                         _______ _______ _______ _____ _____    ______ ____
ROOT
ATOM      1  C   UNL     1       5.059   6.592  16.818  0.00  0.00    +0.000 C 
ENDROOT
BRANCH   1   2
ATOM      2  C   UNL     1       5.449   5.794  18.047  0.00  0.00    +0.000 C 
BRANCH   2   3
ATOM      3  C   UNL     1       4.230   5.093  18.614  0.00  0.00    +0.000 C 
BRANCH   3   4
ATOM      4  C   UNL     1       4.487   3.601  18.701  0.00  0.00    +0.000 C 
BRANCH   4   5
ATOM      5  C   UNL     1       3.870   2.902  17.504  0.00  0.00    +0.000 C 
BRANCH   5   6
ATOM      6  C   UNL     1       2.381   3.187  17.452  0.00  0.00    +0.000 C 
BRANCH   6   7
ATOM      7  C   UNL     1       1.642   2.244  18.383  0.00  0.00    +0.000 C 
BRANCH   7   8
ATOM      8  C   UNL     1       0.833   3.039  19.391  0.00  0.00    +0.000 C 
BRANCH   8   9
ATOM      9  C   UNL     1       1.268   2.686  20.802  0.00  0.00    +0.000 C 
BRANCH   9  11
ATOM     10  C   UNL     1       1.648   5.146  20.799  0.00  0.00    +0.000 C 
ATOM     11  C   UNL     1       2.073   3.825  21.407  0.00  0.00    +0.000 C 
ENDBRANCH   9  11
ENDBRANCH   8   9
ENDBRANCH   7   8
ENDBRANCH   6   7
ENDBRANCH   5   6
ENDBRANCH   4   5
ENDBRANCH   3   4
ENDBRANCH   2   3
ENDBRANCH   1   2
BRANCH   1  12
ATOM     12  C   UNL     1       5.490   5.853  15.565  0.00  0.00    +0.000 C 
BRANCH  12  13
ATOM     13  C   UNL     1       6.598   4.872  15.903  0.00  0.00    +0.000 C 
BRANCH  13  14
ATOM     14  C   UNL     1       6.801   3.903  14.753  0.00  0.00    +0.000 C 
BRANCH  14  15
ATOM     15  C   UNL     1       5.589   3.922  13.834  0.00  0.00    +0.000 C 
BRANCH  15  16
ATOM     16  C   UNL     1       6.023   3.628  12.407  0.00  0.00    +0.000 C 
BRANCH  16  17
ATOM     17  C   UNL     1       5.296   2.413  11.837  0.00  0.00    +0.000 C 
BRANCH  17  18
ATOM     18  C   UNL     1       6.270   1.388  11.296  0.00  0.00    +0.000 C 
ATOM     19  N   UNL     1       7.560   1.809  11.136  0.00  0.00    +0.000 N 
ATOM     20  O   UNL     1       5.967   0.232  11.005  0.00  0.00    +0.000 OA
ATOM     21  H   UNL     1       7.890   2.735  11.351  0.00  0.00    +0.000 HD
ATOM     22  H   UNL     1       8.221   1.133  10.776  0.00  0.00    +0.000 HD
ENDBRANCH  17  18
ENDBRANCH  16  17
ENDBRANCH  15  16
ENDBRANCH  14  15
ENDBRANCH  13  14
ENDBRANCH  12  13
ENDBRANCH   1  12
TORSDOF 16
ENDMDL
MODEL 2
REMARK VINA RESULT:      -5.5      1.618      3.124
REMARK  Name = 
REMARK  17 active torsions:
REMARK  status: ('A' for Active; 'I' for Inactive)
REMARK    1  A    between atoms: C_1  and  C_2
REMARK    2  A    between atoms: C_2  and  C_3
REMARK    3  A    between atoms: C_3  and  C_4
REMARK    4  A    between atoms: C_4  and  C_5
REMARK    5  A    between atoms: C_5  and  C_6
REMARK    6  A    between atoms: C_6  and  C_7
REMARK    7  A    between atoms: C_7  and  C_8
REMARK    8  A    between atoms: C_8  and  C_9
REMARK    9  A    between atoms: C_9  and  C_10
REMARK   10  A    between atoms: C_10  and  C_11
REMARK   11  A    between atoms: C_11  and  C_12
REMARK   12  A    between atoms: C_12  and  C_13
REMARK   13  A    between atoms: C_13  and  C_14
REMARK   14  A    between atoms: C_14  and  C_15
REMARK   15  A    between atoms: C_15  and  C_16
REMARK   16  A    between atoms: C_16  and  C_17
REMARK   17  A    between atoms: C_17  and  C_18
REMARK                            x       y       z     vdW  Elec       q    Type
REMARK                         _______ _______ _______ _____ _____    ______ ____
ROOT
ATOM      1  C   UNL     1       4.438   6.945  16.938  0.00  0.00    +0.000 C 
ENDROOT
BRANCH   1   2
ATOM      2  C   UNL     1       3.335   7.757  17.590  0.00  0.00    +0.000 C 
BRANCH   2   3
ATOM      3  C   UNL     1       2.395   6.836  18.344  0.00  0.00    +0.000 C 
BRANCH   3   4
ATOM      4  C   UNL     1       2.301   7.270  19.793  0.00  0.00    +0.000 C 
BRANCH   4   5
ATOM      5  C   UNL     1       1.589   6.204  20.605  0.00  0.00    +0.000 C 
BRANCH   5   6
ATOM      6  C   UNL     1       2.233   4.853  20.357  0.00  0.00    +0.000 C 
BRANCH   6   7
ATOM      7  C   UNL     1       1.290   3.745  20.786  0.00  0.00    +0.000 C 
BRANCH   7   8
ATOM      8  C   UNL     1       0.724   3.044  19.564  0.00  0.00    +0.000 C 
BRANCH   8   9
ATOM      9  C   UNL     1       1.586   3.339  18.350  0.00  0.00    +0.000 C 
BRANCH   9  11
ATOM     10  C   UNL     1       3.740   2.092  18.325  0.00  0.00    +0.000 C 
ATOM     11  C   UNL     1       2.291   2.075  17.884  0.00  0.00    +0.000 C 
ENDBRANCH   9  11
ENDBRANCH   8   9
ENDBRANCH   7   8
ENDBRANCH   6   7
ENDBRANCH   5   6
ENDBRANCH   4   5
ENDBRANCH   3   4
ENDBRANCH   2   3
ENDBRANCH   1   2
BRANCH   1  12
ATOM     12  C   UNL     1       4.578   5.608  17.640  0.00  0.00    +0.000 C 
BRANCH  12  13
ATOM     13  C   UNL     1       5.975   5.474  18.217  0.00  0.00    +0.000 C 
BRANCH  13  14
ATOM     14  C   UNL     1       7.007   5.624  17.116  0.00  0.00    +0.000 C 
BRANCH  14  15
ATOM     15  C   UNL     1       6.993   4.397  16.216  0.00  0.00    +0.000 C 
BRANCH  15  16
ATOM     16  C   UNL     1       7.001   4.830  14.758  0.00  0.00    +0.000 C 
BRANCH  16  17
ATOM     17  C   UNL     1       5.959   4.073  13.941  0.00  0.00    +0.000 C 
BRANCH  17  18
ATOM     18  C   UNL     1       6.506   3.665  12.589  0.00  0.00    +0.000 C 
ATOM     19  N   UNL     1       6.117   2.440  12.127  0.00  0.00    +0.000 N 
ATOM     20  O   UNL     1       7.257   4.362  11.907  0.00  0.00    +0.000 OA
ATOM     21  H   UNL     1       5.506   1.810  12.620  0.00  0.00    +0.000 HD
ATOM     22  H   UNL     1       6.475   2.156  11.225  0.00  0.00    +0.000 HD
ENDBRANCH  17  18
ENDBRANCH  16  17
ENDBRANCH  15  16
ENDBRANCH  14  15
ENDBRANCH  13  14
ENDBRANCH  12  13
ENDBRANCH   1  12
TORSDOF 16
ENDMDL
MODEL 3
REMARK VINA RESULT:      -5.4      1.530      2.048
REMARK  Name = 
REMARK  17 active torsions:
REMARK  status: ('A' for Active; 'I' for Inactive)
REMARK    1  A    between atoms: C_1  and  C_2
REMARK    2  A    between atoms: C_2  and  C_3
REMARK    3  A    between atoms: C_3  and  C_4
REMARK    4  A    between atoms: C_4  and  C_5
REMARK    5  A    between atoms: C_5  and  C_6
REMARK    6  A    between atoms: C_6  and  C_7
REMARK    7  A    between atoms: C_7  and  C_8
REMARK    8  A    between atoms: C_8  and  C_9
REMARK    9  A    between atoms: C_9  and  C_10
REMARK   10  A    between atoms: C_10  and  C_11
REMARK   11  A    between atoms: C_11  and  C_12
REMARK   12  A    between atoms: C_12  and  C_13
REMARK   13  A    between atoms: C_13  and  C_14
REMARK   14  A    between atoms: C_14  and  C_15
REMARK   15  A    between atoms: C_15  and  C_16
REMARK   16  A    between atoms: C_16  and  C_17
REMARK   17  A    between atoms: C_17  and  C_18
REMARK                            x       y       z     vdW  Elec       q    Type
REMARK                         _______ _______ _______ _____ _____    ______ ____
ROOT
ATOM      1  C   UNL     1       3.900   7.492  17.427  0.00  0.00    +0.000 C 
ENDROOT
BRANCH   1   2
ATOM      2  C   UNL     1       3.051   6.600  18.313  0.00  0.00    +0.000 C 
BRANCH   2   3
ATOM      3  C   UNL     1       3.098   5.172  17.801  0.00  0.00    +0.000 C 
BRANCH   3   4
ATOM      4  C   UNL     1       3.922   4.315  18.741  0.00  0.00    +0.000 C 
BRANCH   4   5
ATOM      5  C   UNL     1       4.020   2.902  18.196  0.00  0.00    +0.000 C 
BRANCH   5   6
ATOM      6  C   UNL     1       2.721   2.524  17.509  0.00  0.00    +0.000 C 
BRANCH   6   7
ATOM      7  C   UNL     1       1.804   1.819  18.490  0.00  0.00    +0.000 C 
BRANCH   7   8
ATOM      8  C   UNL     1       0.559   2.655  18.730  0.00  0.00    +0.000 C 
BRANCH   8   9
ATOM      9  C   UNL     1       0.622   3.297  20.104  0.00  0.00    +0.000 C 
BRANCH   9  11
ATOM     10  C   UNL     1       2.332   3.502  21.902  0.00  0.00    +0.000 C 
ATOM     11  C   UNL     1       1.591   2.538  20.997  0.00  0.00    +0.000 C 
ENDBRANCH   9  11
ENDBRANCH   8   9
ENDBRANCH   7   8
ENDBRANCH   6   7
ENDBRANCH   5   6
ENDBRANCH   4   5
ENDBRANCH   3   4
ENDBRANCH   2   3
ENDBRANCH   1   2
BRANCH   1  12
ATOM     12  C   UNL     1       4.734   6.642  16.488  0.00  0.00    +0.000 C 
BRANCH  12  13
ATOM     13  C   UNL     1       6.195   6.714  16.891  0.00  0.00    +0.000 C 
BRANCH  13  14
ATOM     14  C   UNL     1       6.794   5.320  16.920  0.00  0.00    +0.000 C 
BRANCH  14  15
ATOM     15  C   UNL     1       7.157   4.878  15.510  0.00  0.00    +0.000 C 
BRANCH  15  16
ATOM     16  C   UNL     1       6.238   3.749  15.074  0.00  0.00    +0.000 C 
BRANCH  16  17
ATOM     17  C   UNL     1       5.525   4.077  13.765  0.00  0.00    +0.000 C 
BRANCH  17  18
ATOM     18  C   UNL     1       6.330   3.620  12.567  0.00  0.00    +0.000 C 
ATOM     19  N   UNL     1       5.966   2.421  12.020  0.00  0.00    +0.000 N 
ATOM     20  O   UNL     1       7.263   4.254  12.077  0.00  0.00    +0.000 OA
ATOM     21  H   UNL     1       5.217   1.842  12.359  0.00  0.00    +0.000 HD
ATOM     22  H   UNL     1       6.496   2.104  11.219  0.00  0.00    +0.000 HD
ENDBRANCH  17  18
ENDBRANCH  16  17
ENDBRANCH  15  16
ENDBRANCH  14  15
ENDBRANCH  13  14
ENDBRANCH  12  13
ENDBRANCH   1  12
TORSDOF 16
ENDMDL
MODEL 4
REMARK VINA RESULT:      -5.4      5.735      7.312
REMARK  Name = 
REMARK  17 active torsions:
REMARK  status: ('A' for Active; 'I' for Inactive)
REMARK    1  A    between atoms: C_1  and  C_2
REMARK    2  A    between atoms: C_2  and  C_3
REMARK    3  A    between atoms: C_3  and  C_4
REMARK    4  A    between atoms: C_4  and  C_5
REMARK    5  A    between atoms: C_5  and  C_6
REMARK    6  A    between atoms: C_6  and  C_7
REMARK    7  A    between atoms: C_7  and  C_8
REMARK    8  A    between atoms: C_8  and  C_9
REMARK    9  A    between atoms: C_9  and  C_10
REMARK   10  A    between atoms: C_10  and  C_11
REMARK   11  A    between atoms: C_11  and  C_12
REMARK   12  A    between atoms: C_12  and  C_13
REMARK   13  A    between atoms: C_13  and  C_14
REMARK   14  A    between atoms: C_14  and  C_15
REMARK   15  A    between atoms: C_15  and  C_16
REMARK   16  A    between atoms: C_16  and  C_17
REMARK   17  A    between atoms: C_17  and  C_18
REMARK                            x       y       z     vdW  Elec       q    Type
REMARK                         _______ _______ _______ _____ _____    ______ ____
ROOT
ATOM      1  C   UNL     1       7.247   5.075  17.836  0.00  0.00    +0.000 C 
ENDROOT
BRANCH   1   2
ATOM      2  C   UNL     1       5.877   4.460  18.055  0.00  0.00    +0.000 C 
BRANCH   2   3
ATOM      3  C   UNL     1       4.826   5.553  18.115  0.00  0.00    +0.000 C 
BRANCH   3   4
ATOM      4  C   UNL     1       4.060   5.460  19.420  0.00  0.00    +0.000 C 
BRANCH   4   5
ATOM      5  C   UNL     1       2.670   6.041  19.243  0.00  0.00    +0.000 C 
BRANCH   5   6
ATOM      6  C   UNL     1       1.837   5.766  20.481  0.00  0.00    +0.000 C 
BRANCH   6   7
ATOM      7  C   UNL     1       2.279   4.464  21.122  0.00  0.00    +0.000 C 
BRANCH   7   8
ATOM      8  C   UNL     1       1.236   3.387  20.878  0.00  0.00    +0.000 C 
BRANCH   8   9
ATOM      9  C   UNL     1       1.779   2.347  19.915  0.00  0.00    +0.000 C 
BRANCH   9  11
ATOM     10  C   UNL     1       2.491   2.605  17.543  0.00  0.00    +0.000 C 
ATOM     11  C   UNL     1       1.316   2.648  18.498  0.00  0.00    +0.000 C 
ENDBRANCH   9  11
ENDBRANCH   8   9
ENDBRANCH   7   8
ENDBRANCH   6   7
ENDBRANCH   5   6
ENDBRANCH   4   5
ENDBRANCH   3   4
ENDBRANCH   2   3
ENDBRANCH   1   2
BRANCH   1  12
ATOM     12  C   UNL     1       7.102   6.545  17.489  0.00  0.00    +0.000 C 
BRANCH  12  13
ATOM     13  C   UNL     1       8.069   7.367  18.321  0.00  0.00    +0.000 C 
BRANCH  13  14
ATOM     14  C   UNL     1       8.021   8.820  17.885  0.00  0.00    +0.000 C 
BRANCH  14  15
ATOM     15  C   UNL     1       8.948   9.657  18.754  0.00  0.00    +0.000 C 
BRANCH  15  16
ATOM     16  C   UNL     1       9.042  11.067  18.194  0.00  0.00    +0.000 C 
BRANCH  16  17
ATOM     17  C   UNL     1      10.450  11.381  17.696  0.00  0.00    +0.000 C 
BRANCH  17  18
ATOM     18  C   UNL     1      10.617  12.857  17.403  0.00  0.00    +0.000 C 
ATOM     19  N   UNL     1       9.693  13.691  17.968  0.00  0.00    +0.000 N 
ATOM     20  O   UNL     1      11.515  13.327  16.706  0.00  0.00    +0.000 OA
ATOM     21  H   UNL     1       8.930  13.389  18.550  0.00  0.00    +0.000 HD
ATOM     22  H   UNL     1       9.794  14.679  17.780  0.00  0.00    +0.000 HD
ENDBRANCH  17  18
ENDBRANCH  16  17
ENDBRANCH  15  16
ENDBRANCH  14  15
ENDBRANCH  13  14
ENDBRANCH  12  13
ENDBRANCH   1  12
TORSDOF 16
ENDMDL
MODEL 5
REMARK VINA RESULT:      -5.3      4.035      7.607
REMARK  Name = 
REMARK  17 active torsions:
REMARK  status: ('A' for Active; 'I' for Inactive)
REMARK    1  A    between atoms: C_1  and  C_2
REMARK    2  A    between atoms: C_2  and  C_3
REMARK    3  A    between atoms: C_3  and  C_4
REMARK    4  A    between atoms: C_4  and  C_5
REMARK    5  A    between atoms: C_5  and  C_6
REMARK    6  A    between atoms: C_6  and  C_7
REMARK    7  A    between atoms: C_7  and  C_8
REMARK    8  A    between atoms: C_8  and  C_9
REMARK    9  A    between atoms: C_9  and  C_10
REMARK   10  A    between atoms: C_10  and  C_11
REMARK   11  A    between atoms: C_11  and  C_12
REMARK   12  A    between atoms: C_12  and  C_13
REMARK   13  A    between atoms: C_13  and  C_14
REMARK   14  A    between atoms: C_14  and  C_15
REMARK   15  A    between atoms: C_15  and  C_16
REMARK   16  A    between atoms: C_16  and  C_17
REMARK   17  A    between atoms: C_17  and  C_18
REMARK                            x       y       z     vdW  Elec       q    Type
REMARK                         _______ _______ _______ _____ _____    ______ ____
ROOT
ATOM      1  C   UNL     1       7.330   6.478  17.870  0.00  0.00    +0.000 C 
ENDROOT
BRANCH   1   2
ATOM      2  C   UNL     1       6.558   6.077  16.628  0.00  0.00    +0.000 C 
BRANCH   2   3
ATOM      3  C   UNL     1       7.099   4.767  16.086  0.00  0.00    +0.000 C 
BRANCH   3   4
ATOM      4  C   UNL     1       5.954   3.892  15.616  0.00  0.00    +0.000 C 
BRANCH   4   5
ATOM      5  C   UNL     1       5.571   4.264  14.197  0.00  0.00    +0.000 C 
BRANCH   5   6
ATOM      6  C   UNL     1       6.609   3.732  13.227  0.00  0.00    +0.000 C 
BRANCH   6   7
ATOM      7  C   UNL     1       5.951   3.384  11.905  0.00  0.00    +0.000 C 
BRANCH   7   8
ATOM      8  C   UNL     1       4.443   3.517  12.027  0.00  0.00    +0.000 C 
BRANCH   8   9
ATOM      9  C   UNL     1       3.779   3.104  10.726  0.00  0.00    +0.000 C 
BRANCH   9  11
ATOM     10  C   UNL     1       3.036   4.289   8.666  0.00  0.00    +0.000 C 
ATOM     11  C   UNL     1       2.937   4.246  10.178  0.00  0.00    +0.000 C 
ENDBRANCH   9  11
ENDBRANCH   8   9
ENDBRANCH   7   8
ENDBRANCH   6   7
ENDBRANCH   5   6
ENDBRANCH   4   5
ENDBRANCH   3   4
ENDBRANCH   2   3
ENDBRANCH   1   2
BRANCH   1  12
ATOM     12  C   UNL     1       7.115   5.451  18.966  0.00  0.00    +0.000 C 
BRANCH  12  13
ATOM     13  C   UNL     1       5.630   5.287  19.232  0.00  0.00    +0.000 C 
BRANCH  13  14
ATOM     14  C   UNL     1       5.257   3.817  19.200  0.00  0.00    +0.000 C 
BRANCH  14  15
ATOM     15  C   UNL     1       3.889   3.639  18.560  0.00  0.00    +0.000 C 
BRANCH  15  16
ATOM     16  C   UNL     1       3.363   4.985  18.090  0.00  0.00    +0.000 C 
BRANCH  16  17
ATOM     17  C   UNL     1       1.926   5.219  18.548  0.00  0.00    +0.000 C 
BRANCH  17  18
ATOM     18  C   UNL     1       1.775   4.984  20.036  0.00  0.00    +0.000 C 
ATOM     19  N   UNL     1       2.379   5.897  20.855  0.00  0.00    +0.000 N 
ATOM     20  O   UNL     1       1.153   4.043  20.529  0.00  0.00    +0.000 OA
ATOM     21  H   UNL     1       2.904   6.693  20.534  0.00  0.00    +0.000 HD
ATOM     22  H   UNL     1       2.285   5.751  21.851  0.00  0.00    +0.000 HD
ENDBRANCH  17  18
ENDBRANCH  16  17
ENDBRANCH  15  16
ENDBRANCH  14  15
ENDBRANCH  13  14
ENDBRANCH  12  13
ENDBRANCH   1  12
TORSDOF 16
ENDMDL
MODEL 6
REMARK VINA RESULT:      -5.3      4.006      7.549
REMARK  Name = 
REMARK  17 active torsions:
REMARK  status: ('A' for Active; 'I' for Inactive)
REMARK    1  A    between atoms: C_1  and  C_2
REMARK    2  A    between atoms: C_2  and  C_3
REMARK    3  A    between atoms: C_3  and  C_4
REMARK    4  A    between atoms: C_4  and  C_5
REMARK    5  A    between atoms: C_5  and  C_6
REMARK    6  A    between atoms: C_6  and  C_7
REMARK    7  A    between atoms: C_7  and  C_8
REMARK    8  A    between atoms: C_8  and  C_9
REMARK    9  A    between atoms: C_9  and  C_10
REMARK   10  A    between atoms: C_10  and  C_11
REMARK   11  A    between atoms: C_11  and  C_12
REMARK   12  A    between atoms: C_12  and  C_13
REMARK   13  A    between atoms: C_13  and  C_14
REMARK   14  A    between atoms: C_14  and  C_15
REMARK   15  A    between atoms: C_15  and  C_16
REMARK   16  A    between atoms: C_16  and  C_17
REMARK   17  A    between atoms: C_17  and  C_18
REMARK                            x       y       z     vdW  Elec       q    Type
REMARK                         _______ _______ _______ _____ _____    ______ ____
ROOT
ATOM      1  C   UNL     1       5.291   4.438  19.203  0.00  0.00    +0.000 C 
ENDROOT
BRANCH   1   2
ATOM      2  C   UNL     1       6.517   5.258  18.850  0.00  0.00    +0.000 C 
BRANCH   2   3
ATOM      3  C   UNL     1       6.135   6.366  17.887  0.00  0.00    +0.000 C 
BRANCH   3   4
ATOM      4  C   UNL     1       7.187   6.491  16.802  0.00  0.00    +0.000 C 
BRANCH   4   5
ATOM      5  C   UNL     1       7.021   5.371  15.792  0.00  0.00    +0.000 C 
BRANCH   5   6
ATOM      6  C   UNL     1       5.745   5.580  14.998  0.00  0.00    +0.000 C 
BRANCH   6   7
ATOM      7  C   UNL     1       5.360   4.293  14.292  0.00  0.00    +0.000 C 
BRANCH   7   8
ATOM      8  C   UNL     1       6.441   3.905  13.299  0.00  0.00    +0.000 C 
BRANCH   8   9
ATOM      9  C   UNL     1       5.847   3.056  12.189  0.00  0.00    +0.000 C 
BRANCH   9  11
ATOM     10  C   UNL     1       3.634   2.897  11.060  0.00  0.00    +0.000 C 
ATOM     11  C   UNL     1       4.759   3.829  11.459  0.00  0.00    +0.000 C 
ENDBRANCH   9  11
ENDBRANCH   8   9
ENDBRANCH   7   8
ENDBRANCH   6   7
ENDBRANCH   5   6
ENDBRANCH   4   5
ENDBRANCH   3   4
ENDBRANCH   2   3
ENDBRANCH   1   2
BRANCH   1  12
ATOM     12  C   UNL     1       4.253   4.563  18.104  0.00  0.00    +0.000 C 
BRANCH  12  13
ATOM     13  C   UNL     1       4.103   3.235  17.385  0.00  0.00    +0.000 C 
BRANCH  13  14
ATOM     14  C   UNL     1       2.744   2.633  17.686  0.00  0.00    +0.000 C 
BRANCH  14  15
ATOM     15  C   UNL     1       1.693   3.729  17.766  0.00  0.00    +0.000 C 
BRANCH  15  16
ATOM     16  C   UNL     1       0.668   3.381  18.833  0.00  0.00    +0.000 C 
BRANCH  16  17
ATOM     17  C   UNL     1       1.244   2.431  19.878  0.00  0.00    +0.000 C 
BRANCH  17  18
ATOM     18  C   UNL     1       1.586   3.160  21.161  0.00  0.00    +0.000 C 
ATOM     19  N   UNL     1       1.567   2.410  22.303  0.00  0.00    +0.000 N 
ATOM     20  O   UNL     1       1.872   4.355  21.222  0.00  0.00    +0.000 OA
ATOM     21  H   UNL     1       1.344   1.429  22.339  0.00  0.00    +0.000 HD
ATOM     22  H   UNL     1       1.794   2.886  23.166  0.00  0.00    +0.000 HD
ENDBRANCH  17  18
ENDBRANCH  16  17
ENDBRANCH  15  16
ENDBRANCH  14  15
ENDBRANCH  13  14
ENDBRANCH  12  13
ENDBRANCH   1  12
TORSDOF 16
ENDMDL
MODEL 7
REMARK VINA RESULT:      -5.3      4.098      5.322
REMARK  Name = 
REMARK  17 active torsions:
REMARK  status: ('A' for Active; 'I' for Inactive)
REMARK    1  A    between atoms: C_1  and  C_2
REMARK    2  A    between atoms: C_2  and  C_3
REMARK    3  A    between atoms: C_3  and  C_4
REMARK    4  A    between atoms: C_4  and  C_5
REMARK    5  A    between atoms: C_5  and  C_6
REMARK    6  A    between atoms: C_6  and  C_7
REMARK    7  A    between atoms: C_7  and  C_8
REMARK    8  A    between atoms: C_8  and  C_9
REMARK    9  A    between atoms: C_9  and  C_10
REMARK   10  A    between atoms: C_10  and  C_11
REMARK   11  A    between atoms: C_11  and  C_12
REMARK   12  A    between atoms: C_12  and  C_13
REMARK   13  A    between atoms: C_13  and  C_14
REMARK   14  A    between atoms: C_14  and  C_15
REMARK   15  A    between atoms: C_15  and  C_16
REMARK   16  A    between atoms: C_16  and  C_17
REMARK   17  A    between atoms: C_17  and  C_18
REMARK                            x       y       z     vdW  Elec       q    Type
REMARK                         _______ _______ _______ _____ _____    ______ ____
ROOT
ATOM      1  C   UNL     1       3.035   6.273  18.220  0.00  0.00    +0.000 C 
ENDROOT
BRANCH   1   2
ATOM      2  C   UNL     1       2.375   7.405  18.983  0.00  0.00    +0.000 C 
BRANCH   2   3
ATOM      3  C   UNL     1       1.973   6.928  20.366  0.00  0.00    +0.000 C 
BRANCH   3   4
ATOM      4  C   UNL     1       1.364   5.542  20.276  0.00  0.00    +0.000 C 
BRANCH   4   5
ATOM      5  C   UNL     1       2.114   4.590  21.187  0.00  0.00    +0.000 C 
BRANCH   5   6
ATOM      6  C   UNL     1       1.535   3.193  21.061  0.00  0.00    +0.000 C 
BRANCH   6   7
ATOM      7  C   UNL     1       0.613   3.124  19.858  0.00  0.00    +0.000 C 
BRANCH   7   8
ATOM      8  C   UNL     1       1.109   2.068  18.886  0.00  0.00    +0.000 C 
BRANCH   8   9
ATOM      9  C   UNL     1       2.377   2.545  18.202  0.00  0.00    +0.000 C 
BRANCH   9  11
ATOM     10  C   UNL     1       4.404   2.030  19.553  0.00  0.00    +0.000 C 
ATOM     11  C   UNL     1       3.506   1.551  18.431  0.00  0.00    +0.000 C 
ENDBRANCH   9  11
ENDBRANCH   8   9
ENDBRANCH   7   8
ENDBRANCH   6   7
ENDBRANCH   5   6
ENDBRANCH   4   5
ENDBRANCH   3   4
ENDBRANCH   2   3
ENDBRANCH   1   2
BRANCH   1  12
ATOM     12  C   UNL     1       4.347   6.749  17.624  0.00  0.00    +0.000 C 
BRANCH  12  13
ATOM     13  C   UNL     1       4.719   5.879  16.438  0.00  0.00    +0.000 C 
BRANCH  13  14
ATOM     14  C   UNL     1       5.294   4.561  16.921  0.00  0.00    +0.000 C 
BRANCH  14  15
ATOM     15  C   UNL     1       6.093   4.777  18.197  0.00  0.00    +0.000 C 
BRANCH  15  16
ATOM     16  C   UNL     1       7.497   5.246  17.852  0.00  0.00    +0.000 C 
BRANCH  16  17
ATOM     17  C   UNL     1       7.978   6.333  18.808  0.00  0.00    +0.000 C 
BRANCH  17  18
ATOM     18  C   UNL     1       8.071   7.677  18.117  0.00  0.00    +0.000 C 
ATOM     19  N   UNL     1       8.731   8.661  18.799  0.00  0.00    +0.000 N 
ATOM     20  O   UNL     1       7.598   7.919  17.008  0.00  0.00    +0.000 OA
ATOM     21  H   UNL     1       9.146   8.546  19.709  0.00  0.00    +0.000 HD
ATOM     22  H   UNL     1       8.799   9.563  18.348  0.00  0.00    +0.000 HD
ENDBRANCH  17  18
ENDBRANCH  16  17
ENDBRANCH  15  16
ENDBRANCH  14  15
ENDBRANCH  13  14
ENDBRANCH  12  13
ENDBRANCH   1  12
TORSDOF 16
ENDMDL
MODEL 8
REMARK VINA RESULT:      -5.2      1.322      2.103
REMARK  Name = 
REMARK  17 active torsions:
REMARK  status: ('A' for Active; 'I' for Inactive)
REMARK    1  A    between atoms: C_1  and  C_2
REMARK    2  A    between atoms: C_2  and  C_3
REMARK    3  A    between atoms: C_3  and  C_4
REMARK    4  A    between atoms: C_4  and  C_5
REMARK    5  A    between atoms: C_5  and  C_6
REMARK    6  A    between atoms: C_6  and  C_7
REMARK    7  A    between atoms: C_7  and  C_8
REMARK    8  A    between atoms: C_8  and  C_9
REMARK    9  A    between atoms: C_9  and  C_10
REMARK   10  A    between atoms: C_10  and  C_11
REMARK   11  A    between atoms: C_11  and  C_12
REMARK   12  A    between atoms: C_12  and  C_13
REMARK   13  A    between atoms: C_13  and  C_14
REMARK   14  A    between atoms: C_14  and  C_15
REMARK   15  A    between atoms: C_15  and  C_16
REMARK   16  A    between atoms: C_16  and  C_17
REMARK   17  A    between atoms: C_17  and  C_18
REMARK                            x       y       z     vdW  Elec       q    Type
REMARK                         _______ _______ _______ _____ _____    ______ ____
ROOT
ATOM      1  C   UNL     1       5.208   4.356  18.399  0.00  0.00    +0.000 C 
ENDROOT
BRANCH   1   2
ATOM      2  C   UNL     1       3.972   4.869  17.687  0.00  0.00    +0.000 C 
BRANCH   2   3
ATOM      3  C   UNL     1       3.218   3.710  17.063  0.00  0.00    +0.000 C 
BRANCH   3   4
ATOM      4  C   UNL     1       3.827   2.397  17.516  0.00  0.00    +0.000 C 
BRANCH   4   5
ATOM      5  C   UNL     1       3.089   1.881  18.737  0.00  0.00    +0.000 C 
BRANCH   5   6
ATOM      6  C   UNL     1       1.650   2.362  18.709  0.00  0.00    +0.000 C 
BRANCH   6   7
ATOM      7  C   UNL     1       1.117   2.476  20.124  0.00  0.00    +0.000 C 
BRANCH   7   8
ATOM      8  C   UNL     1       0.726   3.915  20.416  0.00  0.00    +0.000 C 
BRANCH   8   9
ATOM      9  C   UNL     1       1.938   4.819  20.284  0.00  0.00    +0.000 C 
BRANCH   9  11
ATOM     10  C   UNL     1       2.345   7.205  19.702  0.00  0.00    +0.000 C 
ATOM     11  C   UNL     1       1.557   6.260  20.585  0.00  0.00    +0.000 C 
ENDBRANCH   9  11
ENDBRANCH   8   9
ENDBRANCH   7   8
ENDBRANCH   6   7
ENDBRANCH   5   6
ENDBRANCH   4   5
ENDBRANCH   3   4
ENDBRANCH   2   3
ENDBRANCH   1   2
BRANCH   1  12
ATOM     12  C   UNL     1       6.340   5.356  18.253  0.00  0.00    +0.000 C 
BRANCH  12  13
ATOM     13  C   UNL     1       7.364   4.832  17.262  0.00  0.00    +0.000 C 
BRANCH  13  14
ATOM     14  C   UNL     1       6.907   5.119  15.844  0.00  0.00    +0.000 C 
BRANCH  14  15
ATOM     15  C   UNL     1       6.552   3.820  15.137  0.00  0.00    +0.000 C 
BRANCH  15  16
ATOM     16  C   UNL     1       5.623   4.109  13.969  0.00  0.00    +0.000 C 
BRANCH  16  17
ATOM     17  C   UNL     1       6.259   3.728  12.636  0.00  0.00    +0.000 C 
BRANCH  17  18
ATOM     18  C   UNL     1       5.352   2.824  11.828  0.00  0.00    +0.000 C 
ATOM     19  N   UNL     1       5.872   1.613  11.469  0.00  0.00    +0.000 N 
ATOM     20  O   UNL     1       4.206   3.118  11.490  0.00  0.00    +0.000 OA
ATOM     21  H   UNL     1       6.798   1.296  11.705  0.00  0.00    +0.000 HD
ATOM     22  H   UNL     1       5.276   1.000  10.929  0.00  0.00    +0.000 HD
ENDBRANCH  17  18
ENDBRANCH  16  17
ENDBRANCH  15  16
ENDBRANCH  14  15
ENDBRANCH  13  14
ENDBRANCH  12  13
ENDBRANCH   1  12
TORSDOF 16
ENDMDL
MODEL 9
REMARK VINA RESULT:      -5.2      1.370      2.293
REMARK  Name = 
REMARK  17 active torsions:
REMARK  status: ('A' for Active; 'I' for Inactive)
REMARK    1  A    between atoms: C_1  and  C_2
REMARK    2  A    between atoms: C_2  and  C_3
REMARK    3  A    between atoms: C_3  and  C_4
REMARK    4  A    between atoms: C_4  and  C_5
REMARK    5  A    between atoms: C_5  and  C_6
REMARK    6  A    between atoms: C_6  and  C_7
REMARK    7  A    between atoms: C_7  and  C_8
REMARK    8  A    between atoms: C_8  and  C_9
REMARK    9  A    between atoms: C_9  and  C_10
REMARK   10  A    between atoms: C_10  and  C_11
REMARK   11  A    between atoms: C_11  and  C_12
REMARK   12  A    between atoms: C_12  and  C_13
REMARK   13  A    between atoms: C_13  and  C_14
REMARK   14  A    between atoms: C_14  and  C_15
REMARK   15  A    between atoms: C_15  and  C_16
REMARK   16  A    between atoms: C_16  and  C_17
REMARK   17  A    between atoms: C_17  and  C_18
REMARK                            x       y       z     vdW  Elec       q    Type
REMARK                         _______ _______ _______ _____ _____    ______ ____
ROOT
ATOM      1  C   UNL     1       5.545   4.766  18.061  0.00  0.00    +0.000 C 
ENDROOT
BRANCH   1   2
ATOM      2  C   UNL     1       4.724   3.647  18.671  0.00  0.00    +0.000 C 
BRANCH   2   3
ATOM      3  C   UNL     1       3.517   3.359  17.799  0.00  0.00    +0.000 C 
BRANCH   3   4
ATOM      4  C   UNL     1       3.035   1.941  18.037  0.00  0.00    +0.000 C 
BRANCH   4   5
ATOM      5  C   UNL     1       1.990   1.931  19.136  0.00  0.00    +0.000 C 
BRANCH   5   6
ATOM      6  C   UNL     1       1.160   3.200  19.069  0.00  0.00    +0.000 C 
BRANCH   6   7
ATOM      7  C   UNL     1       0.923   3.735  20.469  0.00  0.00    +0.000 C 
BRANCH   7   8
ATOM      8  C   UNL     1       0.909   5.253  20.447  0.00  0.00    +0.000 C 
BRANCH   8   9
ATOM      9  C   UNL     1       2.322   5.783  20.277  0.00  0.00    +0.000 C 
BRANCH   9  11
ATOM     10  C   UNL     1       2.213   7.316  18.318  0.00  0.00    +0.000 C 
ATOM     11  C   UNL     1       2.290   7.236  19.829  0.00  0.00    +0.000 C 
ENDBRANCH   9  11
ENDBRANCH   8   9
ENDBRANCH   7   8
ENDBRANCH   6   7
ENDBRANCH   5   6
ENDBRANCH   4   5
ENDBRANCH   3   4
ENDBRANCH   2   3
ENDBRANCH   1   2
BRANCH   1  12
ATOM     12  C   UNL     1       4.763   5.429  16.943  0.00  0.00    +0.000 C 
BRANCH  12  13
ATOM     13  C   UNL     1       5.711   5.867  15.842  0.00  0.00    +0.000 C 
BRANCH  13  14
ATOM     14  C   UNL     1       6.723   4.773  15.563  0.00  0.00    +0.000 C 
BRANCH  14  15
ATOM     15  C   UNL     1       7.072   4.748  14.083  0.00  0.00    +0.000 C 
BRANCH  15  16
ATOM     16  C   UNL     1       6.001   3.991  13.315  0.00  0.00    +0.000 C 
BRANCH  16  17
ATOM     17  C   UNL     1       6.589   3.229  12.131  0.00  0.00    +0.000 C 
BRANCH  17  18
ATOM     18  C   UNL     1       5.586   2.261  11.542  0.00  0.00    +0.000 C 
ATOM     19  N   UNL     1       6.023   0.980  11.352  0.00  0.00    +0.000 N 
ATOM     20  O   UNL     1       4.432   2.560  11.237  0.00  0.00    +0.000 OA
ATOM     21  H   UNL     1       6.949   0.654  11.575  0.00  0.00    +0.000 HD
ATOM     22  H   UNL     1       5.362   0.324  10.959  0.00  0.00    +0.000 HD
ENDBRANCH  17  18
ENDBRANCH  16  17
ENDBRANCH  15  16
ENDBRANCH  14  15
ENDBRANCH  13  14
ENDBRANCH  12  13
ENDBRANCH   1  12
TORSDOF 16
ENDMDL
