MODEL 1
REMARK VINA RESULT:      -8.0      0.000      0.000
REMARK  Name = 
REMARK  5 active torsions:
REMARK  status: ('A' for Active; 'I' for Inactive)
REMARK    1  A    between atoms: C_1  and  C_2
REMARK    2  A    between atoms: C_5  and  N_6
REMARK    3  A    between atoms: N_6  and  C_7
REMARK    4  A    between atoms: C_14  and  N_15
REMARK    5  A    between atoms: N_18  and  C_19
REMARK                            x       y       z     vdW  Elec       q    Type
REMARK                         _______ _______ _______ _____ _____    ______ ____
ROOT
ATOM      1  C   UNL     1       3.472   4.760  19.265  0.00  0.00    +0.000 A 
ATOM      2  N   UNL     1       3.399   6.048  18.837  0.00  0.00    +0.000 NA
ATOM      3  C   UNL     1       2.598   6.893  19.492  0.00  0.00    +0.000 A 
ATOM      4  N   UNL     1       2.481   8.187  18.991  0.00  0.00    +0.000 N 
ATOM      5  C   UNL     1       1.395   9.055  19.145  0.00  0.00    +0.000 A 
ATOM      6  C   UNL     1       0.573   9.003  20.262  0.00  0.00    +0.000 A 
ATOM      7  C   UNL     1      -0.616   9.712  20.282  0.00  0.00    +0.000 A 
ATOM      8  C   UNL     1      -0.957  10.550  19.230  0.00  0.00    +0.000 A 
ATOM      9  C   UNL     1      -0.007  10.655  18.217  0.00  0.00    +0.000 A 
ATOM     10  N   UNL     1       1.142   9.922  18.141  0.00  0.00    +0.000 NA
ATOM     11  N   UNL     1       1.896   6.518  20.575  0.00  0.00    +0.000 NA
ATOM     12  C   UNL     1       1.963   5.239  20.975  0.00  0.00    +0.000 A 
ATOM     13  C   UNL     1       2.727   4.303  20.343  0.00  0.00    +0.000 A 
ATOM     14 CL   UNL     1       2.784   2.689  20.924  0.00  0.00    +0.000 Cl
ATOM     15  H   UNL     1       2.915   8.280  18.086  0.00  0.00    +0.000 HD
ENDROOT
BRANCH   8  16
ATOM     16  N   UNL     1      -2.172  11.207  19.297  0.00  0.00    +0.000 N 
ATOM     17  C   UNL     1      -2.290  12.493  19.991  0.00  0.00    +0.000 C 
ATOM     18  C   UNL     1      -3.786  12.731  20.323  0.00  0.00    +0.000 C 
ATOM     19  N   UNL     1      -4.659  12.693  19.123  0.00  0.00    +0.000 NA
ATOM     20  C   UNL     1      -6.060  12.848  19.502  0.00  0.00    +0.000 C 
ATOM     21  C   UNL     1      -4.463  11.408  18.410  0.00  0.00    +0.000 C 
ATOM     22  C   UNL     1      -2.982  11.146  18.060  0.00  0.00    +0.000 C 
ENDBRANCH   8  16
BRANCH   1  23
ATOM     23  N   UNL     1       4.271   3.841  18.533  0.00  0.00    +0.000 N 
ATOM     24  H   UNL     1       4.865   3.328  19.183  0.00  0.00    +0.000 HD
BRANCH  23  29
ATOM     25  C   UNL     1       7.458   4.896  13.897  0.00  0.00    +0.000 C 
ATOM     26  C   UNL     1       6.625   4.657  15.120  0.00  0.00    +0.000 A 
ATOM     27  C   UNL     1       7.186   4.772  16.394  0.00  0.00    +0.000 A 
ATOM     28  C   UNL     1       6.408   4.532  17.524  0.00  0.00    +0.000 A 
ATOM     29  C   UNL     1       5.055   4.194  17.408  0.00  0.00    +0.000 A 
ATOM     30  C   UNL     1       4.506   4.050  16.133  0.00  0.00    +0.000 A 
ATOM     31  C   UNL     1       5.279   4.294  14.995  0.00  0.00    +0.000 A 
ENDBRANCH  23  29
ENDBRANCH   1  23
TORSDOF 3
ENDMDL
MODEL 2
REMARK VINA RESULT:      -8.0      1.070      1.540
REMARK  Name = 
REMARK  5 active torsions:
REMARK  status: ('A' for Active; 'I' for Inactive)
REMARK    1  A    between atoms: C_1  and  C_2
REMARK    2  A    between atoms: C_5  and  N_6
REMARK    3  A    between atoms: N_6  and  C_7
REMARK    4  A    between atoms: C_14  and  N_15
REMARK    5  A    between atoms: N_18  and  C_19
REMARK                            x       y       z     vdW  Elec       q    Type
REMARK                         _______ _______ _______ _____ _____    ______ ____
ROOT
ATOM      1  C   UNL     1       4.022   4.319  18.055  0.00  0.00    +0.000 A 
ATOM      2  N   UNL     1       3.945   5.632  17.714  0.00  0.00    +0.000 NA
ATOM      3  C   UNL     1       3.321   6.471  18.547  0.00  0.00    +0.000 A 
ATOM      4  N   UNL     1       3.187   7.797  18.143  0.00  0.00    +0.000 N 
ATOM      5  C   UNL     1       2.195   8.701  18.534  0.00  0.00    +0.000 A 
ATOM      6  C   UNL     1       1.583   8.618  19.777  0.00  0.00    +0.000 A 
ATOM      7  C   UNL     1       0.458   9.377  20.049  0.00  0.00    +0.000 A 
ATOM      8  C   UNL     1      -0.019  10.291  19.120  0.00  0.00    +0.000 A 
ATOM      9  C   UNL     1       0.740  10.415  17.959  0.00  0.00    +0.000 A 
ATOM     10  N   UNL     1       1.816   9.638  17.639  0.00  0.00    +0.000 NA
ATOM     11  N   UNL     1       2.804   6.063  19.717  0.00  0.00    +0.000 NA
ATOM     12  C   UNL     1       2.871   4.760  20.033  0.00  0.00    +0.000 A 
ATOM     13  C   UNL     1       3.458   3.831  19.225  0.00  0.00    +0.000 A 
ATOM     14 CL   UNL     1       3.528   2.184  19.702  0.00  0.00    +0.000 Cl
ATOM     15  H   UNL     1       3.458   7.925  17.179  0.00  0.00    +0.000 HD
ENDROOT
BRANCH   8  16
ATOM     16  N   UNL     1      -1.165  10.997  19.440  0.00  0.00    +0.000 N 
ATOM     17  C   UNL     1      -1.138  12.046  20.463  0.00  0.00    +0.000 C 
ATOM     18  C   UNL     1      -2.591  12.299  20.940  0.00  0.00    +0.000 C 
ATOM     19  N   UNL     1      -3.510  12.661  19.832  0.00  0.00    +0.000 NA
ATOM     20  C   UNL     1      -4.875  12.814  20.327  0.00  0.00    +0.000 C 
ATOM     21  C   UNL     1      -3.460  11.612  18.786  0.00  0.00    +0.000 C 
ATOM     22  C   UNL     1      -2.025  11.342  18.286  0.00  0.00    +0.000 C 
ENDBRANCH   8  16
BRANCH   1  23
ATOM     23  N   UNL     1       4.628   3.411  17.144  0.00  0.00    +0.000 N 
ATOM     24  H   UNL     1       5.097   2.676  17.671  0.00  0.00    +0.000 HD
BRANCH  23  29
ATOM     25  C   UNL     1       7.984   5.355  12.935  0.00  0.00    +0.000 C 
ATOM     26  C   UNL     1       7.114   4.810  14.027  0.00  0.00    +0.000 A 
ATOM     27  C   UNL     1       5.913   4.165  13.722  0.00  0.00    +0.000 A 
ATOM     28  C   UNL     1       5.102   3.676  14.744  0.00  0.00    +0.000 A 
ATOM     29  C   UNL     1       5.480   3.803  16.085  0.00  0.00    +0.000 A 
ATOM     30  C   UNL     1       6.666   4.475  16.388  0.00  0.00    +0.000 A 
ATOM     31  C   UNL     1       7.486   4.963  15.367  0.00  0.00    +0.000 A 
ENDBRANCH  23  29
ENDBRANCH   1  23
TORSDOF 3
ENDMDL
MODEL 3
REMARK VINA RESULT:      -7.7      6.597      8.954
REMARK  Name = 
REMARK  5 active torsions:
REMARK  status: ('A' for Active; 'I' for Inactive)
REMARK    1  A    between atoms: C_1  and  C_2
REMARK    2  A    between atoms: C_5  and  N_6
REMARK    3  A    between atoms: N_6  and  C_7
REMARK    4  A    between atoms: C_14  and  N_15
REMARK    5  A    between atoms: N_18  and  C_19
REMARK                            x       y       z     vdW  Elec       q    Type
REMARK                         _______ _______ _______ _____ _____    ______ ____
ROOT
ATOM      1  C   UNL     1       6.401   6.115  17.261  0.00  0.00    +0.000 A 
ATOM      2  N   UNL     1       6.880   7.317  16.844  0.00  0.00    +0.000 NA
ATOM      3  C   UNL     1       7.766   7.953  17.615  0.00  0.00    +0.000 A 
ATOM      4  N   UNL     1       8.186   9.216  17.206  0.00  0.00    +0.000 N 
ATOM      5  C   UNL     1       8.657  10.252  18.018  0.00  0.00    +0.000 A 
ATOM      6  C   UNL     1       9.319   9.998  19.211  0.00  0.00    +0.000 A 
ATOM      7  C   UNL     1       9.571  11.031  20.098  0.00  0.00    +0.000 A 
ATOM      8  C   UNL     1       9.247  12.340  19.770  0.00  0.00    +0.000 A 
ATOM      9  C   UNL     1       8.719  12.522  18.494  0.00  0.00    +0.000 A 
ATOM     10  N   UNL     1       8.404  11.518  17.625  0.00  0.00    +0.000 NA
ATOM     11  N   UNL     1       8.219   7.426  18.766  0.00  0.00    +0.000 NA
ATOM     12  C   UNL     1       7.724   6.248  19.175  0.00  0.00    +0.000 A 
ATOM     13  C   UNL     1       6.792   5.549  18.467  0.00  0.00    +0.000 A 
ATOM     14 CL   UNL     1       6.219   4.036  19.039  0.00  0.00    +0.000 Cl
ATOM     15  H   UNL     1       7.639   9.560  16.431  0.00  0.00    +0.000 HD
ENDROOT
BRANCH   8  16
ATOM     16  N   UNL     1       9.497  13.322  20.711  0.00  0.00    +0.000 N 
ATOM     17  C   UNL     1       9.162  13.108  22.122  0.00  0.00    +0.000 C 
ATOM     18  C   UNL     1       9.089  14.491  22.820  0.00  0.00    +0.000 C 
ATOM     19  N   UNL     1      10.342  15.275  22.683  0.00  0.00    +0.000 NA
ATOM     20  C   UNL     1      10.191  16.593  23.293  0.00  0.00    +0.000 C 
ATOM     21  C   UNL     1      10.686  15.412  21.248  0.00  0.00    +0.000 C 
ATOM     22  C   UNL     1      10.772  14.050  20.528  0.00  0.00    +0.000 C 
ENDBRANCH   8  16
BRANCH   1  23
ATOM     23  N   UNL     1       5.411   5.465  16.477  0.00  0.00    +0.000 N 
ATOM     24  H   UNL     1       5.153   6.071  15.699  0.00  0.00    +0.000 HD
BRANCH  23  29
ATOM     25  C   UNL     1       0.775   3.202  18.957  0.00  0.00    +0.000 C 
ATOM     26  C   UNL     1       1.972   3.790  18.273  0.00  0.00    +0.000 A 
ATOM     27  C   UNL     1       2.809   2.989  17.493  0.00  0.00    +0.000 A 
ATOM     28  C   UNL     1       3.929   3.540  16.875  0.00  0.00    +0.000 A 
ATOM     29  C   UNL     1       4.225   4.902  17.005  0.00  0.00    +0.000 A 
ATOM     30  C   UNL     1       3.404   5.694  17.811  0.00  0.00    +0.000 A 
ATOM     31  C   UNL     1       2.277   5.147  18.429  0.00  0.00    +0.000 A 
ENDBRANCH  23  29
ENDBRANCH   1  23
TORSDOF 3
ENDMDL
MODEL 4
REMARK VINA RESULT:      -7.6      0.953      1.011
REMARK  Name = 
REMARK  5 active torsions:
REMARK  status: ('A' for Active; 'I' for Inactive)
REMARK    1  A    between atoms: C_1  and  C_2
REMARK    2  A    between atoms: C_5  and  N_6
REMARK    3  A    between atoms: N_6  and  C_7
REMARK    4  A    between atoms: C_14  and  N_15
REMARK    5  A    between atoms: N_18  and  C_19
REMARK                            x       y       z     vdW  Elec       q    Type
REMARK                         _______ _______ _______ _____ _____    ______ ____
ROOT
ATOM      1  C   UNL     1       3.417   4.872  18.189  0.00  0.00    +0.000 A 
ATOM      2  N   UNL     1       3.294   6.185  17.859  0.00  0.00    +0.000 NA
ATOM      3  C   UNL     1       2.716   7.011  18.737  0.00  0.00    +0.000 A 
ATOM      4  N   UNL     1       2.531   8.335  18.348  0.00  0.00    +0.000 N 
ATOM      5  C   UNL     1       1.555   9.221  18.812  0.00  0.00    +0.000 A 
ATOM      6  C   UNL     1       1.033   9.124  20.094  0.00  0.00    +0.000 A 
ATOM      7  C   UNL     1      -0.084   9.863  20.447  0.00  0.00    +0.000 A 
ATOM      8  C   UNL     1      -0.640  10.772  19.558  0.00  0.00    +0.000 A 
ATOM      9  C   UNL     1       0.034  10.911  18.347  0.00  0.00    +0.000 A 
ATOM     10  N   UNL     1       1.097  10.153  17.949  0.00  0.00    +0.000 NA
ATOM     11  N   UNL     1       2.289   6.590  19.939  0.00  0.00    +0.000 NA
ATOM     12  C   UNL     1       2.400   5.288  20.244  0.00  0.00    +0.000 A 
ATOM     13  C   UNL     1       2.945   4.372  19.394  0.00  0.00    +0.000 A 
ATOM     14 CL   UNL     1       3.076   2.724  19.858  0.00  0.00    +0.000 Cl
ATOM     15  H   UNL     1       2.732   8.470  17.369  0.00  0.00    +0.000 HD
ENDROOT
BRANCH   8  16
ATOM     16  N   UNL     1      -1.772  11.456  19.960  0.00  0.00    +0.000 N 
ATOM     17  C   UNL     1      -1.702  12.457  21.028  0.00  0.00    +0.000 C 
ATOM     18  C   UNL     1      -3.134  12.681  21.580  0.00  0.00    +0.000 C 
ATOM     19  N   UNL     1      -4.101  13.090  20.532  0.00  0.00    +0.000 NA
ATOM     20  C   UNL     1      -5.443  13.214  21.093  0.00  0.00    +0.000 C 
ATOM     21  C   UNL     1      -4.095  12.091  19.437  0.00  0.00    +0.000 C 
ATOM     22  C   UNL     1      -2.683  11.851  18.863  0.00  0.00    +0.000 C 
ENDBRANCH   8  16
BRANCH   1  23
ATOM     23  N   UNL     1       3.972   3.978  17.234  0.00  0.00    +0.000 N 
ATOM     24  H   UNL     1       4.322   3.151  17.718  0.00  0.00    +0.000 HD
BRANCH  23  29
ATOM     25  C   UNL     1       7.946   5.126  13.279  0.00  0.00    +0.000 C 
ATOM     26  C   UNL     1       6.898   4.863  14.316  0.00  0.00    +0.000 A 
ATOM     27  C   UNL     1       7.093   5.262  15.640  0.00  0.00    +0.000 A 
ATOM     28  C   UNL     1       6.120   4.999  16.602  0.00  0.00    +0.000 A 
ATOM     29  C   UNL     1       4.928   4.351  16.260  0.00  0.00    +0.000 A 
ATOM     30  C   UNL     1       4.749   3.925  14.942  0.00  0.00    +0.000 A 
ATOM     31  C   UNL     1       5.719   4.192  13.973  0.00  0.00    +0.000 A 
ENDBRANCH  23  29
ENDBRANCH   1  23
TORSDOF 3
ENDMDL
MODEL 5
REMARK VINA RESULT:      -7.6      6.762     10.145
REMARK  Name = 
REMARK  5 active torsions:
REMARK  status: ('A' for Active; 'I' for Inactive)
REMARK    1  A    between atoms: C_1  and  C_2
REMARK    2  A    between atoms: C_5  and  N_6
REMARK    3  A    between atoms: N_6  and  C_7
REMARK    4  A    between atoms: C_14  and  N_15
REMARK    5  A    between atoms: N_18  and  C_19
REMARK                            x       y       z     vdW  Elec       q    Type
REMARK                         _______ _______ _______ _____ _____    ______ ____
ROOT
ATOM      1  C   UNL     1       9.547  11.386  19.109  0.00  0.00    +0.000 A 
ATOM      2  N   UNL     1       9.622  10.039  19.277  0.00  0.00    +0.000 NA
ATOM      3  C   UNL     1       8.801   9.261  18.566  0.00  0.00    +0.000 A 
ATOM      4  N   UNL     1       8.842   7.890  18.810  0.00  0.00    +0.000 N 
ATOM      5  C   UNL     1       7.809   6.969  18.618  0.00  0.00    +0.000 A 
ATOM      6  C   UNL     1       6.841   7.153  17.640  0.00  0.00    +0.000 A 
ATOM      7  C   UNL     1       5.713   6.351  17.620  0.00  0.00    +0.000 A 
ATOM      8  C   UNL     1       5.576   5.301  18.518  0.00  0.00    +0.000 A 
ATOM      9  C   UNL     1       6.659   5.097  19.369  0.00  0.00    +0.000 A 
ATOM     10  N   UNL     1       7.755   5.908  19.451  0.00  0.00    +0.000 NA
ATOM     11  N   UNL     1       7.934   9.765  17.672  0.00  0.00    +0.000 NA
ATOM     12  C   UNL     1       7.857  11.098  17.529  0.00  0.00    +0.000 A 
ATOM     13  C   UNL     1       8.634  11.965  18.239  0.00  0.00    +0.000 A 
ATOM     14 CL   UNL     1       8.498  13.658  17.989  0.00  0.00    +0.000 Cl
ATOM     15  H   UNL     1       9.400   7.670  19.621  0.00  0.00    +0.000 HD
ENDROOT
BRANCH   8  16
ATOM     16  N   UNL     1       4.411   4.557  18.466  0.00  0.00    +0.000 N 
ATOM     17  C   UNL     1       3.721   4.334  17.193  0.00  0.00    +0.000 C 
ATOM     18  C   UNL     1       2.258   3.918  17.497  0.00  0.00    +0.000 C 
ATOM     19  N   UNL     1       2.167   2.720  18.369  0.00  0.00    +0.000 NA
ATOM     20  C   UNL     1       0.773   2.420  18.683  0.00  0.00    +0.000 C 
ATOM     21  C   UNL     1       2.932   2.956  19.616  0.00  0.00    +0.000 C 
ATOM     22  C   UNL     1       4.395   3.366  19.344  0.00  0.00    +0.000 C 
ENDBRANCH   8  16
BRANCH   1  23
ATOM     23  N   UNL     1      10.373  12.221  19.908  0.00  0.00    +0.000 N 
ATOM     24  H   UNL     1      11.232  11.721  20.133  0.00  0.00    +0.000 HD
BRANCH  23  29
ATOM     25  C   UNL     1       8.244  14.901  24.495  0.00  0.00    +0.000 C 
ATOM     26  C   UNL     1       8.836  14.203  23.309  0.00  0.00    +0.000 A 
ATOM     27  C   UNL     1       9.634  14.900  22.400  0.00  0.00    +0.000 A 
ATOM     28  C   UNL     1      10.168  14.246  21.292  0.00  0.00    +0.000 A 
ATOM     29  C   UNL     1       9.933  12.883  21.078  0.00  0.00    +0.000 A 
ATOM     30  C   UNL     1       9.109  12.196  21.972  0.00  0.00    +0.000 A 
ATOM     31  C   UNL     1       8.576  12.846  23.088  0.00  0.00    +0.000 A 
ENDBRANCH  23  29
ENDBRANCH   1  23
TORSDOF 3
ENDMDL
MODEL 6
REMARK VINA RESULT:      -7.4      7.182      8.649
REMARK  Name = 
REMARK  5 active torsions:
REMARK  status: ('A' for Active; 'I' for Inactive)
REMARK    1  A    between atoms: C_1  and  C_2
REMARK    2  A    between atoms: C_5  and  N_6
REMARK    3  A    between atoms: N_6  and  C_7
REMARK    4  A    between atoms: C_14  and  N_15
REMARK    5  A    between atoms: N_18  and  C_19
REMARK                            x       y       z     vdW  Elec       q    Type
REMARK                         _______ _______ _______ _____ _____    ______ ____
ROOT
ATOM      1  C   UNL     1       7.143  15.602  17.931  0.00  0.00    +0.000 A 
ATOM      2  N   UNL     1       6.115  14.815  17.518  0.00  0.00    +0.000 NA
ATOM      3  C   UNL     1       4.885  15.086  17.963  0.00  0.00    +0.000 A 
ATOM      4  N   UNL     1       3.859  14.223  17.588  0.00  0.00    +0.000 N 
ATOM      5  C   UNL     1       2.671  13.974  18.282  0.00  0.00    +0.000 A 
ATOM      6  C   UNL     1       2.081  14.939  19.086  0.00  0.00    +0.000 A 
ATOM      7  C   UNL     1       1.040  14.596  19.931  0.00  0.00    +0.000 A 
ATOM      8  C   UNL     1       0.515  13.311  19.922  0.00  0.00    +0.000 A 
ATOM      9  C   UNL     1       1.069  12.447  18.981  0.00  0.00    +0.000 A 
ATOM     10  N   UNL     1       2.136  12.739  18.180  0.00  0.00    +0.000 NA
ATOM     11  N   UNL     1       4.633  16.128  18.774  0.00  0.00    +0.000 NA
ATOM     12  C   UNL     1       5.660  16.886  19.189  0.00  0.00    +0.000 A 
ATOM     13  C   UNL     1       6.950  16.657  18.811  0.00  0.00    +0.000 A 
ATOM     14 CL   UNL     1       8.212  17.681  19.362  0.00  0.00    +0.000 Cl
ATOM     15  H   UNL     1       4.214  13.395  17.134  0.00  0.00    +0.000 HD
ENDROOT
BRANCH   8  16
ATOM     16  N   UNL     1      -0.504  13.024  20.811  0.00  0.00    +0.000 N 
ATOM     17  C   UNL     1      -1.906  13.221  20.432  0.00  0.00    +0.000 C 
ATOM     18  C   UNL     1      -2.755  13.296  21.727  0.00  0.00    +0.000 C 
ATOM     19  N   UNL     1      -2.601  12.098  22.590  0.00  0.00    +0.000 NA
ATOM     20  C   UNL     1      -3.362  12.255  23.826  0.00  0.00    +0.000 C 
ATOM     21  C   UNL     1      -1.166  11.891  22.897  0.00  0.00    +0.000 C 
ATOM     22  C   UNL     1      -0.295  11.807  21.625  0.00  0.00    +0.000 C 
ENDBRANCH   8  16
BRANCH   1  23
ATOM     23  N   UNL     1       8.462  15.279  17.511  0.00  0.00    +0.000 N 
ATOM     24  H   UNL     1       8.448  15.052  16.518  0.00  0.00    +0.000 HD
BRANCH  23  29
ATOM     25  C   UNL     1      12.114  11.607  19.949  0.00  0.00    +0.000 C 
ATOM     26  C   UNL     1      11.129  12.552  19.330  0.00  0.00    +0.000 A 
ATOM     27  C   UNL     1      10.206  12.096  18.386  0.00  0.00    +0.000 A 
ATOM     28  C   UNL     1       9.305  12.985  17.803  0.00  0.00    +0.000 A 
ATOM     29  C   UNL     1       9.293  14.337  18.163  0.00  0.00    +0.000 A 
ATOM     30  C   UNL     1      10.237  14.795  19.085  0.00  0.00    +0.000 A 
ATOM     31  C   UNL     1      11.140  13.908  19.676  0.00  0.00    +0.000 A 
ENDBRANCH  23  29
ENDBRANCH   1  23
TORSDOF 3
ENDMDL
MODEL 7
REMARK VINA RESULT:      -7.3      1.939      2.516
REMARK  Name = 
REMARK  5 active torsions:
REMARK  status: ('A' for Active; 'I' for Inactive)
REMARK    1  A    between atoms: C_1  and  C_2
REMARK    2  A    between atoms: C_5  and  N_6
REMARK    3  A    between atoms: N_6  and  C_7
REMARK    4  A    between atoms: C_14  and  N_15
REMARK    5  A    between atoms: N_18  and  C_19
REMARK                            x       y       z     vdW  Elec       q    Type
REMARK                         _______ _______ _______ _____ _____    ______ ____
ROOT
ATOM      1  C   UNL     1       2.284   6.080  18.841  0.00  0.00    +0.000 A 
ATOM      2  N   UNL     1       2.016   7.357  18.462  0.00  0.00    +0.000 NA
ATOM      3  C   UNL     1       1.667   8.241  19.401  0.00  0.00    +0.000 A 
ATOM      4  N   UNL     1       1.323   9.524  18.981  0.00  0.00    +0.000 N 
ATOM      5  C   UNL     1       0.474  10.424  19.631  0.00  0.00    +0.000 A 
ATOM      6  C   UNL     1       0.330  10.424  21.011  0.00  0.00    +0.000 A 
ATOM      7  C   UNL     1      -0.678  11.165  21.604  0.00  0.00    +0.000 A 
ATOM      8  C   UNL     1      -1.497  11.983  20.840  0.00  0.00    +0.000 A 
ATOM      9  C   UNL     1      -1.190  12.035  19.482  0.00  0.00    +0.000 A 
ATOM     10  N   UNL     1      -0.245  11.270  18.862  0.00  0.00    +0.000 NA
ATOM     11  N   UNL     1       1.606   7.914  20.703  0.00  0.00    +0.000 NA
ATOM     12  C   UNL     1       1.855   6.645  21.061  0.00  0.00    +0.000 A 
ATOM     13  C   UNL     1       2.184   5.672  20.164  0.00  0.00    +0.000 A 
ATOM     14 CL   UNL     1       2.512   4.073  20.696  0.00  0.00    +0.000 Cl
ATOM     15  H   UNL     1       1.240   9.580  17.978  0.00  0.00    +0.000 HD
ENDROOT
BRANCH   8  16
ATOM     16  N   UNL     1      -2.504  12.674  21.488  0.00  0.00    +0.000 N 
ATOM     17  C   UNL     1      -3.786  12.927  20.824  0.00  0.00    +0.000 C 
ATOM     18  C   UNL     1      -4.494  14.094  21.560  0.00  0.00    +0.000 C 
ATOM     19  N   UNL     1      -4.688  13.833  23.008  0.00  0.00    +0.000 NA
ATOM     20  C   UNL     1      -5.289  14.991  23.662  0.00  0.00    +0.000 C 
ATOM     21  C   UNL     1      -3.382  13.514  23.632  0.00  0.00    +0.000 C 
ATOM     22  C   UNL     1      -2.656  12.351  22.924  0.00  0.00    +0.000 C 
ENDBRANCH   8  16
BRANCH   1  23
ATOM     23  N   UNL     1       2.594   5.120  17.840  0.00  0.00    +0.000 N 
ATOM     24  H   UNL     1       2.367   4.190  18.190  0.00  0.00    +0.000 HD
BRANCH  23  29
ATOM     25  C   UNL     1       7.458   4.945  14.828  0.00  0.00    +0.000 C 
ATOM     26  C   UNL     1       6.203   4.976  15.646  0.00  0.00    +0.000 A 
ATOM     27  C   UNL     1       5.550   3.790  15.989  0.00  0.00    +0.000 A 
ATOM     28  C   UNL     1       4.375   3.828  16.737  0.00  0.00    +0.000 A 
ATOM     29  C   UNL     1       3.839   5.046  17.173  0.00  0.00    +0.000 A 
ATOM     30  C   UNL     1       4.477   6.231  16.802  0.00  0.00    +0.000 A 
ATOM     31  C   UNL     1       5.659   6.198  16.057  0.00  0.00    +0.000 A 
ENDBRANCH  23  29
ENDBRANCH   1  23
TORSDOF 3
ENDMDL
MODEL 8
REMARK VINA RESULT:      -7.3      1.021      1.500
REMARK  Name = 
REMARK  5 active torsions:
REMARK  status: ('A' for Active; 'I' for Inactive)
REMARK    1  A    between atoms: C_1  and  C_2
REMARK    2  A    between atoms: C_5  and  N_6
REMARK    3  A    between atoms: N_6  and  C_7
REMARK    4  A    between atoms: C_14  and  N_15
REMARK    5  A    between atoms: N_18  and  C_19
REMARK                            x       y       z     vdW  Elec       q    Type
REMARK                         _______ _______ _______ _____ _____    ______ ____
ROOT
ATOM      1  C   UNL     1       4.078   4.514  18.134  0.00  0.00    +0.000 A 
ATOM      2  N   UNL     1       3.999   5.833  17.816  0.00  0.00    +0.000 NA
ATOM      3  C   UNL     1       3.291   6.640  18.612  0.00  0.00    +0.000 A 
ATOM      4  N   UNL     1       3.161   7.972  18.226  0.00  0.00    +0.000 N 
ATOM      5  C   UNL     1       2.121   8.846  18.554  0.00  0.00    +0.000 A 
ATOM      6  C   UNL     1       1.412   8.722  19.740  0.00  0.00    +0.000 A 
ATOM      7  C   UNL     1       0.251   9.451  19.935  0.00  0.00    +0.000 A 
ATOM      8  C   UNL     1      -0.169  10.377  18.990  0.00  0.00    +0.000 A 
ATOM      9  C   UNL     1       0.679  10.543  17.898  0.00  0.00    +0.000 A 
ATOM     10  N   UNL     1       1.795   9.795  17.651  0.00  0.00    +0.000 NA
ATOM     11  N   UNL     1       2.689   6.194  19.727  0.00  0.00    +0.000 NA
ATOM     12  C   UNL     1       2.759   4.886  20.019  0.00  0.00    +0.000 A 
ATOM     13  C   UNL     1       3.431   3.989  19.243  0.00  0.00    +0.000 A 
ATOM     14 CL   UNL     1       3.499   2.333  19.689  0.00  0.00    +0.000 Cl
ATOM     15  H   UNL     1       3.507   8.127  17.291  0.00  0.00    +0.000 HD
ENDROOT
BRANCH   8  16
ATOM     16  N   UNL     1      -1.353  11.051  19.229  0.00  0.00    +0.000 N 
ATOM     17  C   UNL     1      -2.600  10.624  18.588  0.00  0.00    +0.000 C 
ATOM     18  C   UNL     1      -3.604  11.805  18.641  0.00  0.00    +0.000 C 
ATOM     19  N   UNL     1      -3.854  12.290  20.021  0.00  0.00    +0.000 NA
ATOM     20  C   UNL     1      -4.746  13.446  20.004  0.00  0.00    +0.000 C 
ATOM     21  C   UNL     1      -2.566  12.648  20.662  0.00  0.00    +0.000 C 
ATOM     22  C   UNL     1      -1.548  11.488  20.629  0.00  0.00    +0.000 C 
ENDBRANCH   8  16
BRANCH   1  23
ATOM     23  N   UNL     1       4.776   3.641  17.257  0.00  0.00    +0.000 N 
ATOM     24  H   UNL     1       5.375   3.027  17.807  0.00  0.00    +0.000 HD
BRANCH  23  29
ATOM     25  C   UNL     1       7.823   5.023  12.613  0.00  0.00    +0.000 C 
ATOM     26  C   UNL     1       7.021   4.698  13.837  0.00  0.00    +0.000 A 
ATOM     27  C   UNL     1       7.546   4.926  15.110  0.00  0.00    +0.000 A 
ATOM     28  C   UNL     1       6.800   4.606  16.243  0.00  0.00    +0.000 A 
ATOM     29  C   UNL     1       5.512   4.073  16.128  0.00  0.00    +0.000 A 
ATOM     30  C   UNL     1       5.001   3.818  14.853  0.00  0.00    +0.000 A 
ATOM     31  C   UNL     1       5.743   4.142  13.714  0.00  0.00    +0.000 A 
ENDBRANCH  23  29
ENDBRANCH   1  23
TORSDOF 3
ENDMDL
MODEL 9
REMARK VINA RESULT:      -7.3      4.175     11.717
REMARK  Name = 
REMARK  5 active torsions:
REMARK  status: ('A' for Active; 'I' for Inactive)
REMARK    1  A    between atoms: C_1  and  C_2
REMARK    2  A    between atoms: C_5  and  N_6
REMARK    3  A    between atoms: N_6  and  C_7
REMARK    4  A    between atoms: C_14  and  N_15
REMARK    5  A    between atoms: N_18  and  C_19
REMARK                            x       y       z     vdW  Elec       q    Type
REMARK                         _______ _______ _______ _____ _____    ______ ____
ROOT
ATOM      1  C   UNL     1      -3.824  12.878  22.173  0.00  0.00    +0.000 A 
ATOM      2  N   UNL     1      -2.666  12.370  22.671  0.00  0.00    +0.000 NA
ATOM      3  C   UNL     1      -1.730  11.956  21.812  0.00  0.00    +0.000 A 
ATOM      4  N   UNL     1      -0.584  11.370  22.343  0.00  0.00    +0.000 N 
ATOM      5  C   UNL     1       0.251  10.438  21.721  0.00  0.00    +0.000 A 
ATOM      6  C   UNL     1       0.414  10.411  20.343  0.00  0.00    +0.000 A 
ATOM      7  C   UNL     1       1.062   9.346  19.741  0.00  0.00    +0.000 A 
ATOM      8  C   UNL     1       1.633   8.341  20.508  0.00  0.00    +0.000 A 
ATOM      9  C   UNL     1       1.550   8.521  21.887  0.00  0.00    +0.000 A 
ATOM     10  N   UNL     1       0.865   9.527  22.506  0.00  0.00    +0.000 NA
ATOM     11  N   UNL     1      -1.886  12.059  20.482  0.00  0.00    +0.000 NA
ATOM     12  C   UNL     1      -3.041  12.546  20.003  0.00  0.00    +0.000 A 
ATOM     13  C   UNL     1      -4.062  12.958  20.808  0.00  0.00    +0.000 A 
ATOM     14 CL   UNL     1      -5.505  13.592  20.128  0.00  0.00    +0.000 Cl
ATOM     15  H   UNL     1      -0.676  11.195  23.333  0.00  0.00    +0.000 HD
ENDROOT
BRANCH   8  16
ATOM     16  N   UNL     1       2.239   7.289  19.846  0.00  0.00    +0.000 N 
ATOM     17  C   UNL     1       1.943   5.902  20.214  0.00  0.00    +0.000 C 
ATOM     18  C   UNL     1       3.084   5.001  19.676  0.00  0.00    +0.000 C 
ATOM     19  N   UNL     1       3.281   5.131  18.210  0.00  0.00    +0.000 NA
ATOM     20  C   UNL     1       4.413   4.319  17.771  0.00  0.00    +0.000 C 
ATOM     21  C   UNL     1       3.510   6.554  17.866  0.00  0.00    +0.000 C 
ATOM     22  C   UNL     1       2.386   7.476  18.385  0.00  0.00    +0.000 C 
ENDBRANCH   8  16
BRANCH   1  23
ATOM     23  N   UNL     1      -4.849  13.261  23.080  0.00  0.00    +0.000 N 
ATOM     24  H   UNL     1      -5.756  13.111  22.639  0.00  0.00    +0.000 HD
BRANCH  23  29
ATOM     25  C   UNL     1      -4.971  18.465  25.458  0.00  0.00    +0.000 C 
ATOM     26  C   UNL     1      -4.941  17.087  24.870  0.00  0.00    +0.000 A 
ATOM     27  C   UNL     1      -3.812  16.278  25.019  0.00  0.00    +0.000 A 
ATOM     28  C   UNL     1      -3.786  15.004  24.455  0.00  0.00    +0.000 A 
ATOM     29  C   UNL     1      -4.888  14.506  23.752  0.00  0.00    +0.000 A 
ATOM     30  C   UNL     1      -6.003  15.329  23.579  0.00  0.00    +0.000 A 
ATOM     31  C   UNL     1      -6.037  16.605  24.146  0.00  0.00    +0.000 A 
ENDBRANCH  23  29
ENDBRANCH   1  23
TORSDOF 3
ENDMDL
