MODEL 1
REMARK VINA RESULT:      -8.4      0.000      0.000
REMARK  Name = 
REMARK  5 active torsions:
REMARK  status: ('A' for Active; 'I' for Inactive)
REMARK    1  A    between atoms: C_1  and  C_2
REMARK    2  A    between atoms: C_4  and  C_5
REMARK    3  A    between atoms: N_7  and  C_8
REMARK    4  A    between atoms: C_10  and  C_11
REMARK    5  A    between atoms: C_16  and  C_17
REMARK                            x       y       z     vdW  Elec       q    Type
REMARK                         _______ _______ _______ _____ _____    ______ ____
ROOT
ATOM      1  C   UNL     1       2.662   6.471  18.722  0.00  0.00    +0.000 A 
ATOM      2  C   UNL     1       3.681   6.674  17.783  0.00  0.00    +0.000 A 
ATOM      3  C   UNL     1       4.208   5.624  17.020  0.00  0.00    +0.000 A 
ATOM      4  C   UNL     1       3.695   4.336  17.208  0.00  0.00    +0.000 A 
ATOM      5  C   UNL     1       2.688   4.095  18.157  0.00  0.00    +0.000 A 
ATOM      6  C   UNL     1       2.188   5.171  18.923  0.00  0.00    +0.000 A 
ENDROOT
BRANCH   1   9
ATOM      7  C   UNL     1       1.567   8.690  18.918  0.00  0.00    +0.000 C 
ATOM      8  O   UNL     1       1.397   8.894  17.717  0.00  0.00    +0.000 OA
ATOM      9  N   UNL     1       2.112   7.538  19.473  0.00  0.00    +0.000 N 
ATOM     10  H   UNL     1       2.030   7.440  20.482  0.00  0.00    +0.000 HD
BRANCH   7  14
ATOM     11  C   UNL     1      -0.513   9.963  23.225  0.00  0.00    +0.000 C 
ATOM     12  C   UNL     1       0.115  10.319  21.910  0.00  0.00    +0.000 A 
ATOM     13  C   UNL     1       0.538   9.332  21.053  0.00  0.00    +0.000 A 
ATOM     14  C   UNL     1       1.118   9.748  19.866  0.00  0.00    +0.000 A 
ATOM     15  N   UNL     1       1.288  11.036  19.507  0.00  0.00    +0.000 NA
ATOM     16  C   UNL     1       0.825  11.902  20.421  0.00  0.00    +0.000 A 
ATOM     17 CL   UNL     1       0.975  13.558  20.035  0.00  0.00    +0.000 Cl
ATOM     18  N   UNL     1       0.250  11.622  21.603  0.00  0.00    +0.000 NA
ENDBRANCH   7  14
ENDBRANCH   1   9
BRANCH   3  19
ATOM     19  C   UNL     1       5.312   5.883  16.023  0.00  0.00    +0.000 C 
ATOM     20  F   UNL     1       6.501   6.227  16.590  0.00  0.00    +0.000 F 
ATOM     21  F   UNL     1       5.572   4.791  15.251  0.00  0.00    +0.000 F 
ATOM     22  F   UNL     1       5.005   6.889  15.158  0.00  0.00    +0.000 F 
ENDBRANCH   3  19
BRANCH   5  23
ATOM     23  C   UNL     1       2.136   2.700  18.345  0.00  0.00    +0.000 C 
ATOM     24  F   UNL     1       2.423   1.859  17.312  0.00  0.00    +0.000 F 
ATOM     25  F   UNL     1       2.619   2.097  19.463  0.00  0.00    +0.000 F 
ATOM     26  F   UNL     1       0.779   2.690  18.467  0.00  0.00    +0.000 F 
ENDBRANCH   5  23
TORSDOF 4
ENDMDL
MODEL 2
REMARK VINA RESULT:      -8.3      0.104      3.523
REMARK  Name = 
REMARK  5 active torsions:
REMARK  status: ('A' for Active; 'I' for Inactive)
REMARK    1  A    between atoms: C_1  and  C_2
REMARK    2  A    between atoms: C_4  and  C_5
REMARK    3  A    between atoms: N_7  and  C_8
REMARK    4  A    between atoms: C_10  and  C_11
REMARK    5  A    between atoms: C_16  and  C_17
REMARK                            x       y       z     vdW  Elec       q    Type
REMARK                         _______ _______ _______ _____ _____    ______ ____
ROOT
ATOM      1  C   UNL     1       2.648   6.484  18.732  0.00  0.00    +0.000 A 
ATOM      2  C   UNL     1       2.215   5.162  18.898  0.00  0.00    +0.000 A 
ATOM      3  C   UNL     1       2.771   4.101  18.171  0.00  0.00    +0.000 A 
ATOM      4  C   UNL     1       3.788   4.379  17.253  0.00  0.00    +0.000 A 
ATOM      5  C   UNL     1       4.231   5.697  17.046  0.00  0.00    +0.000 A 
ATOM      6  C   UNL     1       3.640   6.747  17.782  0.00  0.00    +0.000 A 
ENDROOT
BRANCH   1   9
ATOM      7  C   UNL     1       1.570   8.710  18.937  0.00  0.00    +0.000 C 
ATOM      8  O   UNL     1       1.404   8.921  17.736  0.00  0.00    +0.000 OA
ATOM      9  N   UNL     1       2.104   7.551  19.487  0.00  0.00    +0.000 N 
ATOM     10  H   UNL     1       2.019   7.449  20.495  0.00  0.00    +0.000 HD
BRANCH   7  14
ATOM     11  C   UNL     1      -0.524   9.977  23.238  0.00  0.00    +0.000 C 
ATOM     12  C   UNL     1       0.116  10.335  21.930  0.00  0.00    +0.000 A 
ATOM     13  C   UNL     1       0.534   9.349  21.069  0.00  0.00    +0.000 A 
ATOM     14  C   UNL     1       1.127   9.767  19.889  0.00  0.00    +0.000 A 
ATOM     15  N   UNL     1       1.313  11.055  19.540  0.00  0.00    +0.000 NA
ATOM     16  C   UNL     1       0.854  11.920  20.456  0.00  0.00    +0.000 A 
ATOM     17 CL   UNL     1       1.025  13.577  20.083  0.00  0.00    +0.000 Cl
ATOM     18  N   UNL     1       0.268  11.638  21.633  0.00  0.00    +0.000 NA
ENDBRANCH   7  14
ENDBRANCH   1   9
BRANCH   3  19
ATOM     19  C   UNL     1       2.271   2.691  18.375  0.00  0.00    +0.000 C 
ATOM     20  F   UNL     1       2.506   1.863  17.321  0.00  0.00    +0.000 F 
ATOM     21  F   UNL     1       2.852   2.093  19.452  0.00  0.00    +0.000 F 
ATOM     22  F   UNL     1       0.929   2.643  18.598  0.00  0.00    +0.000 F 
ENDBRANCH   3  19
BRANCH   5  23
ATOM     23  C   UNL     1       5.337   5.984  16.057  0.00  0.00    +0.000 C 
ATOM     24  F   UNL     1       5.710   4.893  15.329  0.00  0.00    +0.000 F 
ATOM     25  F   UNL     1       4.989   6.936  15.150  0.00  0.00    +0.000 F 
ATOM     26  F   UNL     1       6.471   6.434  16.661  0.00  0.00    +0.000 F 
ENDBRANCH   5  23
TORSDOF 4
ENDMDL
MODEL 3
REMARK VINA RESULT:      -8.3      1.609      3.727
REMARK  Name = 
REMARK  5 active torsions:
REMARK  status: ('A' for Active; 'I' for Inactive)
REMARK    1  A    between atoms: C_1  and  C_2
REMARK    2  A    between atoms: C_4  and  C_5
REMARK    3  A    between atoms: N_7  and  C_8
REMARK    4  A    between atoms: C_10  and  C_11
REMARK    5  A    between atoms: C_16  and  C_17
REMARK                            x       y       z     vdW  Elec       q    Type
REMARK                         _______ _______ _______ _____ _____    ______ ____
ROOT
ATOM      1  C   UNL     1       3.350   5.751  19.404  0.00  0.00    +0.000 A 
ATOM      2  C   UNL     1       2.832   4.476  19.145  0.00  0.00    +0.000 A 
ATOM      3  C   UNL     1       3.632   3.432  18.663  0.00  0.00    +0.000 A 
ATOM      4  C   UNL     1       4.990   3.680  18.435  0.00  0.00    +0.000 A 
ATOM      5  C   UNL     1       5.537   4.954  18.664  0.00  0.00    +0.000 A 
ATOM      6  C   UNL     1       4.701   5.990  19.134  0.00  0.00    +0.000 A 
ENDROOT
BRANCH   1   9
ATOM      7  C   UNL     1       2.057   7.855  19.161  0.00  0.00    +0.000 C 
ATOM      8  O   UNL     1       2.167   7.974  17.942  0.00  0.00    +0.000 OA
ATOM      9  N   UNL     1       2.545   6.797  19.917  0.00  0.00    +0.000 N 
ATOM     10  H   UNL     1       2.229   6.747  20.883  0.00  0.00    +0.000 HD
BRANCH   7  14
ATOM     11  C   UNL     1      -0.062   9.493  23.323  0.00  0.00    +0.000 C 
ATOM     12  C   UNL     1       0.295   9.656  21.876  0.00  0.00    +0.000 A 
ATOM     13  C   UNL     1       1.004   8.678  21.221  0.00  0.00    +0.000 A 
ATOM     14  C   UNL     1       1.303   8.914  19.889  0.00  0.00    +0.000 A 
ATOM     15  N   UNL     1       0.946  10.021  19.210  0.00  0.00    +0.000 NA
ATOM     16  C   UNL     1       0.250  10.894  19.954  0.00  0.00    +0.000 A 
ATOM     17 CL   UNL     1      -0.267  12.316  19.164  0.00  0.00    +0.000 Cl
ATOM     18  N   UNL     1      -0.096  10.780  21.248  0.00  0.00    +0.000 NA
ENDBRANCH   7  14
ENDBRANCH   1   9
BRANCH   3  19
ATOM     19  C   UNL     1       3.033   2.074  18.390  0.00  0.00    +0.000 C 
ATOM     20  F   UNL     1       3.948   1.068  18.328  0.00  0.00    +0.000 F 
ATOM     21  F   UNL     1       2.142   1.705  19.352  0.00  0.00    +0.000 F 
ATOM     22  F   UNL     1       2.352   2.034  17.213  0.00  0.00    +0.000 F 
ENDBRANCH   3  19
BRANCH   5  23
ATOM     23  C   UNL     1       7.007   5.207  18.422  0.00  0.00    +0.000 C 
ATOM     24  F   UNL     1       7.713   5.440  19.564  0.00  0.00    +0.000 F 
ATOM     25  F   UNL     1       7.621   4.159  17.811  0.00  0.00    +0.000 F 
ATOM     26  F   UNL     1       7.224   6.289  17.623  0.00  0.00    +0.000 F 
ENDBRANCH   5  23
TORSDOF 4
ENDMDL
MODEL 4
REMARK VINA RESULT:      -8.3      1.946      2.520
REMARK  Name = 
REMARK  5 active torsions:
REMARK  status: ('A' for Active; 'I' for Inactive)
REMARK    1  A    between atoms: C_1  and  C_2
REMARK    2  A    between atoms: C_4  and  C_5
REMARK    3  A    between atoms: N_7  and  C_8
REMARK    4  A    between atoms: C_10  and  C_11
REMARK    5  A    between atoms: C_16  and  C_17
REMARK                            x       y       z     vdW  Elec       q    Type
REMARK                         _______ _______ _______ _____ _____    ______ ____
ROOT
ATOM      1  C   UNL     1       3.411   5.705  19.420  0.00  0.00    +0.000 A 
ATOM      2  C   UNL     1       4.762   5.922  19.120  0.00  0.00    +0.000 A 
ATOM      3  C   UNL     1       5.572   4.918  18.574  0.00  0.00    +0.000 A 
ATOM      4  C   UNL     1       5.007   3.663  18.325  0.00  0.00    +0.000 A 
ATOM      5  C   UNL     1       3.661   3.406  18.634  0.00  0.00    +0.000 A 
ATOM      6  C   UNL     1       2.874   4.433  19.199  0.00  0.00    +0.000 A 
ENDROOT
BRANCH   1   9
ATOM      7  C   UNL     1       2.077   7.787  19.203  0.00  0.00    +0.000 C 
ATOM      8  O   UNL     1       2.184   7.923  17.985  0.00  0.00    +0.000 OA
ATOM      9  N   UNL     1       2.587   6.729  19.946  0.00  0.00    +0.000 N 
ATOM     10  H   UNL     1       2.272   6.662  20.910  0.00  0.00    +0.000 HD
BRANCH   7  14
ATOM     11  C   UNL     1      -0.303  12.126  19.243  0.00  0.00    +0.000 C 
ATOM     12  C   UNL     1       0.193  10.890  19.933  0.00  0.00    +0.000 A 
ATOM     13  C   UNL     1       0.893   9.937  19.233  0.00  0.00    +0.000 A 
ATOM     14  C   UNL     1       1.303   8.822  19.944  0.00  0.00    +0.000 A 
ATOM     15  N   UNL     1       1.065   8.619  21.255  0.00  0.00    +0.000 NA
ATOM     16  C   UNL     1       0.385   9.624  21.827  0.00  0.00    +0.000 A 
ATOM     17 CL   UNL     1       0.062   9.463  23.496  0.00  0.00    +0.000 Cl
ATOM     18  N   UNL     1      -0.068  10.747  21.245  0.00  0.00    +0.000 NA
ENDBRANCH   7  14
ENDBRANCH   1   9
BRANCH   3  19
ATOM     19  C   UNL     1       7.026   5.190  18.271  0.00  0.00    +0.000 C 
ATOM     20  F   UNL     1       7.695   4.120  17.761  0.00  0.00    +0.000 F 
ATOM     21  F   UNL     1       7.180   6.192  17.362  0.00  0.00    +0.000 F 
ATOM     22  F   UNL     1       7.723   5.576  19.375  0.00  0.00    +0.000 F 
ENDBRANCH   3  19
BRANCH   5  23
ATOM     23  C   UNL     1       3.059   2.048  18.352  0.00  0.00    +0.000 C 
ATOM     24  F   UNL     1       3.978   1.041  18.333  0.00  0.00    +0.000 F 
ATOM     25  F   UNL     1       2.132   1.688  19.279  0.00  0.00    +0.000 F 
ATOM     26  F   UNL     1       2.428   1.999  17.147  0.00  0.00    +0.000 F 
ENDBRANCH   5  23
TORSDOF 4
ENDMDL
MODEL 5
REMARK VINA RESULT:      -8.3      1.908      2.491
REMARK  Name = 
REMARK  5 active torsions:
REMARK  status: ('A' for Active; 'I' for Inactive)
REMARK    1  A    between atoms: C_1  and  C_2
REMARK    2  A    between atoms: C_4  and  C_5
REMARK    3  A    between atoms: N_7  and  C_8
REMARK    4  A    between atoms: C_10  and  C_11
REMARK    5  A    between atoms: C_16  and  C_17
REMARK                            x       y       z     vdW  Elec       q    Type
REMARK                         _______ _______ _______ _____ _____    ______ ____
ROOT
ATOM      1  C   UNL     1       3.427   5.693  19.368  0.00  0.00    +0.000 A 
ATOM      2  C   UNL     1       4.767   5.896  19.015  0.00  0.00    +0.000 A 
ATOM      3  C   UNL     1       5.552   4.876  18.462  0.00  0.00    +0.000 A 
ATOM      4  C   UNL     1       4.973   3.619  18.261  0.00  0.00    +0.000 A 
ATOM      5  C   UNL     1       3.637   3.376  18.624  0.00  0.00    +0.000 A 
ATOM      6  C   UNL     1       2.876   4.419  19.194  0.00  0.00    +0.000 A 
ENDROOT
BRANCH   1   9
ATOM      7  C   UNL     1       2.106   7.783  19.156  0.00  0.00    +0.000 C 
ATOM      8  O   UNL     1       2.181   7.900  17.934  0.00  0.00    +0.000 OA
ATOM      9  N   UNL     1       2.627   6.732  19.901  0.00  0.00    +0.000 N 
ATOM     10  H   UNL     1       2.339   6.683  20.875  0.00  0.00    +0.000 HD
BRANCH   7  14
ATOM     11  C   UNL     1      -0.057  12.234  19.245  0.00  0.00    +0.000 C 
ATOM     12  C   UNL     1       0.357  10.958  19.916  0.00  0.00    +0.000 A 
ATOM     13  C   UNL     1       1.029   9.989  19.210  0.00  0.00    +0.000 A 
ATOM     14  C   UNL     1       1.363   8.837  19.903  0.00  0.00    +0.000 A 
ATOM     15  N   UNL     1       1.076   8.614  21.201  0.00  0.00    +0.000 NA
ATOM     16  C   UNL     1       0.430   9.636  21.780  0.00  0.00    +0.000 A 
ATOM     17 CL   UNL     1       0.051   9.449  23.434  0.00  0.00    +0.000 Cl
ATOM     18  N   UNL     1       0.051  10.795  21.216  0.00  0.00    +0.000 NA
ENDBRANCH   7  14
ENDBRANCH   1   9
BRANCH   3  19
ATOM     19  C   UNL     1       6.995   5.134  18.101  0.00  0.00    +0.000 C 
ATOM     20  F   UNL     1       7.813   5.306  19.176  0.00  0.00    +0.000 F 
ATOM     21  F   UNL     1       7.535   4.108  17.385  0.00  0.00    +0.000 F 
ATOM     22  F   UNL     1       7.148   6.247  17.332  0.00  0.00    +0.000 F 
ENDBRANCH   3  19
BRANCH   5  23
ATOM     23  C   UNL     1       3.020   2.016  18.394  0.00  0.00    +0.000 C 
ATOM     24  F   UNL     1       2.088   1.678  19.329  0.00  0.00    +0.000 F 
ATOM     25  F   UNL     1       2.391   1.927  17.192  0.00  0.00    +0.000 F 
ATOM     26  F   UNL     1       3.944   1.015  18.411  0.00  0.00    +0.000 F 
ENDBRANCH   5  23
TORSDOF 4
ENDMDL
MODEL 6
REMARK VINA RESULT:      -8.3      0.268      3.504
REMARK  Name = 
REMARK  5 active torsions:
REMARK  status: ('A' for Active; 'I' for Inactive)
REMARK    1  A    between atoms: C_1  and  C_2
REMARK    2  A    between atoms: C_4  and  C_5
REMARK    3  A    between atoms: N_7  and  C_8
REMARK    4  A    between atoms: C_10  and  C_11
REMARK    5  A    between atoms: C_16  and  C_17
REMARK                            x       y       z     vdW  Elec       q    Type
REMARK                         _______ _______ _______ _____ _____    ______ ____
ROOT
ATOM      1  C   UNL     1       2.593   6.680  18.757  0.00  0.00    +0.000 A 
ATOM      2  C   UNL     1       2.132   5.365  18.902  0.00  0.00    +0.000 A 
ATOM      3  C   UNL     1       2.681   4.300  18.175  0.00  0.00    +0.000 A 
ATOM      4  C   UNL     1       3.721   4.567  17.278  0.00  0.00    +0.000 A 
ATOM      5  C   UNL     1       4.193   5.878  17.093  0.00  0.00    +0.000 A 
ATOM      6  C   UNL     1       3.608   6.932  17.828  0.00  0.00    +0.000 A 
ENDROOT
BRANCH   1   9
ATOM      7  C   UNL     1       1.464   8.879  18.961  0.00  0.00    +0.000 C 
ATOM      8  O   UNL     1       1.234   9.056  17.766  0.00  0.00    +0.000 OA
ATOM      9  N   UNL     1       2.057   7.750  19.512  0.00  0.00    +0.000 N 
ATOM     10  H   UNL     1       2.023   7.670  20.525  0.00  0.00    +0.000 HD
BRANCH   7  14
ATOM     11  C   UNL     1      -0.756  10.208  23.180  0.00  0.00    +0.000 C 
ATOM     12  C   UNL     1      -0.035  10.546  21.909  0.00  0.00    +0.000 A 
ATOM     13  C   UNL     1       0.366   9.549  21.053  0.00  0.00    +0.000 A 
ATOM     14  C   UNL     1       1.037   9.947  19.908  0.00  0.00    +0.000 A 
ATOM     15  N   UNL     1       1.312  11.227  19.589  0.00  0.00    +0.000 NA
ATOM     16  C   UNL     1       0.860  12.105  20.497  0.00  0.00    +0.000 A 
ATOM     17 CL   UNL     1       1.143  13.754  20.159  0.00  0.00    +0.000 Cl
ATOM     18  N   UNL     1       0.205  11.842  21.640  0.00  0.00    +0.000 NA
ENDBRANCH   7  14
ENDBRANCH   1   9
BRANCH   3  19
ATOM     19  C   UNL     1       2.150   2.899  18.355  0.00  0.00    +0.000 C 
ATOM     20  F   UNL     1       2.570   2.290  19.498  0.00  0.00    +0.000 F 
ATOM     21  F   UNL     1       0.789   2.869  18.398  0.00  0.00    +0.000 F 
ATOM     22  F   UNL     1       2.511   2.071  17.336  0.00  0.00    +0.000 F 
ENDBRANCH   3  19
BRANCH   5  23
ATOM     23  C   UNL     1       5.323   6.152  16.128  0.00  0.00    +0.000 C 
ATOM     24  F   UNL     1       6.398   6.757  16.708  0.00  0.00    +0.000 F 
ATOM     25  F   UNL     1       5.800   5.017  15.551  0.00  0.00    +0.000 F 
ATOM     26  F   UNL     1       4.945   6.966  15.103  0.00  0.00    +0.000 F 
ENDBRANCH   5  23
TORSDOF 4
ENDMDL
MODEL 7
REMARK VINA RESULT:      -8.3      1.496      1.815
REMARK  Name = 
REMARK  5 active torsions:
REMARK  status: ('A' for Active; 'I' for Inactive)
REMARK    1  A    between atoms: C_1  and  C_2
REMARK    2  A    between atoms: C_4  and  C_5
REMARK    3  A    between atoms: N_7  and  C_8
REMARK    4  A    between atoms: C_10  and  C_11
REMARK    5  A    between atoms: C_16  and  C_17
REMARK                            x       y       z     vdW  Elec       q    Type
REMARK                         _______ _______ _______ _____ _____    ______ ____
ROOT
ATOM      1  C   UNL     1       3.386   5.793  19.330  0.00  0.00    +0.000 A 
ATOM      2  C   UNL     1       4.732   6.000  19.001  0.00  0.00    +0.000 A 
ATOM      3  C   UNL     1       5.529   4.984  18.456  0.00  0.00    +0.000 A 
ATOM      4  C   UNL     1       4.955   3.728  18.238  0.00  0.00    +0.000 A 
ATOM      5  C   UNL     1       3.614   3.480  18.577  0.00  0.00    +0.000 A 
ATOM      6  C   UNL     1       2.841   4.520  19.139  0.00  0.00    +0.000 A 
ENDROOT
BRANCH   1   9
ATOM      7  C   UNL     1       2.048   7.870  19.103  0.00  0.00    +0.000 C 
ATOM      8  O   UNL     1       2.125   7.981  17.880  0.00  0.00    +0.000 OA
ATOM      9  N   UNL     1       2.576   6.828  19.855  0.00  0.00    +0.000 N 
ATOM     10  H   UNL     1       2.286   6.781  20.828  0.00  0.00    +0.000 HD
BRANCH   7  14
ATOM     11  C   UNL     1      -0.043   9.479  23.290  0.00  0.00    +0.000 C 
ATOM     12  C   UNL     1       0.299   9.650  21.839  0.00  0.00    +0.000 A 
ATOM     13  C   UNL     1       1.009   8.679  21.175  0.00  0.00    +0.000 A 
ATOM     14  C   UNL     1       1.293   8.921  19.841  0.00  0.00    +0.000 A 
ATOM     15  N   UNL     1       0.922  10.028  19.169  0.00  0.00    +0.000 NA
ATOM     16  C   UNL     1       0.226  10.893  19.922  0.00  0.00    +0.000 A 
ATOM     17 CL   UNL     1      -0.308  12.314  19.142  0.00  0.00    +0.000 Cl
ATOM     18  N   UNL     1      -0.106  10.772  21.219  0.00  0.00    +0.000 NA
ENDBRANCH   7  14
ENDBRANCH   1   9
BRANCH   3  19
ATOM     19  C   UNL     1       6.977   5.246  18.121  0.00  0.00    +0.000 C 
ATOM     20  F   UNL     1       7.689   4.124  17.826  0.00  0.00    +0.000 F 
ATOM     21  F   UNL     1       7.113   6.066  17.042  0.00  0.00    +0.000 F 
ATOM     22  F   UNL     1       7.644   5.855  19.140  0.00  0.00    +0.000 F 
ENDBRANCH   3  19
BRANCH   5  23
ATOM     23  C   UNL     1       3.003   2.121  18.328  0.00  0.00    +0.000 C 
ATOM     24  F   UNL     1       2.264   2.058  17.184  0.00  0.00    +0.000 F 
ATOM     25  F   UNL     1       3.940   1.142  18.220  0.00  0.00    +0.000 F 
ATOM     26  F   UNL     1       2.167   1.735  19.332  0.00  0.00    +0.000 F 
ENDBRANCH   5  23
TORSDOF 4
ENDMDL
MODEL 8
REMARK VINA RESULT:      -8.3      0.348      1.060
REMARK  Name = 
REMARK  5 active torsions:
REMARK  status: ('A' for Active; 'I' for Inactive)
REMARK    1  A    between atoms: C_1  and  C_2
REMARK    2  A    between atoms: C_4  and  C_5
REMARK    3  A    between atoms: N_7  and  C_8
REMARK    4  A    between atoms: C_10  and  C_11
REMARK    5  A    between atoms: C_16  and  C_17
REMARK                            x       y       z     vdW  Elec       q    Type
REMARK                         _______ _______ _______ _____ _____    ______ ____
ROOT
ATOM      1  C   UNL     1       2.795   6.313  18.698  0.00  0.00    +0.000 A 
ATOM      2  C   UNL     1       3.737   6.561  17.692  0.00  0.00    +0.000 A 
ATOM      3  C   UNL     1       4.291   5.530  16.922  0.00  0.00    +0.000 A 
ATOM      4  C   UNL     1       3.887   4.214  17.174  0.00  0.00    +0.000 A 
ATOM      5  C   UNL     1       2.959   3.929  18.190  0.00  0.00    +0.000 A 
ATOM      6  C   UNL     1       2.431   4.988  18.960  0.00  0.00    +0.000 A 
ENDROOT
BRANCH   1   9
ATOM      7  C   UNL     1       1.689   8.524  18.913  0.00  0.00    +0.000 C 
ATOM      8  O   UNL     1       1.563   8.760  17.713  0.00  0.00    +0.000 OA
ATOM      9  N   UNL     1       2.215   7.358  19.456  0.00  0.00    +0.000 N 
ATOM     10  H   UNL     1       2.097   7.233  20.459  0.00  0.00    +0.000 HD
BRANCH   7  14
ATOM     11  C   UNL     1      -0.210   9.692  23.332  0.00  0.00    +0.000 C 
ATOM     12  C   UNL     1       0.290  10.076  21.971  0.00  0.00    +0.000 A 
ATOM     13  C   UNL     1       0.749   9.114  21.103  0.00  0.00    +0.000 A 
ATOM     14  C   UNL     1       1.204   9.556  19.872  0.00  0.00    +0.000 A 
ATOM     15  N   UNL     1       1.221  10.845  19.480  0.00  0.00    +0.000 NA
ATOM     16  C   UNL     1       0.738  11.684  20.408  0.00  0.00    +0.000 A 
ATOM     17 CL   UNL     1       0.699  13.338  19.985  0.00  0.00    +0.000 Cl
ATOM     18  N   UNL     1       0.275  11.378  21.633  0.00  0.00    +0.000 NA
ENDBRANCH   7  14
ENDBRANCH   1   9
BRANCH   3  19
ATOM     19  C   UNL     1       5.310   5.839  15.851  0.00  0.00    +0.000 C 
ATOM     20  F   UNL     1       5.468   4.845  14.935  0.00  0.00    +0.000 F 
ATOM     21  F   UNL     1       4.981   6.952  15.139  0.00  0.00    +0.000 F 
ATOM     22  F   UNL     1       6.548   6.075  16.365  0.00  0.00    +0.000 F 
ENDBRANCH   3  19
BRANCH   5  23
ATOM     23  C   UNL     1       2.524   2.505  18.447  0.00  0.00    +0.000 C 
ATOM     24  F   UNL     1       3.388   1.806  19.236  0.00  0.00    +0.000 F 
ATOM     25  F   UNL     1       1.315   2.435  19.066  0.00  0.00    +0.000 F 
ATOM     26  F   UNL     1       2.402   1.783  17.298  0.00  0.00    +0.000 F 
ENDBRANCH   5  23
TORSDOF 4
ENDMDL
MODEL 9
REMARK VINA RESULT:      -8.3      1.952      2.506
REMARK  Name = 
REMARK  5 active torsions:
REMARK  status: ('A' for Active; 'I' for Inactive)
REMARK    1  A    between atoms: C_1  and  C_2
REMARK    2  A    between atoms: C_4  and  C_5
REMARK    3  A    between atoms: N_7  and  C_8
REMARK    4  A    between atoms: C_10  and  C_11
REMARK    5  A    between atoms: C_16  and  C_17
REMARK                            x       y       z     vdW  Elec       q    Type
REMARK                         _______ _______ _______ _____ _____    ______ ____
ROOT
ATOM      1  C   UNL     1       3.384   5.701  19.427  0.00  0.00    +0.000 A 
ATOM      2  C   UNL     1       4.734   5.914  19.118  0.00  0.00    +0.000 A 
ATOM      3  C   UNL     1       5.540   4.904  18.576  0.00  0.00    +0.000 A 
ATOM      4  C   UNL     1       4.973   3.648  18.341  0.00  0.00    +0.000 A 
ATOM      5  C   UNL     1       3.628   3.394  18.659  0.00  0.00    +0.000 A 
ATOM      6  C   UNL     1       2.845   4.427  19.220  0.00  0.00    +0.000 A 
ENDROOT
BRANCH   1   9
ATOM      7  C   UNL     1       2.081   7.801  19.207  0.00  0.00    +0.000 C 
ATOM      8  O   UNL     1       2.212   7.947  17.993  0.00  0.00    +0.000 OA
ATOM      9  N   UNL     1       2.564   6.730  19.948  0.00  0.00    +0.000 N 
ATOM     10  H   UNL     1       2.232   6.657  20.907  0.00  0.00    +0.000 HD
BRANCH   7  14
ATOM     11  C   UNL     1      -0.253  12.165  19.246  0.00  0.00    +0.000 C 
ATOM     12  C   UNL     1       0.220  10.919  19.934  0.00  0.00    +0.000 A 
ATOM     13  C   UNL     1       0.919   9.964  19.236  0.00  0.00    +0.000 A 
ATOM     14  C   UNL     1       1.307   8.839  19.945  0.00  0.00    +0.000 A 
ATOM     15  N   UNL     1       1.048   8.629  21.250  0.00  0.00    +0.000 NA
ATOM     16  C   UNL     1       0.370   9.636  21.821  0.00  0.00    +0.000 A 
ATOM     17 CL   UNL     1       0.021   9.466  23.483  0.00  0.00    +0.000 Cl
ATOM     18  N   UNL     1      -0.062  10.769  21.241  0.00  0.00    +0.000 NA
ENDBRANCH   7  14
ENDBRANCH   1   9
BRANCH   3  19
ATOM     19  C   UNL     1       6.993   5.172  18.264  0.00  0.00    +0.000 C 
ATOM     20  F   UNL     1       7.200   6.283  17.504  0.00  0.00    +0.000 F 
ATOM     21  F   UNL     1       7.735   5.351  19.392  0.00  0.00    +0.000 F 
ATOM     22  F   UNL     1       7.578   4.144  17.590  0.00  0.00    +0.000 F 
ENDBRANCH   3  19
BRANCH   5  23
ATOM     23  C   UNL     1       3.024   2.035  18.393  0.00  0.00    +0.000 C 
ATOM     24  F   UNL     1       2.368   1.957  17.200  0.00  0.00    +0.000 F 
ATOM     25  F   UNL     1       3.958   1.047  18.369  0.00  0.00    +0.000 F 
ATOM     26  F   UNL     1       2.115   1.674  19.341  0.00  0.00    +0.000 F 
ENDBRANCH   5  23
TORSDOF 4
ENDMDL
