MODEL 1
REMARK VINA RESULT:      -6.5      0.000      0.000
REMARK  Name = 
REMARK  5 active torsions:
REMARK  status: ('A' for Active; 'I' for Inactive)
REMARK    1  A    between atoms: C_1  and  C_2
REMARK    2  A    between atoms: C_4  and  C_5
REMARK    3  A    between atoms: C_5  and  N_6
REMARK    4  A    between atoms: C_10  and  C_11
REMARK    5  A    between atoms: N_15  and  C_16
REMARK                            x       y       z     vdW  Elec       q    Type
REMARK                         _______ _______ _______ _____ _____    ______ ____
ROOT
ATOM      1  N   UNL     1       3.149   5.059  18.060  0.00  0.00    +0.000 NA
ATOM      2  C   UNL     1       1.851   4.446  17.766  0.00  0.00    +0.000 C 
ATOM      3  C   UNL     1       1.978   2.971  18.073  0.00  0.00    +0.000 C 
ATOM      4  C   UNL     1       3.443   2.668  17.852  0.00  0.00    +0.000 C 
ATOM      5  C   UNL     1       4.171   3.997  18.078  0.00  0.00    +0.000 C 
ENDROOT
BRANCH   5   6
ATOM      6  C   UNL     1       5.186   4.246  16.996  0.00  0.00    +0.000 A 
ATOM      7  C   UNL     1       5.107   3.984  15.637  0.00  0.00    +0.000 A 
ATOM      8  C   UNL     1       6.322   4.372  15.034  0.00  0.00    +0.000 A 
ATOM      9  C   UNL     1       7.126   4.867  16.035  0.00  0.00    +0.000 A 
ATOM     10  N   UNL     1       6.437   4.787  17.218  0.00  0.00    +0.000 N 
ATOM     11  C   UNL     1       6.977   5.199  18.495  0.00  0.00    +0.000 C 
ENDBRANCH   5   6
BRANCH   1  12
ATOM     12  C   UNL     1       3.176   5.859  19.291  0.00  0.00    +0.000 C 
BRANCH  12  16
ATOM     13  C   UNL     1       0.374   9.777  20.420  0.00  0.00    +0.000 C 
ATOM     14  C   UNL     1       1.312   8.938  19.628  0.00  0.00    +0.000 A 
ATOM     15  N   UNL     1       1.832   7.808  20.054  0.00  0.00    +0.000 NA
ATOM     16  C   UNL     1       2.587   7.220  19.046  0.00  0.00    +0.000 A 
ATOM     17  C   UNL     1       2.663   7.959  17.879  0.00  0.00    +0.000 A 
ATOM     18  S   UNL     1       1.754   9.401  18.034  0.00  0.00    +0.000 S 
ENDBRANCH  12  16
ENDBRANCH   1  12
TORSDOF 3
ENDMDL
MODEL 2
REMARK VINA RESULT:      -6.3      1.224      1.479
REMARK  Name = 
REMARK  5 active torsions:
REMARK  status: ('A' for Active; 'I' for Inactive)
REMARK    1  A    between atoms: C_1  and  C_2
REMARK    2  A    between atoms: C_4  and  C_5
REMARK    3  A    between atoms: C_5  and  N_6
REMARK    4  A    between atoms: C_10  and  C_11
REMARK    5  A    between atoms: N_15  and  C_16
REMARK                            x       y       z     vdW  Elec       q    Type
REMARK                         _______ _______ _______ _____ _____    ______ ____
ROOT
ATOM      1  N   UNL     1       2.749   4.512  18.702  0.00  0.00    +0.000 NA
ATOM      2  C   UNL     1       1.540   3.765  18.343  0.00  0.00    +0.000 C 
ATOM      3  C   UNL     1       1.875   2.296  18.469  0.00  0.00    +0.000 C 
ATOM      4  C   UNL     1       3.362   2.226  18.205  0.00  0.00    +0.000 C 
ATOM      5  C   UNL     1       3.907   3.607  18.586  0.00  0.00    +0.000 C 
ENDROOT
BRANCH   5   6
ATOM      6  C   UNL     1       4.854   4.121  17.537  0.00  0.00    +0.000 A 
ATOM      7  C   UNL     1       4.834   3.932  16.164  0.00  0.00    +0.000 A 
ATOM      8  C   UNL     1       5.948   4.592  15.604  0.00  0.00    +0.000 A 
ATOM      9  C   UNL     1       6.632   5.177  16.645  0.00  0.00    +0.000 A 
ATOM     10  N   UNL     1       5.969   4.889  17.811  0.00  0.00    +0.000 N 
ATOM     11  C   UNL     1       6.410   5.323  19.118  0.00  0.00    +0.000 C 
ENDBRANCH   5   6
BRANCH   1  12
ATOM     12  C   UNL     1       2.694   5.156  20.021  0.00  0.00    +0.000 C 
BRANCH  12  16
ATOM     13  C   UNL     1       2.043   9.509  17.762  0.00  0.00    +0.000 C 
ATOM     14  C   UNL     1       1.908   8.474  18.821  0.00  0.00    +0.000 A 
ATOM     15  N   UNL     1       2.346   7.239  18.707  0.00  0.00    +0.000 NA
ATOM     16  C   UNL     1       2.155   6.554  19.901  0.00  0.00    +0.000 A 
ATOM     17  C   UNL     1       1.520   7.285  20.889  0.00  0.00    +0.000 A 
ATOM     18  S   UNL     1       1.178   8.865  20.326  0.00  0.00    +0.000 S 
ENDBRANCH  12  16
ENDBRANCH   1  12
TORSDOF 3
ENDMDL
MODEL 3
REMARK VINA RESULT:      -6.3      2.225      5.125
REMARK  Name = 
REMARK  5 active torsions:
REMARK  status: ('A' for Active; 'I' for Inactive)
REMARK    1  A    between atoms: C_1  and  C_2
REMARK    2  A    between atoms: C_4  and  C_5
REMARK    3  A    between atoms: C_5  and  N_6
REMARK    4  A    between atoms: C_10  and  C_11
REMARK    5  A    between atoms: N_15  and  C_16
REMARK                            x       y       z     vdW  Elec       q    Type
REMARK                         _______ _______ _______ _____ _____    ______ ____
ROOT
ATOM      1  N   UNL     1       3.867   4.070  18.195  0.00  0.00    +0.000 NA
ATOM      2  C   UNL     1       3.663   2.626  18.344  0.00  0.00    +0.000 C 
ATOM      3  C   UNL     1       2.329   2.300  17.714  0.00  0.00    +0.000 C 
ATOM      4  C   UNL     1       1.524   3.571  17.861  0.00  0.00    +0.000 C 
ATOM      5  C   UNL     1       2.558   4.699  17.939  0.00  0.00    +0.000 C 
ENDROOT
BRANCH   5   6
ATOM      6  C   UNL     1       2.226   5.659  19.048  0.00  0.00    +0.000 A 
ATOM      7  C   UNL     1       1.691   5.405  20.301  0.00  0.00    +0.000 A 
ATOM      8  C   UNL     1       1.538   6.631  20.981  0.00  0.00    +0.000 A 
ATOM      9  C   UNL     1       1.984   7.618  20.132  0.00  0.00    +0.000 A 
ATOM     10  N   UNL     1       2.397   7.027  18.965  0.00  0.00    +0.000 N 
ATOM     11  C   UNL     1       2.912   7.758  17.828  0.00  0.00    +0.000 C 
ENDBRANCH   5   6
BRANCH   1  12
ATOM     12  C   UNL     1       4.855   4.440  17.174  0.00  0.00    +0.000 C 
BRANCH  12  16
ATOM     13  C   UNL     1       7.886   8.337  17.504  0.00  0.00    +0.000 C 
ATOM     14  C   UNL     1       7.283   7.027  17.868  0.00  0.00    +0.000 A 
ATOM     15  N   UNL     1       6.216   6.519  17.291  0.00  0.00    +0.000 NA
ATOM     16  C   UNL     1       5.967   5.245  17.787  0.00  0.00    +0.000 A 
ATOM     17  C   UNL     1       6.837   4.835  18.782  0.00  0.00    +0.000 A 
ATOM     18  S   UNL     1       8.003   6.051  19.085  0.00  0.00    +0.000 S 
ENDBRANCH  12  16
ENDBRANCH   1  12
TORSDOF 3
ENDMDL
MODEL 4
REMARK VINA RESULT:      -6.2      2.900      5.965
REMARK  Name = 
REMARK  5 active torsions:
REMARK  status: ('A' for Active; 'I' for Inactive)
REMARK    1  A    between atoms: C_1  and  C_2
REMARK    2  A    between atoms: C_4  and  C_5
REMARK    3  A    between atoms: C_5  and  N_6
REMARK    4  A    between atoms: C_10  and  C_11
REMARK    5  A    between atoms: N_15  and  C_16
REMARK                            x       y       z     vdW  Elec       q    Type
REMARK                         _______ _______ _______ _____ _____    ______ ____
ROOT
ATOM      1  N   UNL     1       4.448   5.205  17.261  0.00  0.00    +0.000 NA
ATOM      2  C   UNL     1       4.107   6.547  16.778  0.00  0.00    +0.000 C 
ATOM      3  C   UNL     1       3.836   7.399  17.997  0.00  0.00    +0.000 C 
ATOM      4  C   UNL     1       3.346   6.419  19.039  0.00  0.00    +0.000 C 
ATOM      5  C   UNL     1       3.954   5.070  18.643  0.00  0.00    +0.000 C 
ENDROOT
BRANCH   5   6
ATOM      6  C   UNL     1       2.925   3.974  18.713  0.00  0.00    +0.000 A 
ATOM      7  C   UNL     1       1.621   3.960  18.242  0.00  0.00    +0.000 A 
ATOM      8  C   UNL     1       1.042   2.715  18.565  0.00  0.00    +0.000 A 
ATOM      9  C   UNL     1       2.002   1.985  19.228  0.00  0.00    +0.000 A 
ATOM     10  N   UNL     1       3.137   2.751  19.317  0.00  0.00    +0.000 N 
ATOM     11  C   UNL     1       4.353   2.317  19.969  0.00  0.00    +0.000 C 
ENDBRANCH   5   6
BRANCH   1  12
ATOM     12  C   UNL     1       5.873   4.869  17.159  0.00  0.00    +0.000 C 
BRANCH  12  16
ATOM     13  C   UNL     1       8.292   5.693  12.922  0.00  0.00    +0.000 C 
ATOM     14  C   UNL     1       7.370   5.015  13.872  0.00  0.00    +0.000 A 
ATOM     15  N   UNL     1       7.256   5.329  15.143  0.00  0.00    +0.000 NA
ATOM     16  C   UNL     1       6.245   4.579  15.731  0.00  0.00    +0.000 A 
ATOM     17  C   UNL     1       5.643   3.663  14.888  0.00  0.00    +0.000 A 
ATOM     18  S   UNL     1       6.334   3.758  13.325  0.00  0.00    +0.000 S 
ENDBRANCH  12  16
ENDBRANCH   1  12
TORSDOF 3
ENDMDL
MODEL 5
REMARK VINA RESULT:      -6.1      2.430      5.502
REMARK  Name = 
REMARK  5 active torsions:
REMARK  status: ('A' for Active; 'I' for Inactive)
REMARK    1  A    between atoms: C_1  and  C_2
REMARK    2  A    between atoms: C_4  and  C_5
REMARK    3  A    between atoms: C_5  and  N_6
REMARK    4  A    between atoms: C_10  and  C_11
REMARK    5  A    between atoms: N_15  and  C_16
REMARK                            x       y       z     vdW  Elec       q    Type
REMARK                         _______ _______ _______ _____ _____    ______ ____
ROOT
ATOM      1  N   UNL     1       3.521   6.065  17.974  0.00  0.00    +0.000 NA
ATOM      2  C   UNL     1       2.770   7.312  17.811  0.00  0.00    +0.000 C 
ATOM      3  C   UNL     1       2.323   7.743  19.189  0.00  0.00    +0.000 C 
ATOM      4  C   UNL     1       2.204   6.451  19.965  0.00  0.00    +0.000 C 
ATOM      5  C   UNL     1       3.165   5.475  19.278  0.00  0.00    +0.000 C 
ENDROOT
BRANCH   5   6
ATOM      6  C   UNL     1       2.516   4.134  19.072  0.00  0.00    +0.000 A 
ATOM      7  C   UNL     1       1.228   3.834  18.657  0.00  0.00    +0.000 A 
ATOM      8  C   UNL     1       1.077   2.432  18.638  0.00  0.00    +0.000 A 
ATOM      9  C   UNL     1       2.279   1.895  19.043  0.00  0.00    +0.000 A 
ATOM     10  N   UNL     1       3.143   2.926  19.306  0.00  0.00    +0.000 N 
ATOM     11  C   UNL     1       4.499   2.743  19.774  0.00  0.00    +0.000 C 
ENDBRANCH   5   6
BRANCH   1  12
ATOM     12  C   UNL     1       4.974   6.208  17.822  0.00  0.00    +0.000 C 
BRANCH  12  16
ATOM     13  C   UNL     1       7.620   5.352  13.730  0.00  0.00    +0.000 C 
ATOM     14  C   UNL     1       6.687   5.063  14.852  0.00  0.00    +0.000 A 
ATOM     15  N   UNL     1       6.458   5.886  15.852  0.00  0.00    +0.000 NA
ATOM     16  C   UNL     1       5.469   5.367  16.679  0.00  0.00    +0.000 A 
ATOM     17  C   UNL     1       5.003   4.119  16.305  0.00  0.00    +0.000 A 
ATOM     18  S   UNL     1       5.796   3.595  14.881  0.00  0.00    +0.000 S 
ENDBRANCH  12  16
ENDBRANCH   1  12
TORSDOF 3
ENDMDL
MODEL 6
REMARK VINA RESULT:      -6.1      1.887      5.290
REMARK  Name = 
REMARK  5 active torsions:
REMARK  status: ('A' for Active; 'I' for Inactive)
REMARK    1  A    between atoms: C_1  and  C_2
REMARK    2  A    between atoms: C_4  and  C_5
REMARK    3  A    between atoms: C_5  and  N_6
REMARK    4  A    between atoms: C_10  and  C_11
REMARK    5  A    between atoms: N_15  and  C_16
REMARK                            x       y       z     vdW  Elec       q    Type
REMARK                         _______ _______ _______ _____ _____    ______ ____
ROOT
ATOM      1  N   UNL     1       3.275   3.779  19.579  0.00  0.00    +0.000 NA
ATOM      2  C   UNL     1       2.442   2.582  19.437  0.00  0.00    +0.000 C 
ATOM      3  C   UNL     1       1.733   2.691  18.107  0.00  0.00    +0.000 C 
ATOM      4  C   UNL     1       1.615   4.179  17.865  0.00  0.00    +0.000 C 
ATOM      5  C   UNL     1       2.768   4.810  18.654  0.00  0.00    +0.000 C 
ENDROOT
BRANCH   5   6
ATOM      6  C   UNL     1       2.297   6.008  19.432  0.00  0.00    +0.000 A 
ATOM      7  C   UNL     1       1.657   6.063  20.660  0.00  0.00    +0.000 A 
ATOM      8  C   UNL     1       1.394   7.414  20.969  0.00  0.00    +0.000 A 
ATOM      9  C   UNL     1       1.879   8.166  19.922  0.00  0.00    +0.000 A 
ATOM     10  N   UNL     1       2.422   7.312  18.996  0.00  0.00    +0.000 N 
ATOM     11  C   UNL     1       3.012   7.745  17.749  0.00  0.00    +0.000 C 
ENDBRANCH   5   6
BRANCH   1  12
ATOM     12  C   UNL     1       4.712   3.544  19.392  0.00  0.00    +0.000 C 
BRANCH  12  16
ATOM     13  C   UNL     1       5.760   4.276  14.613  0.00  0.00    +0.000 C 
ATOM     14  C   UNL     1       5.662   4.586  16.064  0.00  0.00    +0.000 A 
ATOM     15  N   UNL     1       5.059   3.817  16.945  0.00  0.00    +0.000 NA
ATOM     16  C   UNL     1       5.228   4.335  18.223  0.00  0.00    +0.000 A 
ATOM     17  C   UNL     1       5.922   5.531  18.273  0.00  0.00    +0.000 A 
ATOM     18  S   UNL     1       6.396   6.004  16.698  0.00  0.00    +0.000 S 
ENDBRANCH  12  16
ENDBRANCH   1  12
TORSDOF 3
ENDMDL
MODEL 7
REMARK VINA RESULT:      -6.1      1.208      1.252
REMARK  Name = 
REMARK  5 active torsions:
REMARK  status: ('A' for Active; 'I' for Inactive)
REMARK    1  A    between atoms: C_1  and  C_2
REMARK    2  A    between atoms: C_4  and  C_5
REMARK    3  A    between atoms: C_5  and  N_6
REMARK    4  A    between atoms: C_10  and  C_11
REMARK    5  A    between atoms: N_15  and  C_16
REMARK                            x       y       z     vdW  Elec       q    Type
REMARK                         _______ _______ _______ _____ _____    ______ ____
ROOT
ATOM      1  N   UNL     1       2.906   5.158  19.112  0.00  0.00    +0.000 NA
ATOM      2  C   UNL     1       2.095   3.938  19.069  0.00  0.00    +0.000 C 
ATOM      3  C   UNL     1       2.941   2.823  19.638  0.00  0.00    +0.000 C 
ATOM      4  C   UNL     1       4.363   3.241  19.337  0.00  0.00    +0.000 C 
ATOM      5  C   UNL     1       4.323   4.769  19.232  0.00  0.00    +0.000 C 
ENDROOT
BRANCH   5   6
ATOM      6  C   UNL     1       5.089   5.247  18.029  0.00  0.00    +0.000 A 
ATOM      7  C   UNL     1       4.673   5.368  16.712  0.00  0.00    +0.000 A 
ATOM      8  C   UNL     1       5.756   5.839  15.941  0.00  0.00    +0.000 A 
ATOM      9  C   UNL     1       6.819   6.000  16.800  0.00  0.00    +0.000 A 
ATOM     10  N   UNL     1       6.412   5.639  18.059  0.00  0.00    +0.000 N 
ATOM     11  C   UNL     1       7.272   5.660  19.222  0.00  0.00    +0.000 C 
ENDBRANCH   5   6
BRANCH   1  12
ATOM     12  C   UNL     1       2.514   6.110  20.158  0.00  0.00    +0.000 C 
BRANCH  12  16
ATOM     13  C   UNL     1       0.291  10.529  20.107  0.00  0.00    +0.000 C 
ATOM     14  C   UNL     1       1.122   9.400  19.610  0.00  0.00    +0.000 A 
ATOM     15  N   UNL     1       1.450   8.351  20.332  0.00  0.00    +0.000 NA
ATOM     16  C   UNL     1       2.146   7.435  19.552  0.00  0.00    +0.000 A 
ATOM     17  C   UNL     1       2.376   7.844  18.251  0.00  0.00    +0.000 A 
ATOM     18  S   UNL     1       1.688   9.390  17.988  0.00  0.00    +0.000 S 
ENDBRANCH  12  16
ENDBRANCH   1  12
TORSDOF 3
ENDMDL
MODEL 8
REMARK VINA RESULT:      -6.1      2.015      5.105
REMARK  Name = 
REMARK  5 active torsions:
REMARK  status: ('A' for Active; 'I' for Inactive)
REMARK    1  A    between atoms: C_1  and  C_2
REMARK    2  A    between atoms: C_4  and  C_5
REMARK    3  A    between atoms: C_5  and  N_6
REMARK    4  A    between atoms: C_10  and  C_11
REMARK    5  A    between atoms: N_15  and  C_16
REMARK                            x       y       z     vdW  Elec       q    Type
REMARK                         _______ _______ _______ _____ _____    ______ ____
ROOT
ATOM      1  N   UNL     1       3.523   3.706  18.349  0.00  0.00    +0.000 NA
ATOM      2  C   UNL     1       3.312   2.321  18.780  0.00  0.00    +0.000 C 
ATOM      3  C   UNL     1       1.883   1.964  18.441  0.00  0.00    +0.000 C 
ATOM      4  C   UNL     1       1.145   3.284  18.491  0.00  0.00    +0.000 C 
ATOM      5  C   UNL     1       2.205   4.351  18.201  0.00  0.00    +0.000 C 
ENDROOT
BRANCH   5   6
ATOM      6  C   UNL     1       2.089   5.501  19.163  0.00  0.00    +0.000 A 
ATOM      7  C   UNL     1       1.674   5.504  20.486  0.00  0.00    +0.000 A 
ATOM      8  C   UNL     1       1.711   6.830  20.966  0.00  0.00    +0.000 A 
ATOM      9  C   UNL     1       2.151   7.619  19.927  0.00  0.00    +0.000 A 
ATOM     10  N   UNL     1       2.375   6.813  18.841  0.00  0.00    +0.000 N 
ATOM     11  C   UNL     1       2.827   7.299  17.556  0.00  0.00    +0.000 C 
ENDBRANCH   5   6
BRANCH   1  12
ATOM     12  C   UNL     1       4.334   3.845  17.134  0.00  0.00    +0.000 C 
BRANCH  12  16
ATOM     13  C   UNL     1       8.045   5.661  19.856  0.00  0.00    +0.000 C 
ATOM     14  C   UNL     1       7.159   5.493  18.673  0.00  0.00    +0.000 A 
ATOM     15  N   UNL     1       6.234   4.564  18.569  0.00  0.00    +0.000 NA
ATOM     16  C   UNL     1       5.517   4.736  17.391  0.00  0.00    +0.000 A 
ATOM     17  C   UNL     1       5.959   5.777  16.595  0.00  0.00    +0.000 A 
ATOM     18  S   UNL     1       7.276   6.574  17.343  0.00  0.00    +0.000 S 
ENDBRANCH  12  16
ENDBRANCH   1  12
TORSDOF 3
ENDMDL
MODEL 9
REMARK VINA RESULT:      -6.1      1.595      2.006
REMARK  Name = 
REMARK  5 active torsions:
REMARK  status: ('A' for Active; 'I' for Inactive)
REMARK    1  A    between atoms: C_1  and  C_2
REMARK    2  A    between atoms: C_4  and  C_5
REMARK    3  A    between atoms: C_5  and  N_6
REMARK    4  A    between atoms: C_10  and  C_11
REMARK    5  A    between atoms: N_15  and  C_16
REMARK                            x       y       z     vdW  Elec       q    Type
REMARK                         _______ _______ _______ _____ _____    ______ ____
ROOT
ATOM      1  N   UNL     1       2.268   4.786  19.719  0.00  0.00    +0.000 NA
ATOM      2  C   UNL     1       1.059   3.961  19.786  0.00  0.00    +0.000 C 
ATOM      3  C   UNL     1       1.489   2.580  20.225  0.00  0.00    +0.000 C 
ATOM      4  C   UNL     1       2.911   2.455  19.727  0.00  0.00    +0.000 C 
ATOM      5  C   UNL     1       3.437   3.891  19.636  0.00  0.00    +0.000 C 
ENDROOT
BRANCH   5   6
ATOM      6  C   UNL     1       4.163   4.118  18.339  0.00  0.00    +0.000 A 
ATOM      7  C   UNL     1       3.813   3.731  17.054  0.00  0.00    +0.000 A 
ATOM      8  C   UNL     1       4.825   4.153  16.167  0.00  0.00    +0.000 A 
ATOM      9  C   UNL     1       5.780   4.793  16.923  0.00  0.00    +0.000 A 
ATOM     10  N   UNL     1       5.377   4.768  18.234  0.00  0.00    +0.000 N 
ATOM     11  C   UNL     1       6.142   5.332  19.324  0.00  0.00    +0.000 C 
ENDBRANCH   5   6
BRANCH   1  12
ATOM     12  C   UNL     1       2.403   5.754  20.815  0.00  0.00    +0.000 C 
BRANCH  12  16
ATOM     13  C   UNL     1       1.966   9.634  17.778  0.00  0.00    +0.000 C 
ATOM     14  C   UNL     1       1.727   8.795  18.982  0.00  0.00    +0.000 A 
ATOM     15  N   UNL     1       2.182   7.570  19.130  0.00  0.00    +0.000 NA
ATOM     16  C   UNL     1       1.871   7.097  20.400  0.00  0.00    +0.000 A 
ATOM     17  C   UNL     1       1.131   7.971  21.175  0.00  0.00    +0.000 A 
ATOM     18  S   UNL     1       0.840   9.421  20.313  0.00  0.00    +0.000 S 
ENDBRANCH  12  16
ENDBRANCH   1  12
TORSDOF 3
ENDMDL
