MODEL 1
REMARK VINA RESULT:      -7.7      0.000      0.000
REMARK  Name = 
REMARK  15 active torsions:
REMARK  status: ('A' for Active; 'I' for Inactive)
REMARK    1  A    between atoms: C_1  and  C_2
REMARK    2  A    between atoms: C_2  and  N_3
REMARK    3  A    between atoms: N_3  and  C_4
REMARK    4  A    between atoms: N_3  and  C_6
REMARK    5  A    between atoms: C_4  and  C_5
REMARK    6  A    between atoms: C_6  and  C_7
REMARK    7  A    between atoms: C_7  and  C_8
REMARK    8  A    between atoms: C_8  and  C_9
REMARK    9  A    between atoms: C_9  and  C_10
REMARK   10  A    between atoms: C_9  and  N_11
REMARK   11  A    between atoms: N_11  and  C_12
REMARK   12  A    between atoms: C_14  and  C_15
REMARK   13  A    between atoms: C_16  and  C_17
REMARK   14  A    between atoms: C_22  and  O_23
REMARK   15  A    between atoms: O_23  and  C_24
REMARK                            x       y       z     vdW  Elec       q    Type
REMARK                         _______ _______ _______ _____ _____    ______ ____
ROOT
ATOM      1  C   UNL     1       5.272   6.115  17.681  0.00  0.00    +0.000 A 
ATOM      2  N   UNL     1       6.098   7.064  18.137  0.00  0.00    +0.000 NA
ATOM      3  C   UNL     1       7.217   7.300  17.444  0.00  0.00    +0.000 A 
ATOM      4  N   UNL     1       7.583   6.661  16.326  0.00  0.00    +0.000 NA
ATOM      5  C   UNL     1       6.740   5.736  15.858  0.00  0.00    +0.000 A 
ATOM      6  C   UNL     1       7.093   5.035  14.710  0.00  0.00    +0.000 A 
ATOM      7  C   UNL     1       6.255   4.066  14.166  0.00  0.00    +0.000 A 
ATOM      8 CL   UNL     1       6.732   3.221  12.744  0.00  0.00    +0.000 Cl
ATOM      9  C   UNL     1       5.037   3.768  14.765  0.00  0.00    +0.000 A 
ATOM     10  C   UNL     1       4.675   4.440  15.930  0.00  0.00    +0.000 A 
ATOM     11  C   UNL     1       5.526   5.426  16.484  0.00  0.00    +0.000 A 
ENDROOT
BRANCH   1  12
ATOM     12  N   UNL     1       4.134   5.776  18.449  0.00  0.00    +0.000 N 
ATOM     13  H   UNL     1       4.134   4.765  18.584  0.00  0.00    +0.000 HD
BRANCH  12  14
ATOM     14  C   UNL     1       2.846   6.291  17.957  0.00  0.00    +0.000 C 
ATOM     15  C   UNL     1       2.679   7.755  18.403  0.00  0.00    +0.000 C 
BRANCH  14  16
ATOM     16  C   UNL     1       1.726   5.413  18.555  0.00  0.00    +0.000 C 
BRANCH  16  17
ATOM     17  C   UNL     1       1.641   3.990  17.983  0.00  0.00    +0.000 C 
BRANCH  17  18
ATOM     18  C   UNL     1       1.869   2.866  19.008  0.00  0.00    +0.000 C 
BRANCH  18  19
ATOM     19  N   UNL     1       3.055   3.052  19.866  0.00  0.00    +0.000 NA
BRANCH  19  21
ATOM     20  C   UNL     1       1.310   2.846  21.687  0.00  0.00    +0.000 C 
ATOM     21  C   UNL     1       2.768   2.701  21.268  0.00  0.00    +0.000 C 
ENDBRANCH  19  21
BRANCH  19  22
ATOM     22  C   UNL     1       4.237   2.363  19.311  0.00  0.00    +0.000 C 
ATOM     23  C   UNL     1       3.967   1.212  18.345  0.00  0.00    +0.000 C 
ENDBRANCH  19  22
ENDBRANCH  18  19
ENDBRANCH  17  18
ENDBRANCH  16  17
ENDBRANCH  14  16
ENDBRANCH  12  14
ENDBRANCH   1  12
BRANCH   3  24
ATOM     24  C   UNL     1       8.143   8.312  17.957  0.00  0.00    +0.000 C 
ATOM     25  C   UNL     1       7.948   9.633  17.800  0.00  0.00    +0.000 C 
BRANCH  25  26
ATOM     26  C   UNL     1       8.834  10.646  18.382  0.00  0.00    +0.000 A 
ATOM     27  C   UNL     1       9.669  10.168  19.413  0.00  0.00    +0.000 A 
ATOM     28  C   UNL     1      10.525  11.019  20.111  0.00  0.00    +0.000 A 
ATOM     29  C   UNL     1      10.567  12.366  19.785  0.00  0.00    +0.000 A 
ATOM     30  C   UNL     1       9.755  12.851  18.758  0.00  0.00    +0.000 A 
ATOM     31  C   UNL     1       8.880  12.010  18.046  0.00  0.00    +0.000 A 
BRANCH  31  32
ATOM     32  O   UNL     1       8.170  12.712  17.111  0.00  0.00    +0.000 OA
ATOM     33  C   UNL     1       7.264  13.723  17.512  0.00  0.00    +0.000 C 
ENDBRANCH  31  32
ENDBRANCH  25  26
ENDBRANCH   3  24
TORSDOF 11
ENDMDL
MODEL 2
REMARK VINA RESULT:      -7.7      1.239      1.505
REMARK  Name = 
REMARK  15 active torsions:
REMARK  status: ('A' for Active; 'I' for Inactive)
REMARK    1  A    between atoms: C_1  and  C_2
REMARK    2  A    between atoms: C_2  and  N_3
REMARK    3  A    between atoms: N_3  and  C_4
REMARK    4  A    between atoms: N_3  and  C_6
REMARK    5  A    between atoms: C_4  and  C_5
REMARK    6  A    between atoms: C_6  and  C_7
REMARK    7  A    between atoms: C_7  and  C_8
REMARK    8  A    between atoms: C_8  and  C_9
REMARK    9  A    between atoms: C_9  and  C_10
REMARK   10  A    between atoms: C_9  and  N_11
REMARK   11  A    between atoms: N_11  and  C_12
REMARK   12  A    between atoms: C_14  and  C_15
REMARK   13  A    between atoms: C_16  and  C_17
REMARK   14  A    between atoms: C_22  and  O_23
REMARK   15  A    between atoms: O_23  and  C_24
REMARK                            x       y       z     vdW  Elec       q    Type
REMARK                         _______ _______ _______ _____ _____    ______ ____
ROOT
ATOM      1  C   UNL     1       5.447   6.377  17.770  0.00  0.00    +0.000 A 
ATOM      2  N   UNL     1       6.365   7.248  18.207  0.00  0.00    +0.000 NA
ATOM      3  C   UNL     1       7.496   7.365  17.502  0.00  0.00    +0.000 A 
ATOM      4  N   UNL     1       7.788   6.681  16.390  0.00  0.00    +0.000 NA
ATOM      5  C   UNL     1       6.855   5.836  15.940  0.00  0.00    +0.000 A 
ATOM      6  C   UNL     1       7.129   5.090  14.799  0.00  0.00    +0.000 A 
ATOM      7  C   UNL     1       6.195   4.200  14.274  0.00  0.00    +0.000 A 
ATOM      8 CL   UNL     1       6.576   3.296  12.860  0.00  0.00    +0.000 Cl
ATOM      9  C   UNL     1       4.960   4.029  14.886  0.00  0.00    +0.000 A 
ATOM     10  C   UNL     1       4.675   4.747  16.045  0.00  0.00    +0.000 A 
ATOM     11  C   UNL     1       5.622   5.653  16.579  0.00  0.00    +0.000 A 
ENDROOT
BRANCH   1  12
ATOM     12  N   UNL     1       4.288   6.160  18.550  0.00  0.00    +0.000 N 
ATOM     13  H   UNL     1       4.304   5.194  18.876  0.00  0.00    +0.000 HD
BRANCH  12  14
ATOM     14  C   UNL     1       3.009   6.537  17.927  0.00  0.00    +0.000 C 
ATOM     15  C   UNL     1       2.789   8.051  18.093  0.00  0.00    +0.000 C 
BRANCH  14  16
ATOM     16  C   UNL     1       1.887   5.747  18.635  0.00  0.00    +0.000 C 
BRANCH  16  17
ATOM     17  C   UNL     1       1.586   4.367  18.031  0.00  0.00    +0.000 C 
BRANCH  17  18
ATOM     18  C   UNL     1       1.864   3.177  18.966  0.00  0.00    +0.000 C 
BRANCH  18  19
ATOM     19  N   UNL     1       3.075   3.323  19.797  0.00  0.00    +0.000 NA
BRANCH  19  21
ATOM     20  C   UNL     1       1.353   2.693  21.541  0.00  0.00    +0.000 C 
ATOM     21  C   UNL     1       2.768   3.165  21.229  0.00  0.00    +0.000 C 
ENDBRANCH  19  21
BRANCH  19  22
ATOM     22  C   UNL     1       4.164   2.448  19.322  0.00  0.00    +0.000 C 
ATOM     23  C   UNL     1       3.770   1.315  18.377  0.00  0.00    +0.000 C 
ENDBRANCH  19  22
ENDBRANCH  18  19
ENDBRANCH  17  18
ENDBRANCH  16  17
ENDBRANCH  14  16
ENDBRANCH  12  14
ENDBRANCH   1  12
BRANCH   3  24
ATOM     24  C   UNL     1       8.520   8.289  17.995  0.00  0.00    +0.000 C 
ATOM     25  C   UNL     1       8.297   9.602  18.182  0.00  0.00    +0.000 C 
BRANCH  25  26
ATOM     26  C   UNL     1       9.298  10.510  18.749  0.00  0.00    +0.000 A 
ATOM     27  C   UNL     1      10.241  10.993  17.818  0.00  0.00    +0.000 A 
ATOM     28  C   UNL     1      11.296  11.817  18.209  0.00  0.00    +0.000 A 
ATOM     29  C   UNL     1      11.423  12.179  19.542  0.00  0.00    +0.000 A 
ATOM     30  C   UNL     1      10.490  11.718  20.473  0.00  0.00    +0.000 A 
ATOM     31  C   UNL     1       9.423  10.881  20.098  0.00  0.00    +0.000 A 
BRANCH  31  32
ATOM     32  O   UNL     1       8.660  10.538  21.181  0.00  0.00    +0.000 OA
ATOM     33  C   UNL     1       8.407  11.482  22.205  0.00  0.00    +0.000 C 
ENDBRANCH  31  32
ENDBRANCH  25  26
ENDBRANCH   3  24
TORSDOF 11
ENDMDL
MODEL 3
REMARK VINA RESULT:      -7.5      1.389      2.130
REMARK  Name = 
REMARK  15 active torsions:
REMARK  status: ('A' for Active; 'I' for Inactive)
REMARK    1  A    between atoms: C_1  and  C_2
REMARK    2  A    between atoms: C_2  and  N_3
REMARK    3  A    between atoms: N_3  and  C_4
REMARK    4  A    between atoms: N_3  and  C_6
REMARK    5  A    between atoms: C_4  and  C_5
REMARK    6  A    between atoms: C_6  and  C_7
REMARK    7  A    between atoms: C_7  and  C_8
REMARK    8  A    between atoms: C_8  and  C_9
REMARK    9  A    between atoms: C_9  and  C_10
REMARK   10  A    between atoms: C_9  and  N_11
REMARK   11  A    between atoms: N_11  and  C_12
REMARK   12  A    between atoms: C_14  and  C_15
REMARK   13  A    between atoms: C_16  and  C_17
REMARK   14  A    between atoms: C_22  and  O_23
REMARK   15  A    between atoms: O_23  and  C_24
REMARK                            x       y       z     vdW  Elec       q    Type
REMARK                         _______ _______ _______ _____ _____    ______ ____
ROOT
ATOM      1  C   UNL     1       5.674   5.859  18.119  0.00  0.00    +0.000 A 
ATOM      2  N   UNL     1       6.538   6.783  18.559  0.00  0.00    +0.000 NA
ATOM      3  C   UNL     1       7.542   7.132  17.747  0.00  0.00    +0.000 A 
ATOM      4  N   UNL     1       7.757   6.632  16.524  0.00  0.00    +0.000 NA
ATOM      5  C   UNL     1       6.874   5.733  16.078  0.00  0.00    +0.000 A 
ATOM      6  C   UNL     1       7.074   5.174  14.821  0.00  0.00    +0.000 A 
ATOM      7  C   UNL     1       6.186   4.239  14.294  0.00  0.00    +0.000 A 
ATOM      8 CL   UNL     1       6.472   3.571  12.733  0.00  0.00    +0.000 Cl
ATOM      9  C   UNL     1       5.072   3.835  15.019  0.00  0.00    +0.000 A 
ATOM     10  C   UNL     1       4.867   4.363  16.292  0.00  0.00    +0.000 A 
ATOM     11  C   UNL     1       5.768   5.314  16.828  0.00  0.00    +0.000 A 
ENDROOT
BRANCH   1  12
ATOM     12  N   UNL     1       4.664   5.399  18.995  0.00  0.00    +0.000 N 
ATOM     13  H   UNL     1       4.430   4.442  18.732  0.00  0.00    +0.000 HD
BRANCH  12  14
ATOM     14  C   UNL     1       3.482   6.265  19.130  0.00  0.00    +0.000 C 
ATOM     15  C   UNL     1       2.777   5.959  20.464  0.00  0.00    +0.000 C 
BRANCH  14  16
ATOM     16  C   UNL     1       2.541   5.970  17.942  0.00  0.00    +0.000 C 
BRANCH  16  17
ATOM     17  C   UNL     1       1.429   4.951  18.233  0.00  0.00    +0.000 C 
BRANCH  17  18
ATOM     18  C   UNL     1       1.733   3.513  17.777  0.00  0.00    +0.000 C 
BRANCH  18  19
ATOM     19  N   UNL     1       1.729   2.513  18.862  0.00  0.00    +0.000 NA
BRANCH  19  21
ATOM     20  C   UNL     1       3.897   1.320  18.333  0.00  0.00    +0.000 C 
ATOM     21  C   UNL     1       3.098   2.186  19.299  0.00  0.00    +0.000 C 
ENDBRANCH  19  21
BRANCH  19  22
ATOM     22  C   UNL     1       0.834   2.916  19.964  0.00  0.00    +0.000 C 
ATOM     23  C   UNL     1       1.375   2.748  21.382  0.00  0.00    +0.000 C 
ENDBRANCH  19  22
ENDBRANCH  18  19
ENDBRANCH  17  18
ENDBRANCH  16  17
ENDBRANCH  14  16
ENDBRANCH  12  14
ENDBRANCH   1  12
BRANCH   3  24
ATOM     24  C   UNL     1       8.511   8.115  18.236  0.00  0.00    +0.000 C 
ATOM     25  C   UNL     1       8.325   9.443  18.134  0.00  0.00    +0.000 C 
BRANCH  25  26
ATOM     26  C   UNL     1       9.259  10.426  18.694  0.00  0.00    +0.000 A 
ATOM     27  C   UNL     1      10.165  10.968  17.759  0.00  0.00    +0.000 A 
ATOM     28  C   UNL     1      11.158  11.868  18.144  0.00  0.00    +0.000 A 
ATOM     29  C   UNL     1      11.257  12.250  19.473  0.00  0.00    +0.000 A 
ATOM     30  C   UNL     1      10.358  11.731  20.407  0.00  0.00    +0.000 A 
ATOM     31  C   UNL     1       9.355  10.817  20.040  0.00  0.00    +0.000 A 
BRANCH  31  32
ATOM     32  O   UNL     1       8.617  10.428  21.125  0.00  0.00    +0.000 OA
ATOM     33  C   UNL     1       8.414  11.318  22.207  0.00  0.00    +0.000 C 
ENDBRANCH  31  32
ENDBRANCH  25  26
ENDBRANCH   3  24
TORSDOF 11
ENDMDL
MODEL 4
REMARK VINA RESULT:      -7.3      1.740      3.647
REMARK  Name = 
REMARK  15 active torsions:
REMARK  status: ('A' for Active; 'I' for Inactive)
REMARK    1  A    between atoms: C_1  and  C_2
REMARK    2  A    between atoms: C_2  and  N_3
REMARK    3  A    between atoms: N_3  and  C_4
REMARK    4  A    between atoms: N_3  and  C_6
REMARK    5  A    between atoms: C_4  and  C_5
REMARK    6  A    between atoms: C_6  and  C_7
REMARK    7  A    between atoms: C_7  and  C_8
REMARK    8  A    between atoms: C_8  and  C_9
REMARK    9  A    between atoms: C_9  and  C_10
REMARK   10  A    between atoms: C_9  and  N_11
REMARK   11  A    between atoms: N_11  and  C_12
REMARK   12  A    between atoms: C_14  and  C_15
REMARK   13  A    between atoms: C_16  and  C_17
REMARK   14  A    between atoms: C_22  and  O_23
REMARK   15  A    between atoms: O_23  and  C_24
REMARK                            x       y       z     vdW  Elec       q    Type
REMARK                         _______ _______ _______ _____ _____    ______ ____
ROOT
ATOM      1  C   UNL     1       5.619   5.646  18.034  0.00  0.00    +0.000 A 
ATOM      2  N   UNL     1       6.390   6.659  18.446  0.00  0.00    +0.000 NA
ATOM      3  C   UNL     1       7.335   7.102  17.609  0.00  0.00    +0.000 A 
ATOM      4  N   UNL     1       7.575   6.614  16.387  0.00  0.00    +0.000 NA
ATOM      5  C   UNL     1       6.782   5.624  15.967  0.00  0.00    +0.000 A 
ATOM      6  C   UNL     1       7.013   5.075  14.711  0.00  0.00    +0.000 A 
ATOM      7  C   UNL     1       6.217   4.047  14.212  0.00  0.00    +0.000 A 
ATOM      8 CL   UNL     1       6.539   3.396  12.651  0.00  0.00    +0.000 Cl
ATOM      9  C   UNL     1       5.167   3.536  14.965  0.00  0.00    +0.000 A 
ATOM     10  C   UNL     1       4.935   4.054  16.237  0.00  0.00    +0.000 A 
ATOM     11  C   UNL     1       5.742   5.100  16.746  0.00  0.00    +0.000 A 
ENDROOT
BRANCH   1  12
ATOM     12  N   UNL     1       4.682   5.092  18.936  0.00  0.00    +0.000 N 
ATOM     13  H   UNL     1       4.547   4.112  18.689  0.00  0.00    +0.000 HD
BRANCH  12  14
ATOM     14  C   UNL     1       3.415   5.827  19.084  0.00  0.00    +0.000 C 
ATOM     15  C   UNL     1       2.239   4.879  18.789  0.00  0.00    +0.000 C 
BRANCH  14  16
ATOM     16  C   UNL     1       3.428   7.000  18.080  0.00  0.00    +0.000 C 
BRANCH  16  17
ATOM     17  C   UNL     1       2.074   7.698  17.880  0.00  0.00    +0.000 C 
BRANCH  17  18
ATOM     18  C   UNL     1       2.069   9.203  18.197  0.00  0.00    +0.000 C 
BRANCH  18  19
ATOM     19  N   UNL     1       0.921   9.653  19.007  0.00  0.00    +0.000 NA
BRANCH  19  21
ATOM     20  C   UNL     1       0.031   9.779  21.373  0.00  0.00    +0.000 C 
ATOM     21  C   UNL     1       0.998   9.137  20.385  0.00  0.00    +0.000 C 
ENDBRANCH  19  21
BRANCH  19  22
ATOM     22  C   UNL     1       0.745  11.116  18.929  0.00  0.00    +0.000 C 
ATOM     23  C   UNL     1       1.949  11.926  18.455  0.00  0.00    +0.000 C 
ENDBRANCH  19  22
ENDBRANCH  18  19
ENDBRANCH  17  18
ENDBRANCH  16  17
ENDBRANCH  14  16
ENDBRANCH  12  14
ENDBRANCH   1  12
BRANCH   3  24
ATOM     24  C   UNL     1       8.206   8.187  18.068  0.00  0.00    +0.000 C 
ATOM     25  C   UNL     1       7.954   9.485  17.825  0.00  0.00    +0.000 C 
BRANCH  25  26
ATOM     26  C   UNL     1       8.784  10.573  18.352  0.00  0.00    +0.000 A 
ATOM     27  C   UNL     1       9.703  10.176  19.346  0.00  0.00    +0.000 A 
ATOM     28  C   UNL     1      10.521  11.101  19.993  0.00  0.00    +0.000 A 
ATOM     29  C   UNL     1      10.441  12.442  19.651  0.00  0.00    +0.000 A 
ATOM     30  C   UNL     1       9.545  12.848  18.660  0.00  0.00    +0.000 A 
ATOM     31  C   UNL     1       8.706  11.931  18.001  0.00  0.00    +0.000 A 
BRANCH  31  32
ATOM     32  O   UNL     1       7.899  12.561  17.094  0.00  0.00    +0.000 OA
ATOM     33  C   UNL     1       7.201  13.739  17.456  0.00  0.00    +0.000 C 
ENDBRANCH  31  32
ENDBRANCH  25  26
ENDBRANCH   3  24
TORSDOF 11
ENDMDL
MODEL 5
REMARK VINA RESULT:      -6.9      2.072      3.938
REMARK  Name = 
REMARK  15 active torsions:
REMARK  status: ('A' for Active; 'I' for Inactive)
REMARK    1  A    between atoms: C_1  and  C_2
REMARK    2  A    between atoms: C_2  and  N_3
REMARK    3  A    between atoms: N_3  and  C_4
REMARK    4  A    between atoms: N_3  and  C_6
REMARK    5  A    between atoms: C_4  and  C_5
REMARK    6  A    between atoms: C_6  and  C_7
REMARK    7  A    between atoms: C_7  and  C_8
REMARK    8  A    between atoms: C_8  and  C_9
REMARK    9  A    between atoms: C_9  and  C_10
REMARK   10  A    between atoms: C_9  and  N_11
REMARK   11  A    between atoms: N_11  and  C_12
REMARK   12  A    between atoms: C_14  and  C_15
REMARK   13  A    between atoms: C_16  and  C_17
REMARK   14  A    between atoms: C_22  and  O_23
REMARK   15  A    between atoms: O_23  and  C_24
REMARK                            x       y       z     vdW  Elec       q    Type
REMARK                         _______ _______ _______ _____ _____    ______ ____
ROOT
ATOM      1  C   UNL     1       5.688   5.842  18.210  0.00  0.00    +0.000 A 
ATOM      2  N   UNL     1       6.565   6.770  18.614  0.00  0.00    +0.000 NA
ATOM      3  C   UNL     1       7.532   7.124  17.761  0.00  0.00    +0.000 A 
ATOM      4  N   UNL     1       7.698   6.627  16.530  0.00  0.00    +0.000 NA
ATOM      5  C   UNL     1       6.802   5.724  16.120  0.00  0.00    +0.000 A 
ATOM      6  C   UNL     1       6.952   5.166  14.855  0.00  0.00    +0.000 A 
ATOM      7  C   UNL     1       6.047   4.228  14.365  0.00  0.00    +0.000 A 
ATOM      8 CL   UNL     1       6.271   3.562  12.793  0.00  0.00    +0.000 Cl
ATOM      9  C   UNL     1       4.967   3.817  15.137  0.00  0.00    +0.000 A 
ATOM     10  C   UNL     1       4.813   4.344  16.417  0.00  0.00    +0.000 A 
ATOM     11  C   UNL     1       5.731   5.299  16.916  0.00  0.00    +0.000 A 
ENDROOT
BRANCH   1  12
ATOM     12  N   UNL     1       4.719   5.376  19.128  0.00  0.00    +0.000 N 
ATOM     13  H   UNL     1       4.575   4.381  18.957  0.00  0.00    +0.000 HD
BRANCH  12  14
ATOM     14  C   UNL     1       3.461   6.138  19.182  0.00  0.00    +0.000 C 
ATOM     15  C   UNL     1       2.274   5.173  19.014  0.00  0.00    +0.000 C 
BRANCH  14  16
ATOM     16  C   UNL     1       3.484   7.171  18.035  0.00  0.00    +0.000 C 
BRANCH  16  17
ATOM     17  C   UNL     1       2.138   7.855  17.751  0.00  0.00    +0.000 C 
BRANCH  17  18
ATOM     18  C   UNL     1       2.121   9.375  17.993  0.00  0.00    +0.000 C 
BRANCH  18  19
ATOM     19  N   UNL     1       1.213   9.811  19.072  0.00  0.00    +0.000 NA
BRANCH  19  21
ATOM     20  C   UNL     1      -0.474  11.651  18.659  0.00  0.00    +0.000 C 
ATOM     21  C   UNL     1      -0.114  10.175  18.546  0.00  0.00    +0.000 C 
ENDBRANCH  19  21
BRANCH  19  22
ATOM     22  C   UNL     1       1.168   8.828  20.171  0.00  0.00    +0.000 C 
ATOM     23  C   UNL     1       0.158   9.092  21.285  0.00  0.00    +0.000 C 
ENDBRANCH  19  22
ENDBRANCH  18  19
ENDBRANCH  17  18
ENDBRANCH  16  17
ENDBRANCH  14  16
ENDBRANCH  12  14
ENDBRANCH   1  12
BRANCH   3  24
ATOM     24  C   UNL     1       8.516   8.113  18.209  0.00  0.00    +0.000 C 
ATOM     25  C   UNL     1       8.283   9.437  18.202  0.00  0.00    +0.000 C 
BRANCH  25  26
ATOM     26  C   UNL     1       9.238  10.419  18.724  0.00  0.00    +0.000 A 
ATOM     27  C   UNL     1      10.140  10.924  17.764  0.00  0.00    +0.000 A 
ATOM     28  C   UNL     1      11.151  11.818  18.113  0.00  0.00    +0.000 A 
ATOM     29  C   UNL     1      11.274  12.232  19.431  0.00  0.00    +0.000 A 
ATOM     30  C   UNL     1      10.380  11.750  20.390  0.00  0.00    +0.000 A 
ATOM     31  C   UNL     1       9.358  10.842  20.059  0.00  0.00    +0.000 A 
BRANCH  31  32
ATOM     32  O   UNL     1       8.630  10.493  21.163  0.00  0.00    +0.000 OA
ATOM     33  C   UNL     1       8.403  11.433  22.197  0.00  0.00    +0.000 C 
ENDBRANCH  31  32
ENDBRANCH  25  26
ENDBRANCH   3  24
TORSDOF 11
ENDMDL
MODEL 6
REMARK VINA RESULT:      -6.9      1.443      1.787
REMARK  Name = 
REMARK  15 active torsions:
REMARK  status: ('A' for Active; 'I' for Inactive)
REMARK    1  A    between atoms: C_1  and  C_2
REMARK    2  A    between atoms: C_2  and  N_3
REMARK    3  A    between atoms: N_3  and  C_4
REMARK    4  A    between atoms: N_3  and  C_6
REMARK    5  A    between atoms: C_4  and  C_5
REMARK    6  A    between atoms: C_6  and  C_7
REMARK    7  A    between atoms: C_7  and  C_8
REMARK    8  A    between atoms: C_8  and  C_9
REMARK    9  A    between atoms: C_9  and  C_10
REMARK   10  A    between atoms: C_9  and  N_11
REMARK   11  A    between atoms: N_11  and  C_12
REMARK   12  A    between atoms: C_14  and  C_15
REMARK   13  A    between atoms: C_16  and  C_17
REMARK   14  A    between atoms: C_22  and  O_23
REMARK   15  A    between atoms: O_23  and  C_24
REMARK                            x       y       z     vdW  Elec       q    Type
REMARK                         _______ _______ _______ _____ _____    ______ ____
ROOT
ATOM      1  C   UNL     1       5.306   6.805  17.445  0.00  0.00    +0.000 A 
ATOM      2  N   UNL     1       6.230   7.601  17.997  0.00  0.00    +0.000 NA
ATOM      3  C   UNL     1       7.465   7.567  17.485  0.00  0.00    +0.000 A 
ATOM      4  N   UNL     1       7.858   6.799  16.463  0.00  0.00    +0.000 NA
ATOM      5  C   UNL     1       6.925   6.028  15.896  0.00  0.00    +0.000 A 
ATOM      6  C   UNL     1       7.297   5.199  14.844  0.00  0.00    +0.000 A 
ATOM      7  C   UNL     1       6.370   4.380  14.204  0.00  0.00    +0.000 A 
ATOM      8 CL   UNL     1       6.875   3.368  12.906  0.00  0.00    +0.000 Cl
ATOM      9  C   UNL     1       5.041   4.366  14.608  0.00  0.00    +0.000 A 
ATOM     10  C   UNL     1       4.652   5.170  15.677  0.00  0.00    +0.000 A 
ATOM     11  C   UNL     1       5.592   6.004  16.328  0.00  0.00    +0.000 A 
ENDROOT
BRANCH   1  12
ATOM     12  N   UNL     1       4.020   6.746  18.030  0.00  0.00    +0.000 N 
ATOM     13  H   UNL     1       3.629   7.688  18.027  0.00  0.00    +0.000 HD
BRANCH  12  14
ATOM     14  C   UNL     1       3.938   6.094  19.347  0.00  0.00    +0.000 C 
ATOM     15  C   UNL     1       4.978   4.961  19.419  0.00  0.00    +0.000 C 
BRANCH  14  16
ATOM     16  C   UNL     1       2.510   5.528  19.507  0.00  0.00    +0.000 C 
BRANCH  16  17
ATOM     17  C   UNL     1       1.878   4.988  18.215  0.00  0.00    +0.000 C 
BRANCH  17  18
ATOM     18  C   UNL     1       1.598   3.476  18.215  0.00  0.00    +0.000 C 
BRANCH  18  19
ATOM     19  N   UNL     1       2.261   2.731  19.303  0.00  0.00    +0.000 NA
BRANCH  19  21
ATOM     20  C   UNL     1       1.408   2.770  21.685  0.00  0.00    +0.000 C 
ATOM     21  C   UNL     1       1.283   2.210  20.274  0.00  0.00    +0.000 C 
ENDBRANCH  19  21
BRANCH  19  22
ATOM     22  C   UNL     1       3.180   1.705  18.774  0.00  0.00    +0.000 C 
ATOM     23  C   UNL     1       3.813   1.988  17.414  0.00  0.00    +0.000 C 
ENDBRANCH  19  22
ENDBRANCH  18  19
ENDBRANCH  17  18
ENDBRANCH  16  17
ENDBRANCH  14  16
ENDBRANCH  12  14
ENDBRANCH   1  12
BRANCH   3  24
ATOM     24  C   UNL     1       8.489   8.409  18.107  0.00  0.00    +0.000 C 
ATOM     25  C   UNL     1       8.493   9.751  18.017  0.00  0.00    +0.000 C 
BRANCH  25  26
ATOM     26  C   UNL     1       9.473  10.596  18.705  0.00  0.00    +0.000 A 
ATOM     27  C   UNL     1      10.527  11.052  17.885  0.00  0.00    +0.000 A 
ATOM     28  C   UNL     1      11.574  11.814  18.402  0.00  0.00    +0.000 A 
ATOM     29  C   UNL     1      11.582  12.141  19.750  0.00  0.00    +0.000 A 
ATOM     30  C   UNL     1      10.539  11.708  20.570  0.00  0.00    +0.000 A 
ATOM     31  C   UNL     1       9.477  10.933  20.069  0.00  0.00    +0.000 A 
BRANCH  31  32
ATOM     32  O   UNL     1       8.593  10.605  21.060  0.00  0.00    +0.000 OA
ATOM     33  C   UNL     1       8.379  11.486  22.147  0.00  0.00    +0.000 C 
ENDBRANCH  31  32
ENDBRANCH  25  26
ENDBRANCH   3  24
TORSDOF 11
ENDMDL
MODEL 7
REMARK VINA RESULT:      -6.9      4.036      7.367
REMARK  Name = 
REMARK  15 active torsions:
REMARK  status: ('A' for Active; 'I' for Inactive)
REMARK    1  A    between atoms: C_1  and  C_2
REMARK    2  A    between atoms: C_2  and  N_3
REMARK    3  A    between atoms: N_3  and  C_4
REMARK    4  A    between atoms: N_3  and  C_6
REMARK    5  A    between atoms: C_4  and  C_5
REMARK    6  A    between atoms: C_6  and  C_7
REMARK    7  A    between atoms: C_7  and  C_8
REMARK    8  A    between atoms: C_8  and  C_9
REMARK    9  A    between atoms: C_9  and  C_10
REMARK   10  A    between atoms: C_9  and  N_11
REMARK   11  A    between atoms: N_11  and  C_12
REMARK   12  A    between atoms: C_14  and  C_15
REMARK   13  A    between atoms: C_16  and  C_17
REMARK   14  A    between atoms: C_22  and  O_23
REMARK   15  A    between atoms: O_23  and  C_24
REMARK                            x       y       z     vdW  Elec       q    Type
REMARK                         _______ _______ _______ _____ _____    ______ ____
ROOT
ATOM      1  C   UNL     1       4.191   6.115  16.946  0.00  0.00    +0.000 A 
ATOM      2  N   UNL     1       3.837   7.386  17.178  0.00  0.00    +0.000 NA
ATOM      3  C   UNL     1       2.764   7.601  17.947  0.00  0.00    +0.000 A 
ATOM      4  N   UNL     1       2.009   6.648  18.507  0.00  0.00    +0.000 NA
ATOM      5  C   UNL     1       2.385   5.383  18.298  0.00  0.00    +0.000 A 
ATOM      6  C   UNL     1       1.615   4.362  18.845  0.00  0.00    +0.000 A 
ATOM      7  C   UNL     1       1.959   3.024  18.672  0.00  0.00    +0.000 A 
ATOM      8 CL   UNL     1       0.976   1.792  19.366  0.00  0.00    +0.000 Cl
ATOM      9  C   UNL     1       3.084   2.671  17.938  0.00  0.00    +0.000 A 
ATOM     10  C   UNL     1       3.855   3.677  17.360  0.00  0.00    +0.000 A 
ATOM     11  C   UNL     1       3.508   5.038  17.535  0.00  0.00    +0.000 A 
ENDROOT
BRANCH   1  12
ATOM     12  N   UNL     1       5.259   5.858  16.056  0.00  0.00    +0.000 N 
ATOM     13  H   UNL     1       4.911   5.252  15.313  0.00  0.00    +0.000 HD
BRANCH  12  14
ATOM     14  C   UNL     1       6.504   5.363  16.666  0.00  0.00    +0.000 C 
ATOM     15  C   UNL     1       7.398   6.560  17.037  0.00  0.00    +0.000 C 
BRANCH  14  16
ATOM     16  C   UNL     1       7.210   4.460  15.633  0.00  0.00    +0.000 C 
BRANCH  16  17
ATOM     17  C   UNL     1       6.316   3.960  14.489  0.00  0.00    +0.000 C 
BRANCH  17  18
ATOM     18  C   UNL     1       6.700   4.481  13.093  0.00  0.00    +0.000 C 
BRANCH  18  19
ATOM     19  N   UNL     1       6.263   3.618  11.978  0.00  0.00    +0.000 NA
BRANCH  19  21
ATOM     20  C   UNL     1       6.668   1.315  11.012  0.00  0.00    +0.000 C 
ATOM     21  C   UNL     1       7.234   2.541  11.716  0.00  0.00    +0.000 C 
ENDBRANCH  19  21
BRANCH  19  22
ATOM     22  C   UNL     1       4.882   3.139  12.175  0.00  0.00    +0.000 C 
ATOM     23  C   UNL     1       3.872   3.493  11.086  0.00  0.00    +0.000 C 
ENDBRANCH  19  22
ENDBRANCH  18  19
ENDBRANCH  17  18
ENDBRANCH  16  17
ENDBRANCH  14  16
ENDBRANCH  12  14
ENDBRANCH   1  12
BRANCH   3  24
ATOM     24  C   UNL     1       2.349   8.987  18.175  0.00  0.00    +0.000 C 
ATOM     25  C   UNL     1       1.077   9.404  18.051  0.00  0.00    +0.000 C 
BRANCH  25  26
ATOM     26  C   UNL     1       0.652  10.774  18.356  0.00  0.00    +0.000 A 
ATOM     27  C   UNL     1       1.696  11.633  18.757  0.00  0.00    +0.000 A 
ATOM     28  C   UNL     1       1.449  12.950  19.142  0.00  0.00    +0.000 A 
ATOM     29  C   UNL     1       0.150  13.435  19.126  0.00  0.00    +0.000 A 
ATOM     30  C   UNL     1      -0.892  12.600  18.719  0.00  0.00    +0.000 A 
ATOM     31  C   UNL     1      -0.664  11.267  18.334  0.00  0.00    +0.000 A 
BRANCH  31  32
ATOM     32  O   UNL     1      -1.834  10.639  18.005  0.00  0.00    +0.000 OA
ATOM     33  C   UNL     1      -3.078  11.224  18.344  0.00  0.00    +0.000 C 
ENDBRANCH  31  32
ENDBRANCH  25  26
ENDBRANCH   3  24
TORSDOF 11
ENDMDL
MODEL 8
REMARK VINA RESULT:      -6.9      4.050      7.305
REMARK  Name = 
REMARK  15 active torsions:
REMARK  status: ('A' for Active; 'I' for Inactive)
REMARK    1  A    between atoms: C_1  and  C_2
REMARK    2  A    between atoms: C_2  and  N_3
REMARK    3  A    between atoms: N_3  and  C_4
REMARK    4  A    between atoms: N_3  and  C_6
REMARK    5  A    between atoms: C_4  and  C_5
REMARK    6  A    between atoms: C_6  and  C_7
REMARK    7  A    between atoms: C_7  and  C_8
REMARK    8  A    between atoms: C_8  and  C_9
REMARK    9  A    between atoms: C_9  and  C_10
REMARK   10  A    between atoms: C_9  and  N_11
REMARK   11  A    between atoms: N_11  and  C_12
REMARK   12  A    between atoms: C_14  and  C_15
REMARK   13  A    between atoms: C_16  and  C_17
REMARK   14  A    between atoms: C_22  and  O_23
REMARK   15  A    between atoms: O_23  and  C_24
REMARK                            x       y       z     vdW  Elec       q    Type
REMARK                         _______ _______ _______ _____ _____    ______ ____
ROOT
ATOM      1  C   UNL     1       4.067   6.348  17.024  0.00  0.00    +0.000 A 
ATOM      2  N   UNL     1       3.710   7.561  17.466  0.00  0.00    +0.000 NA
ATOM      3  C   UNL     1       2.726   7.629  18.369  0.00  0.00    +0.000 A 
ATOM      4  N   UNL     1       2.064   6.580  18.870  0.00  0.00    +0.000 NA
ATOM      5  C   UNL     1       2.444   5.370  18.450  0.00  0.00    +0.000 A 
ATOM      6  C   UNL     1       1.766   4.256  18.931  0.00  0.00    +0.000 A 
ATOM      7  C   UNL     1       2.120   2.967  18.540  0.00  0.00    +0.000 A 
ATOM      8 CL   UNL     1       1.253   1.615  19.160  0.00  0.00    +0.000 Cl
ATOM      9  C   UNL     1       3.164   2.761  17.646  0.00  0.00    +0.000 A 
ATOM     10  C   UNL     1       3.839   3.865  17.131  0.00  0.00    +0.000 A 
ATOM     11  C   UNL     1       3.482   5.176  17.529  0.00  0.00    +0.000 A 
ENDROOT
BRANCH   1  12
ATOM     12  N   UNL     1       5.033   6.255  15.996  0.00  0.00    +0.000 N 
ATOM     13  H   UNL     1       4.564   5.929  15.151  0.00  0.00    +0.000 HD
BRANCH  12  14
ATOM     14  C   UNL     1       6.244   5.483  16.316  0.00  0.00    +0.000 C 
ATOM     15  C   UNL     1       7.206   6.362  17.136  0.00  0.00    +0.000 C 
BRANCH  14  16
ATOM     16  C   UNL     1       6.901   5.060  14.984  0.00  0.00    +0.000 C 
BRANCH  16  17
ATOM     17  C   UNL     1       6.355   3.760  14.376  0.00  0.00    +0.000 C 
BRANCH  17  18
ATOM     18  C   UNL     1       6.387   3.701  12.839  0.00  0.00    +0.000 C 
BRANCH  18  19
ATOM     19  N   UNL     1       5.271   2.949  12.232  0.00  0.00    +0.000 NA
BRANCH  19  21
ATOM     20  C   UNL     1       3.393   3.176  10.552  0.00  0.00    +0.000 C 
ATOM     21  C   UNL     1       4.318   3.849  11.558  0.00  0.00    +0.000 C 
ENDBRANCH  19  21
BRANCH  19  22
ATOM     22  C   UNL     1       5.761   1.852  11.376  0.00  0.00    +0.000 C 
ATOM     23  C   UNL     1       7.261   1.824  11.091  0.00  0.00    +0.000 C 
ENDBRANCH  19  22
ENDBRANCH  18  19
ENDBRANCH  17  18
ENDBRANCH  16  17
ENDBRANCH  14  16
ENDBRANCH  12  14
ENDBRANCH   1  12
BRANCH   3  24
ATOM     24  C   UNL     1       2.307   8.954  18.829  0.00  0.00    +0.000 C 
ATOM     25  C   UNL     1       1.022   9.283  19.051  0.00  0.00    +0.000 C 
BRANCH  25  26
ATOM     26  C   UNL     1       0.611  10.584  19.587  0.00  0.00    +0.000 A 
ATOM     27  C   UNL     1       0.310  11.551  18.605  0.00  0.00    +0.000 A 
ATOM     28  C   UNL     1      -0.036  12.857  18.949  0.00  0.00    +0.000 A 
ATOM     29  C   UNL     1      -0.095  13.219  20.287  0.00  0.00    +0.000 A 
ATOM     30  C   UNL     1       0.188  12.269  21.270  0.00  0.00    +0.000 A 
ATOM     31  C   UNL     1       0.545  10.949  20.943  0.00  0.00    +0.000 A 
BRANCH  31  32
ATOM     32  O   UNL     1       0.802  10.212  22.066  0.00  0.00    +0.000 OA
ATOM     33  C   UNL     1      -0.249   9.867  22.951  0.00  0.00    +0.000 C 
ENDBRANCH  31  32
ENDBRANCH  25  26
ENDBRANCH   3  24
TORSDOF 11
ENDMDL
MODEL 9
REMARK VINA RESULT:      -6.8      3.800      7.291
REMARK  Name = 
REMARK  15 active torsions:
REMARK  status: ('A' for Active; 'I' for Inactive)
REMARK    1  A    between atoms: C_1  and  C_2
REMARK    2  A    between atoms: C_2  and  N_3
REMARK    3  A    between atoms: N_3  and  C_4
REMARK    4  A    between atoms: N_3  and  C_6
REMARK    5  A    between atoms: C_4  and  C_5
REMARK    6  A    between atoms: C_6  and  C_7
REMARK    7  A    between atoms: C_7  and  C_8
REMARK    8  A    between atoms: C_8  and  C_9
REMARK    9  A    between atoms: C_9  and  C_10
REMARK   10  A    between atoms: C_9  and  N_11
REMARK   11  A    between atoms: N_11  and  C_12
REMARK   12  A    between atoms: C_14  and  C_15
REMARK   13  A    between atoms: C_16  and  C_17
REMARK   14  A    between atoms: C_22  and  O_23
REMARK   15  A    between atoms: O_23  and  C_24
REMARK                            x       y       z     vdW  Elec       q    Type
REMARK                         _______ _______ _______ _____ _____    ______ ____
ROOT
ATOM      1  C   UNL     1       4.113   6.446  17.583  0.00  0.00    +0.000 A 
ATOM      2  N   UNL     1       3.523   7.646  17.522  0.00  0.00    +0.000 NA
ATOM      3  C   UNL     1       2.534   7.898  18.387  0.00  0.00    +0.000 A 
ATOM      4  N   UNL     1       2.082   7.045  19.314  0.00  0.00    +0.000 NA
ATOM      5  C   UNL     1       2.695   5.860  19.391  0.00  0.00    +0.000 A 
ATOM      6  C   UNL     1       2.241   4.937  20.327  0.00  0.00    +0.000 A 
ATOM      7  C   UNL     1       2.843   3.689  20.465  0.00  0.00    +0.000 A 
ATOM      8 CL   UNL     1       2.247   2.576  21.636  0.00  0.00    +0.000 Cl
ATOM      9  C   UNL     1       3.916   3.328  19.660  0.00  0.00    +0.000 A 
ATOM     10  C   UNL     1       4.370   4.228  18.698  0.00  0.00    +0.000 A 
ATOM     11  C   UNL     1       3.761   5.498  18.557  0.00  0.00    +0.000 A 
ENDROOT
BRANCH   1  12
ATOM     12  N   UNL     1       5.090   6.117  16.615  0.00  0.00    +0.000 N 
ATOM     13  H   UNL     1       4.698   5.403  16.002  0.00  0.00    +0.000 HD
BRANCH  12  14
ATOM     14  C   UNL     1       6.421   5.763  17.135  0.00  0.00    +0.000 C 
ATOM     15  C   UNL     1       7.235   7.049  17.367  0.00  0.00    +0.000 C 
BRANCH  14  16
ATOM     16  C   UNL     1       7.114   4.866  16.088  0.00  0.00    +0.000 C 
BRANCH  16  17
ATOM     17  C   UNL     1       6.164   4.149  15.117  0.00  0.00    +0.000 C 
BRANCH  17  18
ATOM     18  C   UNL     1       6.520   4.307  13.629  0.00  0.00    +0.000 C 
BRANCH  18  19
ATOM     19  N   UNL     1       6.121   3.166  12.781  0.00  0.00    +0.000 NA
BRANCH  19  21
ATOM     20  C   UNL     1       4.273   3.663  11.125  0.00  0.00    +0.000 C 
ATOM     21  C   UNL     1       4.672   3.175  12.512  0.00  0.00    +0.000 C 
ENDBRANCH  19  21
BRANCH  19  22
ATOM     22  C   UNL     1       6.951   3.081  11.564  0.00  0.00    +0.000 C 
ATOM     23  C   UNL     1       7.228   1.682  11.020  0.00  0.00    +0.000 C 
ENDBRANCH  19  22
ENDBRANCH  18  19
ENDBRANCH  17  18
ENDBRANCH  16  17
ENDBRANCH  14  16
ENDBRANCH  12  14
ENDBRANCH   1  12
BRANCH   3  24
ATOM     24  C   UNL     1       1.861   9.196  18.302  0.00  0.00    +0.000 C 
ATOM     25  C   UNL     1       0.840   9.548  19.103  0.00  0.00    +0.000 C 
BRANCH  25  26
ATOM     26  C   UNL     1       0.219  10.876  19.070  0.00  0.00    +0.000 A 
ATOM     27  C   UNL     1      -1.181  10.861  18.897  0.00  0.00    +0.000 A 
ATOM     28  C   UNL     1      -1.913  12.042  18.781  0.00  0.00    +0.000 A 
ATOM     29  C   UNL     1      -1.258  13.262  18.845  0.00  0.00    +0.000 A 
ATOM     30  C   UNL     1       0.126  13.292  19.029  0.00  0.00    +0.000 A 
ATOM     31  C   UNL     1       0.883  12.112  19.141  0.00  0.00    +0.000 A 
BRANCH  31  32
ATOM     32  O   UNL     1       2.214  12.390  19.287  0.00  0.00    +0.000 OA
ATOM     33  C   UNL     1       2.879  13.217  18.349  0.00  0.00    +0.000 C 
ENDBRANCH  31  32
ENDBRANCH  25  26
ENDBRANCH   3  24
TORSDOF 11
ENDMDL
