MODEL 1
REMARK VINA RESULT:      -7.4      0.000      0.000
REMARK  Name = 
REMARK  2 active torsions:
REMARK  status: ('A' for Active; 'I' for Inactive)
REMARK    1  A    between atoms: C_2  and  C_3
REMARK    2  A    between atoms: C_14  and  N_15
REMARK                            x       y       z     vdW  Elec       q    Type
REMARK                         _______ _______ _______ _____ _____    ______ ____
ROOT
ATOM      1  O   UNL     1       6.964   4.623  18.714  0.00  0.00    +0.000 OA
ATOM      2  C   UNL     1       6.087   4.866  17.882  0.00  0.00    +0.000 C 
ATOM      3  N   UNL     1       4.848   5.315  18.293  0.00  0.00    +0.000 N 
ATOM      4  C   UNL     1       4.328   5.581  19.615  0.00  0.00    +0.000 C 
ATOM      5  C   UNL     1       2.948   5.778  18.935  0.00  0.00    +0.000 C 
ATOM      6  C   UNL     1       3.727   5.947  17.617  0.00  0.00    +0.000 C 
ENDROOT
BRANCH   2   7
ATOM      7  C   UNL     1       6.242   4.688  16.437  0.00  0.00    +0.000 A 
ATOM      8  N   UNL     1       7.072   5.414  15.720  0.00  0.00    +0.000 NA
ATOM      9  C   UNL     1       7.062   4.996  14.410  0.00  0.00    +0.000 A 
ATOM     10  C   UNL     1       7.871   5.519  13.385  0.00  0.00    +0.000 A 
ATOM     11  C   UNL     1       7.789   4.980  12.100  0.00  0.00    +0.000 A 
ATOM     12  C   UNL     1       6.897   3.946  11.830  0.00  0.00    +0.000 A 
ATOM     13  C   UNL     1       6.071   3.421  12.831  0.00  0.00    +0.000 A 
ATOM     14  C   UNL     1       6.175   3.958  14.124  0.00  0.00    +0.000 A 
ATOM     15  S   UNL     1       5.335   3.527  15.570  0.00  0.00    +0.000 S 
ENDBRANCH   2   7
BRANCH   5  16
ATOM     16  N   UNL     1       2.144   4.581  18.985  0.00  0.00    +0.000 N 
ATOM     17  C   UNL     1       1.806   3.740  17.956  0.00  0.00    +0.000 A 
ATOM     18  C   UNL     1       1.081   2.746  18.564  0.00  0.00    +0.000 A 
ATOM     19  N   UNL     1       0.974   3.011  19.899  0.00  0.00    +0.000 NA
ATOM     20  N   UNL     1       1.617   4.145  20.145  0.00  0.00    +0.000 NA
ENDBRANCH   5  16
TORSDOF 2
ENDMDL
MODEL 2
REMARK VINA RESULT:      -7.2      2.105      6.808
REMARK  Name = 
REMARK  2 active torsions:
REMARK  status: ('A' for Active; 'I' for Inactive)
REMARK    1  A    between atoms: C_2  and  C_3
REMARK    2  A    between atoms: C_14  and  N_15
REMARK                            x       y       z     vdW  Elec       q    Type
REMARK                         _______ _______ _______ _____ _____    ______ ____
ROOT
ATOM      1  O   UNL     1       3.803   7.721  17.731  0.00  0.00    +0.000 OA
ATOM      2  C   UNL     1       4.225   6.575  17.906  0.00  0.00    +0.000 C 
ATOM      3  N   UNL     1       5.483   6.224  17.460  0.00  0.00    +0.000 N 
ATOM      4  C   UNL     1       6.492   6.995  16.770  0.00  0.00    +0.000 C 
ATOM      5  C   UNL     1       7.267   5.662  16.602  0.00  0.00    +0.000 C 
ATOM      6  C   UNL     1       6.376   5.111  17.732  0.00  0.00    +0.000 C 
ENDROOT
BRANCH   2   7
ATOM      7  C   UNL     1       3.465   5.501  18.550  0.00  0.00    +0.000 A 
ATOM      8  N   UNL     1       3.424   5.348  19.856  0.00  0.00    +0.000 NA
ATOM      9  C   UNL     1       2.592   4.305  20.188  0.00  0.00    +0.000 A 
ATOM     10  C   UNL     1       2.278   3.904  21.500  0.00  0.00    +0.000 A 
ATOM     11  C   UNL     1       1.388   2.848  21.702  0.00  0.00    +0.000 A 
ATOM     12  C   UNL     1       0.831   2.183  20.612  0.00  0.00    +0.000 A 
ATOM     13  C   UNL     1       1.142   2.556  19.299  0.00  0.00    +0.000 A 
ATOM     14  C   UNL     1       2.023   3.631  19.107  0.00  0.00    +0.000 A 
ATOM     15  S   UNL     1       2.584   4.351  17.642  0.00  0.00    +0.000 S 
ENDBRANCH   2   7
BRANCH   5  16
ATOM     16  N   UNL     1       7.021   5.050  15.318  0.00  0.00    +0.000 N 
ATOM     17  C   UNL     1       6.133   4.054  15.007  0.00  0.00    +0.000 A 
ATOM     18  C   UNL     1       6.274   3.895  13.651  0.00  0.00    +0.000 A 
ATOM     19  N   UNL     1       7.233   4.749  13.189  0.00  0.00    +0.000 NA
ATOM     20  N   UNL     1       7.695   5.444  14.221  0.00  0.00    +0.000 NA
ENDBRANCH   5  16
TORSDOF 2
ENDMDL
MODEL 3
REMARK VINA RESULT:      -7.0      2.315      6.696
REMARK  Name = 
REMARK  2 active torsions:
REMARK  status: ('A' for Active; 'I' for Inactive)
REMARK    1  A    between atoms: C_2  and  C_3
REMARK    2  A    between atoms: C_14  and  N_15
REMARK                            x       y       z     vdW  Elec       q    Type
REMARK                         _______ _______ _______ _____ _____    ______ ____
ROOT
ATOM      1  O   UNL     1       3.808   8.099  17.413  0.00  0.00    +0.000 OA
ATOM      2  C   UNL     1       4.131   6.938  17.673  0.00  0.00    +0.000 C 
ATOM      3  N   UNL     1       5.394   6.482  17.354  0.00  0.00    +0.000 N 
ATOM      4  C   UNL     1       6.509   7.149  16.722  0.00  0.00    +0.000 C 
ATOM      5  C   UNL     1       7.200   5.761  16.679  0.00  0.00    +0.000 C 
ATOM      6  C   UNL     1       6.181   5.326  17.750  0.00  0.00    +0.000 C 
ENDROOT
BRANCH   2   7
ATOM      7  C   UNL     1       3.246   5.950  18.294  0.00  0.00    +0.000 A 
ATOM      8  N   UNL     1       2.798   4.896  17.646  0.00  0.00    +0.000 NA
ATOM      9  C   UNL     1       2.041   4.109  18.481  0.00  0.00    +0.000 A 
ATOM     10  C   UNL     1       1.456   2.879  18.128  0.00  0.00    +0.000 A 
ATOM     11  C   UNL     1       0.737   2.159  19.084  0.00  0.00    +0.000 A 
ATOM     12  C   UNL     1       0.584   2.665  20.372  0.00  0.00    +0.000 A 
ATOM     13  C   UNL     1       1.144   3.894  20.740  0.00  0.00    +0.000 A 
ATOM     14  C   UNL     1       1.880   4.601  19.777  0.00  0.00    +0.000 A 
ATOM     15  S   UNL     1       2.711   6.109  19.910  0.00  0.00    +0.000 S 
ENDBRANCH   2   7
BRANCH   5  16
ATOM     16  N   UNL     1       7.020   5.105  15.407  0.00  0.00    +0.000 N 
ATOM     17  C   UNL     1       6.178   4.070  15.095  0.00  0.00    +0.000 A 
ATOM     18  C   UNL     1       6.372   3.877  13.750  0.00  0.00    +0.000 A 
ATOM     19  N   UNL     1       7.316   4.752  13.296  0.00  0.00    +0.000 NA
ATOM     20  N   UNL     1       7.718   5.491  14.322  0.00  0.00    +0.000 NA
ENDBRANCH   5  16
TORSDOF 2
ENDMDL
MODEL 4
REMARK VINA RESULT:      -6.9      1.240      1.729
REMARK  Name = 
REMARK  2 active torsions:
REMARK  status: ('A' for Active; 'I' for Inactive)
REMARK    1  A    between atoms: C_2  and  C_3
REMARK    2  A    between atoms: C_14  and  N_15
REMARK                            x       y       z     vdW  Elec       q    Type
REMARK                         _______ _______ _______ _____ _____    ______ ____
ROOT
ATOM      1  O   UNL     1       6.438   4.871  19.338  0.00  0.00    +0.000 OA
ATOM      2  C   UNL     1       5.663   4.996  18.387  0.00  0.00    +0.000 C 
ATOM      3  N   UNL     1       4.335   5.302  18.612  0.00  0.00    +0.000 N 
ATOM      4  C   UNL     1       3.610   5.524  19.842  0.00  0.00    +0.000 C 
ATOM      5  C   UNL     1       2.325   5.546  18.975  0.00  0.00    +0.000 C 
ATOM      6  C   UNL     1       3.254   5.785  17.770  0.00  0.00    +0.000 C 
ENDROOT
BRANCH   2   7
ATOM      7  C   UNL     1       6.036   4.815  16.983  0.00  0.00    +0.000 A 
ATOM      8  N   UNL     1       5.402   3.984  16.184  0.00  0.00    +0.000 NA
ATOM      9  C   UNL     1       5.919   4.057  14.912  0.00  0.00    +0.000 A 
ATOM     10  C   UNL     1       5.438   3.344  13.799  0.00  0.00    +0.000 A 
ATOM     11  C   UNL     1       6.032   3.536  12.550  0.00  0.00    +0.000 A 
ATOM     12  C   UNL     1       7.105   4.413  12.412  0.00  0.00    +0.000 A 
ATOM     13  C   UNL     1       7.609   5.120  13.510  0.00  0.00    +0.000 A 
ATOM     14  C   UNL     1       6.993   4.933  14.757  0.00  0.00    +0.000 A 
ATOM     15  S   UNL     1       7.345   5.662  16.283  0.00  0.00    +0.000 S 
ENDBRANCH   2   7
BRANCH   5  16
ATOM     16  N   UNL     1       1.665   4.263  18.953  0.00  0.00    +0.000 N 
ATOM     17  C   UNL     1       1.276   3.488  20.014  0.00  0.00    +0.000 A 
ATOM     18  C   UNL     1       0.658   2.410  19.431  0.00  0.00    +0.000 A 
ATOM     19  N   UNL     1       0.707   2.537  18.073  0.00  0.00    +0.000 NA
ATOM     20  N   UNL     1       1.339   3.669  17.789  0.00  0.00    +0.000 NA
ENDBRANCH   5  16
TORSDOF 2
ENDMDL
MODEL 5
REMARK VINA RESULT:      -6.4      3.321      7.222
REMARK  Name = 
REMARK  2 active torsions:
REMARK  status: ('A' for Active; 'I' for Inactive)
REMARK    1  A    between atoms: C_2  and  C_3
REMARK    2  A    between atoms: C_14  and  N_15
REMARK                            x       y       z     vdW  Elec       q    Type
REMARK                         _______ _______ _______ _____ _____    ______ ____
ROOT
ATOM      1  O   UNL     1       2.247   4.153  17.704  0.00  0.00    +0.000 OA
ATOM      2  C   UNL     1       2.847   5.229  17.780  0.00  0.00    +0.000 C 
ATOM      3  N   UNL     1       4.027   5.414  17.089  0.00  0.00    +0.000 N 
ATOM      4  C   UNL     1       4.764   4.526  16.220  0.00  0.00    +0.000 C 
ATOM      5  C   UNL     1       5.886   5.597  16.227  0.00  0.00    +0.000 C 
ATOM      6  C   UNL     1       4.814   6.582  16.730  0.00  0.00    +0.000 C 
ENDROOT
BRANCH   2   7
ATOM      7  C   UNL     1       2.411   6.364  18.595  0.00  0.00    +0.000 A 
ATOM      8  N   UNL     1       2.157   7.548  18.080  0.00  0.00    +0.000 NA
ATOM      9  C   UNL     1       1.710   8.407  19.057  0.00  0.00    +0.000 A 
ATOM     10  C   UNL     1       1.297   9.734  18.843  0.00  0.00    +0.000 A 
ATOM     11  C   UNL     1       0.829  10.492  19.918  0.00  0.00    +0.000 A 
ATOM     12  C   UNL     1       0.791   9.943  21.197  0.00  0.00    +0.000 A 
ATOM     13  C   UNL     1       1.212   8.630  21.435  0.00  0.00    +0.000 A 
ATOM     14  C   UNL     1       1.663   7.871  20.344  0.00  0.00    +0.000 A 
ATOM     15  S   UNL     1       2.218   6.236  20.289  0.00  0.00    +0.000 S 
ENDBRANCH   2   7
BRANCH   5  16
ATOM     16  N   UNL     1       6.909   5.304  17.202  0.00  0.00    +0.000 N 
ATOM     17  C   UNL     1       7.150   5.933  18.395  0.00  0.00    +0.000 A 
ATOM     18  C   UNL     1       8.193   5.225  18.939  0.00  0.00    +0.000 A 
ATOM     19  N   UNL     1       8.568   4.234  18.079  0.00  0.00    +0.000 NA
ATOM     20  N   UNL     1       7.784   4.299  17.011  0.00  0.00    +0.000 NA
ENDBRANCH   5  16
TORSDOF 2
ENDMDL
MODEL 6
REMARK VINA RESULT:      -6.3      2.729      6.731
REMARK  Name = 
REMARK  2 active torsions:
REMARK  status: ('A' for Active; 'I' for Inactive)
REMARK    1  A    between atoms: C_2  and  C_3
REMARK    2  A    between atoms: C_14  and  N_15
REMARK                            x       y       z     vdW  Elec       q    Type
REMARK                         _______ _______ _______ _____ _____    ______ ____
ROOT
ATOM      1  O   UNL     1       5.419   2.893  15.873  0.00  0.00    +0.000 OA
ATOM      2  C   UNL     1       4.893   3.750  16.587  0.00  0.00    +0.000 C 
ATOM      3  N   UNL     1       5.205   5.083  16.413  0.00  0.00    +0.000 N 
ATOM      4  C   UNL     1       6.100   5.732  15.483  0.00  0.00    +0.000 C 
ATOM      5  C   UNL     1       5.841   7.036  16.282  0.00  0.00    +0.000 C 
ATOM      6  C   UNL     1       4.596   6.328  16.850  0.00  0.00    +0.000 C 
ENDROOT
BRANCH   2   7
ATOM      7  C   UNL     1       3.946   3.463  17.666  0.00  0.00    +0.000 A 
ATOM      8  N   UNL     1       4.335   3.135  18.880  0.00  0.00    +0.000 NA
ATOM      9  C   UNL     1       3.246   2.981  19.705  0.00  0.00    +0.000 A 
ATOM     10  C   UNL     1       3.304   2.685  21.079  0.00  0.00    +0.000 A 
ATOM     11  C   UNL     1       2.120   2.589  21.813  0.00  0.00    +0.000 A 
ATOM     12  C   UNL     1       0.891   2.765  21.185  0.00  0.00    +0.000 A 
ATOM     13  C   UNL     1       0.809   3.044  19.816  0.00  0.00    +0.000 A 
ATOM     14  C   UNL     1       2.006   3.157  19.090  0.00  0.00    +0.000 A 
ATOM     15  S   UNL     1       2.255   3.515  17.420  0.00  0.00    +0.000 S 
ENDBRANCH   2   7
BRANCH   5  16
ATOM     16  N   UNL     1       6.868   7.283  17.264  0.00  0.00    +0.000 N 
ATOM     17  C   UNL     1       7.380   6.418  18.195  0.00  0.00    +0.000 A 
ATOM     18  C   UNL     1       8.355   7.148  18.827  0.00  0.00    +0.000 A 
ATOM     19  N   UNL     1       8.394   8.407  18.303  0.00  0.00    +0.000 NA
ATOM     20  N   UNL     1       7.468   8.485  17.355  0.00  0.00    +0.000 NA
ENDBRANCH   5  16
TORSDOF 2
ENDMDL
MODEL 7
REMARK VINA RESULT:      -6.3      2.142      6.571
REMARK  Name = 
REMARK  2 active torsions:
REMARK  status: ('A' for Active; 'I' for Inactive)
REMARK    1  A    between atoms: C_2  and  C_3
REMARK    2  A    between atoms: C_14  and  N_15
REMARK                            x       y       z     vdW  Elec       q    Type
REMARK                         _______ _______ _______ _____ _____    ______ ____
ROOT
ATOM      1  O   UNL     1       4.707   7.811  17.486  0.00  0.00    +0.000 OA
ATOM      2  C   UNL     1       4.765   6.580  17.540  0.00  0.00    +0.000 C 
ATOM      3  N   UNL     1       5.862   5.915  17.032  0.00  0.00    +0.000 N 
ATOM      4  C   UNL     1       7.060   6.414  16.395  0.00  0.00    +0.000 C 
ATOM      5  C   UNL     1       7.401   4.934  16.081  0.00  0.00    +0.000 C 
ATOM      6  C   UNL     1       6.380   4.565  17.174  0.00  0.00    +0.000 C 
ENDROOT
BRANCH   2   7
ATOM      7  C   UNL     1       3.715   5.725  18.096  0.00  0.00    +0.000 A 
ATOM      8  N   UNL     1       3.329   4.609  17.515  0.00  0.00    +0.000 NA
ATOM      9  C   UNL     1       2.377   3.977  18.279  0.00  0.00    +0.000 A 
ATOM     10  C   UNL     1       1.789   2.734  17.979  0.00  0.00    +0.000 A 
ATOM     11  C   UNL     1       0.857   2.183  18.860  0.00  0.00    +0.000 A 
ATOM     12  C   UNL     1       0.496   2.869  20.016  0.00  0.00    +0.000 A 
ATOM     13  C   UNL     1       1.056   4.114  20.326  0.00  0.00    +0.000 A 
ATOM     14  C   UNL     1       2.006   4.650  19.443  0.00  0.00    +0.000 A 
ATOM     15  S   UNL     1       2.895   6.127  19.542  0.00  0.00    +0.000 S 
ENDBRANCH   2   7
BRANCH   5  16
ATOM     16  N   UNL     1       6.991   4.553  14.751  0.00  0.00    +0.000 N 
ATOM     17  C   UNL     1       7.528   4.942  13.552  0.00  0.00    +0.000 A 
ATOM     18  C   UNL     1       6.796   4.250  12.620  0.00  0.00    +0.000 A 
ATOM     19  N   UNL     1       5.844   3.503  13.251  0.00  0.00    +0.000 NA
ATOM     20  N   UNL     1       5.962   3.706  14.557  0.00  0.00    +0.000 NA
ENDBRANCH   5  16
TORSDOF 2
ENDMDL
MODEL 8
REMARK VINA RESULT:      -6.1      4.049      7.436
REMARK  Name = 
REMARK  2 active torsions:
REMARK  status: ('A' for Active; 'I' for Inactive)
REMARK    1  A    between atoms: C_2  and  C_3
REMARK    2  A    between atoms: C_14  and  N_15
REMARK                            x       y       z     vdW  Elec       q    Type
REMARK                         _______ _______ _______ _____ _____    ______ ____
ROOT
ATOM      1  O   UNL     1       1.841   5.076  20.894  0.00  0.00    +0.000 OA
ATOM      2  C   UNL     1       2.258   5.899  20.075  0.00  0.00    +0.000 C 
ATOM      3  N   UNL     1       3.186   5.521  19.126  0.00  0.00    +0.000 N 
ATOM      4  C   UNL     1       3.821   4.248  18.876  0.00  0.00    +0.000 C 
ATOM      5  C   UNL     1       4.722   4.997  17.860  0.00  0.00    +0.000 C 
ATOM      6  C   UNL     1       3.660   6.113  17.886  0.00  0.00    +0.000 C 
ENDROOT
BRANCH   2   7
ATOM      7  C   UNL     1       1.858   7.307  20.038  0.00  0.00    +0.000 A 
ATOM      8  N   UNL     1       2.057   8.070  18.985  0.00  0.00    +0.000 NA
ATOM      9  C   UNL     1       1.532   9.323  19.199  0.00  0.00    +0.000 A 
ATOM     10  C   UNL     1       1.522  10.370  18.259  0.00  0.00    +0.000 A 
ATOM     11  C   UNL     1       0.924  11.587  18.591  0.00  0.00    +0.000 A 
ATOM     12  C   UNL     1       0.359  11.769  19.850  0.00  0.00    +0.000 A 
ATOM     13  C   UNL     1       0.372  10.747  20.806  0.00  0.00    +0.000 A 
ATOM     14  C   UNL     1       0.960   9.521  20.456  0.00  0.00    +0.000 A 
ATOM     15  S   UNL     1       1.116   8.068  21.376  0.00  0.00    +0.000 S 
ENDBRANCH   2   7
BRANCH   5  16
ATOM     16  N   UNL     1       5.986   5.384  18.438  0.00  0.00    +0.000 N 
ATOM     17  C   UNL     1       6.931   6.233  17.924  0.00  0.00    +0.000 A 
ATOM     18  C   UNL     1       7.898   6.281  18.898  0.00  0.00    +0.000 A 
ATOM     19  N   UNL     1       7.543   5.467  19.933  0.00  0.00    +0.000 NA
ATOM     20  N   UNL     1       6.376   4.909  19.636  0.00  0.00    +0.000 NA
ENDBRANCH   5  16
TORSDOF 2
ENDMDL
MODEL 9
REMARK VINA RESULT:      -6.1      3.444      7.073
REMARK  Name = 
REMARK  2 active torsions:
REMARK  status: ('A' for Active; 'I' for Inactive)
REMARK    1  A    between atoms: C_2  and  C_3
REMARK    2  A    between atoms: C_14  and  N_15
REMARK                            x       y       z     vdW  Elec       q    Type
REMARK                         _______ _______ _______ _____ _____    ______ ____
ROOT
ATOM      1  O   UNL     1       2.455   4.778  21.306  0.00  0.00    +0.000 OA
ATOM      2  C   UNL     1       2.538   5.297  20.190  0.00  0.00    +0.000 C 
ATOM      3  N   UNL     1       3.072   4.588  19.133  0.00  0.00    +0.000 N 
ATOM      4  C   UNL     1       3.598   3.243  19.065  0.00  0.00    +0.000 C 
ATOM      5  C   UNL     1       4.063   3.594  17.628  0.00  0.00    +0.000 C 
ATOM      6  C   UNL     1       3.062   4.764  17.691  0.00  0.00    +0.000 C 
ENDROOT
BRANCH   2   7
ATOM      7  C   UNL     1       2.127   6.668  19.882  0.00  0.00    +0.000 A 
ATOM      8  N   UNL     1       1.442   7.408  20.727  0.00  0.00    +0.000 NA
ATOM      9  C   UNL     1       1.246   8.667  20.208  0.00  0.00    +0.000 A 
ATOM     10  C   UNL     1       0.599   9.726  20.871  0.00  0.00    +0.000 A 
ATOM     11  C   UNL     1       0.496  10.969  20.245  0.00  0.00    +0.000 A 
ATOM     12  C   UNL     1       1.012  11.153  18.965  0.00  0.00    +0.000 A 
ATOM     13  C   UNL     1       1.644  10.109  18.281  0.00  0.00    +0.000 A 
ATOM     14  C   UNL     1       1.759   8.868  18.927  0.00  0.00    +0.000 A 
ATOM     15  S   UNL     1       2.495   7.404  18.383  0.00  0.00    +0.000 S 
ENDBRANCH   2   7
BRANCH   5  16
ATOM     16  N   UNL     1       5.443   4.012  17.591  0.00  0.00    +0.000 N 
ATOM     17  C   UNL     1       6.227   4.265  16.496  0.00  0.00    +0.000 A 
ATOM     18  C   UNL     1       7.423   4.674  17.030  0.00  0.00    +0.000 A 
ATOM     19  N   UNL     1       7.351   4.635  18.392  0.00  0.00    +0.000 NA
ATOM     20  N   UNL     1       6.138   4.214  18.727  0.00  0.00    +0.000 NA
ENDBRANCH   5  16
TORSDOF 2
ENDMDL
