MODEL 1
REMARK VINA RESULT:      -8.3      0.000      0.000
REMARK  Name = 
REMARK  11 active torsions:
REMARK  status: ('A' for Active; 'I' for Inactive)
REMARK    1  A    between atoms: CB_1  and  CA_2
REMARK    2  A    between atoms: CA_2  and  N_3
REMARK    3  A    between atoms: CA_2  and  C_25
REMARK    4  A    between atoms: C_4  and  CA_6
REMARK    5  A    between atoms: CA_6  and  CB_7
REMARK    6  A    between atoms: CA_6  and  N_14
REMARK    7  A    between atoms: CB_7  and  CG_8
REMARK    8  A    between atoms: C_15  and  O_17
REMARK    9  A    between atoms: O_17  and  C_18
REMARK   10  A    between atoms: C_18  and  C_19
REMARK   11  A    between atoms: C_25  and  OXT_27
REMARK                            x       y       z     vdW  Elec       q    Type
REMARK                         _______ _______ _______ _____ _____    ______ ____
ROOT
ATOM      1  CA  PHE A   1       5.934   6.342  16.852  0.00  0.00    +0.000 C 
ENDROOT
BRANCH   1   3
ATOM      2  N   PHE A   1       6.438   5.364  14.605  0.00  0.00    +0.000 N 
ATOM      3  C   PHE A   1       6.745   5.361  15.951  0.00  0.00    +0.000 C 
ATOM      4  O   PHE A   1       7.588   4.576  16.388  0.00  0.00    +0.000 OA
ATOM      5  H   PHE A   1       5.725   5.994  14.259  0.00  0.00    +0.000 HD
BRANCH   2   7
ATOM      6  CB  PHE A   1       7.963   5.311  12.671  0.00  0.00    +0.000 C 
ATOM      7  CA  PHE A   1       7.104   4.484  13.628  0.00  0.00    +0.000 C 
BRANCH   7   8
ATOM      8  C   PHE A   1       6.106   3.612  12.824  0.00  0.00    +0.000 C 
ATOM      9  O   PHE A   1       4.888   3.753  12.847  0.00  0.00    +0.000 OA
BRANCH   8  10
ATOM     10  OXT PHE A   1       6.710   2.699  12.040  0.00  0.00    +0.000 OA
ATOM     11  HXT PHE A   1       6.768   1.801  12.456  0.00  0.00    +0.000 HD
ENDBRANCH   8  10
ENDBRANCH   7   8
ENDBRANCH   2   7
ENDBRANCH   1   3
BRANCH   1  12
ATOM     12  N   PHE A   1       6.669   7.600  17.007  0.00  0.00    +0.000 N 
ATOM     13  C   UNK A   0       7.751   7.755  17.824  0.00  0.00    +0.000 C 
ATOM     14  O   UNK A   0       8.127   6.922  18.637  0.00  0.00    +0.000 OA
ATOM     15  H   PHE A   1       6.435   8.374  16.394  0.00  0.00    +0.000 HD
BRANCH  13  16
ATOM     16  O   UNK A   0       8.334   8.959  17.599  0.00  0.00    +0.000 OA
BRANCH  16  17
ATOM     17  C   UNK A   0       8.853   9.631  18.757  0.00  0.00    +0.000 C 
BRANCH  17  18
ATOM     18  C   UNK A   0       9.512  10.964  18.474  0.00  0.00    +0.000 A 
ATOM     19  C   UNK A   0       8.797  12.014  17.874  0.00  0.00    +0.000 A 
ATOM     20  C   UNK A   0       9.382  13.275  17.710  0.00  0.00    +0.000 A 
ATOM     21  C   UNK A   0      10.689  13.501  18.135  0.00  0.00    +0.000 A 
ATOM     22  C   UNK A   0      11.412  12.467  18.724  0.00  0.00    +0.000 A 
ATOM     23  C   UNK A   0      10.831  11.206  18.887  0.00  0.00    +0.000 A 
ENDBRANCH  17  18
ENDBRANCH  16  17
ENDBRANCH  13  16
ENDBRANCH   1  12
BRANCH   1  24
ATOM     24  CB  PHE A   1       5.573   5.696  18.214  0.00  0.00    +0.000 C 
BRANCH  24  25
ATOM     25  CG  PHE A   1       4.294   4.890  18.166  0.00  0.00    +0.000 A 
ATOM     26  CD1 PHE A   1       4.338   3.491  18.102  0.00  0.00    +0.000 A 
ATOM     27  CE1 PHE A   1       3.174   2.756  17.875  0.00  0.00    +0.000 A 
ATOM     28  CZ  PHE A   1       1.955   3.412  17.718  0.00  0.00    +0.000 A 
ATOM     29  CE2 PHE A   1       1.892   4.798  17.844  0.00  0.00    +0.000 A 
ATOM     30  CD2 PHE A   1       3.052   5.531  18.088  0.00  0.00    +0.000 A 
ENDBRANCH  24  25
ENDBRANCH   1  24
TORSDOF 10
ENDMDL
MODEL 2
REMARK VINA RESULT:      -8.3      0.768      1.303
REMARK  Name = 
REMARK  11 active torsions:
REMARK  status: ('A' for Active; 'I' for Inactive)
REMARK    1  A    between atoms: CB_1  and  CA_2
REMARK    2  A    between atoms: CA_2  and  N_3
REMARK    3  A    between atoms: CA_2  and  C_25
REMARK    4  A    between atoms: C_4  and  CA_6
REMARK    5  A    between atoms: CA_6  and  CB_7
REMARK    6  A    between atoms: CA_6  and  N_14
REMARK    7  A    between atoms: CB_7  and  CG_8
REMARK    8  A    between atoms: C_15  and  O_17
REMARK    9  A    between atoms: O_17  and  C_18
REMARK   10  A    between atoms: C_18  and  C_19
REMARK   11  A    between atoms: C_25  and  OXT_27
REMARK                            x       y       z     vdW  Elec       q    Type
REMARK                         _______ _______ _______ _____ _____    ______ ____
ROOT
ATOM      1  CA  PHE A   1       5.968   6.387  16.842  0.00  0.00    +0.000 C 
ENDROOT
BRANCH   1   3
ATOM      2  N   PHE A   1       6.468   5.404  14.596  0.00  0.00    +0.000 N 
ATOM      3  C   PHE A   1       6.726   5.356  15.951  0.00  0.00    +0.000 C 
ATOM      4  O   PHE A   1       7.485   4.496  16.403  0.00  0.00    +0.000 OA
ATOM      5  H   PHE A   1       5.822   6.096  14.237  0.00  0.00    +0.000 HD
BRANCH   2   7
ATOM      6  CB  PHE A   1       7.929   5.271  12.617  0.00  0.00    +0.000 C 
ATOM      7  CA  PHE A   1       7.092   4.485  13.626  0.00  0.00    +0.000 C 
BRANCH   7   8
ATOM      8  C   PHE A   1       6.060   3.601  12.882  0.00  0.00    +0.000 C 
ATOM      9  O   PHE A   1       4.848   3.782  12.906  0.00  0.00    +0.000 OA
BRANCH   8  10
ATOM     10  OXT PHE A   1       6.627   2.624  12.149  0.00  0.00    +0.000 OA
ATOM     11  HXT PHE A   1       6.178   1.747  12.248  0.00  0.00    +0.000 HD
ENDBRANCH   8  10
ENDBRANCH   7   8
ENDBRANCH   2   7
ENDBRANCH   1   3
BRANCH   1  12
ATOM     12  N   PHE A   1       6.756   7.616  16.960  0.00  0.00    +0.000 N 
ATOM     13  C   UNK A   0       7.831   7.755  17.788  0.00  0.00    +0.000 C 
ATOM     14  O   UNK A   0       8.157   6.940  18.639  0.00  0.00    +0.000 OA
ATOM     15  H   PHE A   1       6.565   8.375  16.314  0.00  0.00    +0.000 HD
BRANCH  13  16
ATOM     16  O   UNK A   0       8.470   8.924  17.528  0.00  0.00    +0.000 OA
BRANCH  16  17
ATOM     17  C   UNK A   0       8.265   9.978  18.481  0.00  0.00    +0.000 C 
BRANCH  17  18
ATOM     18  C   UNK A   0       9.516  10.735  18.868  0.00  0.00    +0.000 A 
ATOM     19  C   UNK A   0      10.421  11.188  17.893  0.00  0.00    +0.000 A 
ATOM     20  C   UNK A   0      11.522  11.976  18.250  0.00  0.00    +0.000 A 
ATOM     21  C   UNK A   0      11.737  12.314  19.584  0.00  0.00    +0.000 A 
ATOM     22  C   UNK A   0      10.854  11.865  20.562  0.00  0.00    +0.000 A 
ATOM     23  C   UNK A   0       9.754  11.076  20.208  0.00  0.00    +0.000 A 
ENDBRANCH  17  18
ENDBRANCH  16  17
ENDBRANCH  13  16
ENDBRANCH   1  12
BRANCH   1  24
ATOM     24  CB  PHE A   1       5.599   5.785  18.221  0.00  0.00    +0.000 C 
BRANCH  24  25
ATOM     25  CG  PHE A   1       4.388   4.880  18.167  0.00  0.00    +0.000 A 
ATOM     26  CD1 PHE A   1       3.145   5.380  17.759  0.00  0.00    +0.000 A 
ATOM     27  CE1 PHE A   1       1.994   4.602  17.880  0.00  0.00    +0.000 A 
ATOM     28  CZ  PHE A   1       2.076   3.314  18.404  0.00  0.00    +0.000 A 
ATOM     29  CE2 PHE A   1       3.316   2.785  18.754  0.00  0.00    +0.000 A 
ATOM     30  CD2 PHE A   1       4.469   3.556  18.616  0.00  0.00    +0.000 A 
ENDBRANCH  24  25
ENDBRANCH   1  24
TORSDOF 10
ENDMDL
MODEL 3
REMARK VINA RESULT:      -8.2      2.292      4.538
REMARK  Name = 
REMARK  11 active torsions:
REMARK  status: ('A' for Active; 'I' for Inactive)
REMARK    1  A    between atoms: CB_1  and  CA_2
REMARK    2  A    between atoms: CA_2  and  N_3
REMARK    3  A    between atoms: CA_2  and  C_25
REMARK    4  A    between atoms: C_4  and  CA_6
REMARK    5  A    between atoms: CA_6  and  CB_7
REMARK    6  A    between atoms: CA_6  and  N_14
REMARK    7  A    between atoms: CB_7  and  CG_8
REMARK    8  A    between atoms: C_15  and  O_17
REMARK    9  A    between atoms: O_17  and  C_18
REMARK   10  A    between atoms: C_18  and  C_19
REMARK   11  A    between atoms: C_25  and  OXT_27
REMARK                            x       y       z     vdW  Elec       q    Type
REMARK                         _______ _______ _______ _____ _____    ______ ____
ROOT
ATOM      1  CA  PHE A   1       6.048   5.530  16.983  0.00  0.00    +0.000 C 
ENDROOT
BRANCH   1   3
ATOM      2  N   PHE A   1       4.770   3.742  18.178  0.00  0.00    +0.000 N 
ATOM      3  C   PHE A   1       4.919   5.097  17.968  0.00  0.00    +0.000 C 
ATOM      4  O   PHE A   1       4.149   5.893  18.509  0.00  0.00    +0.000 OA
ATOM      5  H   PHE A   1       5.391   3.094  17.708  0.00  0.00    +0.000 HD
BRANCH   2   7
ATOM      6  CB  PHE A   1       4.368   2.176  20.038  0.00  0.00    +0.000 C 
ATOM      7  CA  PHE A   1       3.739   3.175  19.067  0.00  0.00    +0.000 C 
BRANCH   7   8
ATOM      8  C   PHE A   1       2.580   2.500  18.290  0.00  0.00    +0.000 C 
ATOM      9  O   PHE A   1       1.883   3.066  17.455  0.00  0.00    +0.000 OA
BRANCH   8  10
ATOM     10  OXT PHE A   1       2.435   1.193  18.583  0.00  0.00    +0.000 OA
ATOM     11  HXT PHE A   1       2.241   0.632  17.790  0.00  0.00    +0.000 HD
ENDBRANCH   8  10
ENDBRANCH   7   8
ENDBRANCH   2   7
ENDBRANCH   1   3
BRANCH   1  12
ATOM     12  N   PHE A   1       6.845   6.604  17.581  0.00  0.00    +0.000 N 
ATOM     13  C   UNK A   0       7.795   6.405  18.540  0.00  0.00    +0.000 C 
ATOM     14  O   UNK A   0       7.974   5.347  19.125  0.00  0.00    +0.000 OA
ATOM     15  H   PHE A   1       6.770   7.537  17.187  0.00  0.00    +0.000 HD
BRANCH  13  16
ATOM     16  O   UNK A   0       8.497   7.549  18.742  0.00  0.00    +0.000 OA
BRANCH  16  17
ATOM     17  C   UNK A   0       8.089   8.683  17.962  0.00  0.00    +0.000 C 
BRANCH  17  18
ATOM     18  C   UNK A   0       8.709   9.997  18.381  0.00  0.00    +0.000 A 
ATOM     19  C   UNK A   0       8.513  11.166  17.626  0.00  0.00    +0.000 A 
ATOM     20  C   UNK A   0       9.004  12.398  18.075  0.00  0.00    +0.000 A 
ATOM     21  C   UNK A   0       9.702  12.477  19.278  0.00  0.00    +0.000 A 
ATOM     22  C   UNK A   0       9.911  11.326  20.032  0.00  0.00    +0.000 A 
ATOM     23  C   UNK A   0       9.423  10.093  19.585  0.00  0.00    +0.000 A 
ENDBRANCH  17  18
ENDBRANCH  16  17
ENDBRANCH  13  16
ENDBRANCH   1  12
BRANCH   1  24
ATOM     24  CB  PHE A   1       5.476   5.919  15.596  0.00  0.00    +0.000 C 
BRANCH  24  25
ATOM     25  CG  PHE A   1       6.031   5.076  14.470  0.00  0.00    +0.000 A 
ATOM     26  CD1 PHE A   1       7.277   5.378  13.904  0.00  0.00    +0.000 A 
ATOM     27  CE1 PHE A   1       7.710   4.721  12.752  0.00  0.00    +0.000 A 
ATOM     28  CZ  PHE A   1       6.904   3.752  12.159  0.00  0.00    +0.000 A 
ATOM     29  CE2 PHE A   1       5.692   3.400  12.749  0.00  0.00    +0.000 A 
ATOM     30  CD2 PHE A   1       5.268   4.043  13.911  0.00  0.00    +0.000 A 
ENDBRANCH  24  25
ENDBRANCH   1  24
TORSDOF 10
ENDMDL
MODEL 4
REMARK VINA RESULT:      -8.1      2.282      5.008
REMARK  Name = 
REMARK  11 active torsions:
REMARK  status: ('A' for Active; 'I' for Inactive)
REMARK    1  A    between atoms: CB_1  and  CA_2
REMARK    2  A    between atoms: CA_2  and  N_3
REMARK    3  A    between atoms: CA_2  and  C_25
REMARK    4  A    between atoms: C_4  and  CA_6
REMARK    5  A    between atoms: CA_6  and  CB_7
REMARK    6  A    between atoms: CA_6  and  N_14
REMARK    7  A    between atoms: CB_7  and  CG_8
REMARK    8  A    between atoms: C_15  and  O_17
REMARK    9  A    between atoms: O_17  and  C_18
REMARK   10  A    between atoms: C_18  and  C_19
REMARK   11  A    between atoms: C_25  and  OXT_27
REMARK                            x       y       z     vdW  Elec       q    Type
REMARK                         _______ _______ _______ _____ _____    ______ ____
ROOT
ATOM      1  CA  PHE A   1       6.176   5.164  17.059  0.00  0.00    +0.000 C 
ENDROOT
BRANCH   1   3
ATOM      2  N   PHE A   1       3.849   4.844  17.922  0.00  0.00    +0.000 N 
ATOM      3  C   PHE A   1       5.179   4.500  18.058  0.00  0.00    +0.000 C 
ATOM      4  O   PHE A   1       5.530   3.743  18.966  0.00  0.00    +0.000 OA
ATOM      5  H   PHE A   1       3.574   5.488  17.191  0.00  0.00    +0.000 HD
BRANCH   2   7
ATOM      6  CB  PHE A   1       1.481   4.173  18.023  0.00  0.00    +0.000 C 
ATOM      7  CA  PHE A   1       2.789   4.315  18.800  0.00  0.00    +0.000 C 
BRANCH   7   8
ATOM      8  C   PHE A   1       2.563   5.185  20.063  0.00  0.00    +0.000 C 
ATOM      9  O   PHE A   1       2.172   4.753  21.141  0.00  0.00    +0.000 OA
BRANCH   8  10
ATOM     10  OXT PHE A   1       2.889   6.479  19.881  0.00  0.00    +0.000 OA
ATOM     11  HXT PHE A   1       2.111   7.054  19.666  0.00  0.00    +0.000 HD
ENDBRANCH   8  10
ENDBRANCH   7   8
ENDBRANCH   2   7
ENDBRANCH   1   3
BRANCH   1  12
ATOM     12  N   PHE A   1       6.840   6.301  17.701  0.00  0.00    +0.000 N 
ATOM     13  C   UNK A   0       7.883   6.182  18.573  0.00  0.00    +0.000 C 
ATOM     14  O   UNK A   0       8.272   5.123  19.043  0.00  0.00    +0.000 OA
ATOM     15  H   PHE A   1       6.589   7.238  17.402  0.00  0.00    +0.000 HD
BRANCH  13  16
ATOM     16  O   UNK A   0       8.411   7.404  18.835  0.00  0.00    +0.000 OA
BRANCH  16  17
ATOM     17  C   UNK A   0       8.033   8.458  17.935  0.00  0.00    +0.000 C 
BRANCH  17  18
ATOM     18  C   UNK A   0       8.545   9.830  18.315  0.00  0.00    +0.000 A 
ATOM     19  C   UNK A   0       9.409  10.005  19.409  0.00  0.00    +0.000 A 
ATOM     20  C   UNK A   0       9.959  11.261  19.691  0.00  0.00    +0.000 A 
ATOM     21  C   UNK A   0       9.650  12.357  18.890  0.00  0.00    +0.000 A 
ATOM     22  C   UNK A   0       8.789  12.200  17.807  0.00  0.00    +0.000 A 
ATOM     23  C   UNK A   0       8.235  10.947  17.524  0.00  0.00    +0.000 A 
ENDBRANCH  17  18
ENDBRANCH  16  17
ENDBRANCH  13  16
ENDBRANCH   1  12
BRANCH   1  24
ATOM     24  CB  PHE A   1       5.476   5.558  15.734  0.00  0.00    +0.000 C 
BRANCH  24  25
ATOM     25  CG  PHE A   1       6.101   4.909  14.520  0.00  0.00    +0.000 A 
ATOM     26  CD1 PHE A   1       7.326   5.370  14.019  0.00  0.00    +0.000 A 
ATOM     27  CE1 PHE A   1       7.815   4.899  12.800  0.00  0.00    +0.000 A 
ATOM     28  CZ  PHE A   1       7.089   3.959  12.074  0.00  0.00    +0.000 A 
ATOM     29  CE2 PHE A   1       5.902   3.447  12.594  0.00  0.00    +0.000 A 
ATOM     30  CD2 PHE A   1       5.421   3.904  13.821  0.00  0.00    +0.000 A 
ENDBRANCH  24  25
ENDBRANCH   1  24
TORSDOF 10
ENDMDL
MODEL 5
REMARK VINA RESULT:      -8.1      4.469      7.059
REMARK  Name = 
REMARK  11 active torsions:
REMARK  status: ('A' for Active; 'I' for Inactive)
REMARK    1  A    between atoms: CB_1  and  CA_2
REMARK    2  A    between atoms: CA_2  and  N_3
REMARK    3  A    between atoms: CA_2  and  C_25
REMARK    4  A    between atoms: C_4  and  CA_6
REMARK    5  A    between atoms: CA_6  and  CB_7
REMARK    6  A    between atoms: CA_6  and  N_14
REMARK    7  A    between atoms: CB_7  and  CG_8
REMARK    8  A    between atoms: C_15  and  O_17
REMARK    9  A    between atoms: O_17  and  C_18
REMARK   10  A    between atoms: C_18  and  C_19
REMARK   11  A    between atoms: C_25  and  OXT_27
REMARK                            x       y       z     vdW  Elec       q    Type
REMARK                         _______ _______ _______ _____ _____    ______ ____
ROOT
ATOM      1  CA  PHE A   1       2.712   6.288  18.049  0.00  0.00    +0.000 C 
ENDROOT
BRANCH   1   3
ATOM      2  N   PHE A   1       2.821   4.303  19.568  0.00  0.00    +0.000 N 
ATOM      3  C   PHE A   1       2.608   4.750  18.279  0.00  0.00    +0.000 C 
ATOM      4  O   PHE A   1       2.399   3.940  17.374  0.00  0.00    +0.000 OA
ATOM      5  H   PHE A   1       3.019   4.974  20.300  0.00  0.00    +0.000 HD
BRANCH   2   7
ATOM      6  CB  PHE A   1       2.441   2.732  21.427  0.00  0.00    +0.000 C 
ATOM      7  CA  PHE A   1       2.774   2.878  19.942  0.00  0.00    +0.000 C 
BRANCH   7   8
ATOM      8  C   PHE A   1       4.091   2.127  19.620  0.00  0.00    +0.000 C 
ATOM      9  O   PHE A   1       5.026   2.001  20.402  0.00  0.00    +0.000 OA
BRANCH   8  10
ATOM     10  OXT PHE A   1       4.098   1.570  18.393  0.00  0.00    +0.000 OA
ATOM     11  HXT PHE A   1       3.972   0.587  18.408  0.00  0.00    +0.000 HD
ENDBRANCH   8  10
ENDBRANCH   7   8
ENDBRANCH   2   7
ENDBRANCH   1   3
BRANCH   1  12
ATOM     12  N   PHE A   1       3.867   6.588  17.198  0.00  0.00    +0.000 N 
ATOM     13  C   UNK A   0       5.130   6.134  17.442  0.00  0.00    +0.000 C 
ATOM     14  O   UNK A   0       5.476   5.572  18.472  0.00  0.00    +0.000 OA
ATOM     15  H   PHE A   1       3.707   7.067  16.318  0.00  0.00    +0.000 HD
BRANCH  13  16
ATOM     16  O   UNK A   0       5.933   6.402  16.381  0.00  0.00    +0.000 OA
BRANCH  16  17
ATOM     17  C   UNK A   0       6.938   5.419  16.090  0.00  0.00    +0.000 C 
BRANCH  17  18
ATOM     18  C   UNK A   0       6.876   4.843  14.692  0.00  0.00    +0.000 A 
ATOM     19  C   UNK A   0       5.885   3.914  14.333  0.00  0.00    +0.000 A 
ATOM     20  C   UNK A   0       5.771   3.465  13.012  0.00  0.00    +0.000 A 
ATOM     21  C   UNK A   0       6.648   3.931  12.036  0.00  0.00    +0.000 A 
ATOM     22  C   UNK A   0       7.641   4.845  12.379  0.00  0.00    +0.000 A 
ATOM     23  C   UNK A   0       7.758   5.295  13.698  0.00  0.00    +0.000 A 
ENDBRANCH  17  18
ENDBRANCH  16  17
ENDBRANCH  13  16
ENDBRANCH   1  12
BRANCH   1  24
ATOM     24  CB  PHE A   1       2.747   7.064  19.389  0.00  0.00    +0.000 C 
BRANCH  24  25
ATOM     25  CG  PHE A   1       1.811   8.252  19.411  0.00  0.00    +0.000 A 
ATOM     26  CD1 PHE A   1       1.156   8.619  20.594  0.00  0.00    +0.000 A 
ATOM     27  CE1 PHE A   1       0.159   9.594  20.578  0.00  0.00    +0.000 A 
ATOM     28  CZ  PHE A   1      -0.189  10.216  19.381  0.00  0.00    +0.000 A 
ATOM     29  CE2 PHE A   1       0.500   9.903  18.211  0.00  0.00    +0.000 A 
ATOM     30  CD2 PHE A   1       1.509   8.941  18.230  0.00  0.00    +0.000 A 
ENDBRANCH  24  25
ENDBRANCH   1  24
TORSDOF 10
ENDMDL
MODEL 6
REMARK VINA RESULT:      -8.1      4.440      6.939
REMARK  Name = 
REMARK  11 active torsions:
REMARK  status: ('A' for Active; 'I' for Inactive)
REMARK    1  A    between atoms: CB_1  and  CA_2
REMARK    2  A    between atoms: CA_2  and  N_3
REMARK    3  A    between atoms: CA_2  and  C_25
REMARK    4  A    between atoms: C_4  and  CA_6
REMARK    5  A    between atoms: CA_6  and  CB_7
REMARK    6  A    between atoms: CA_6  and  N_14
REMARK    7  A    between atoms: CB_7  and  CG_8
REMARK    8  A    between atoms: C_15  and  O_17
REMARK    9  A    between atoms: O_17  and  C_18
REMARK   10  A    between atoms: C_18  and  C_19
REMARK   11  A    between atoms: C_25  and  OXT_27
REMARK                            x       y       z     vdW  Elec       q    Type
REMARK                         _______ _______ _______ _____ _____    ______ ____
ROOT
ATOM      1  CA  PHE A   1       2.896   5.821  17.761  0.00  0.00    +0.000 C 
ENDROOT
BRANCH   1   3
ATOM      2  N   PHE A   1       5.325   5.889  18.357  0.00  0.00    +0.000 N 
ATOM      3  C   PHE A   1       4.386   5.513  17.418  0.00  0.00    +0.000 C 
ATOM      4  O   PHE A   1       4.747   5.007  16.354  0.00  0.00    +0.000 OA
ATOM      5  H   PHE A   1       5.020   6.328  19.217  0.00  0.00    +0.000 HD
BRANCH   2   7
ATOM      6  CB  PHE A   1       7.486   5.697  19.524  0.00  0.00    +0.000 C 
ATOM      7  CA  PHE A   1       6.773   5.681  18.172  0.00  0.00    +0.000 C 
BRANCH   7   8
ATOM      8  C   PHE A   1       7.415   6.725  17.224  0.00  0.00    +0.000 C 
ATOM      9  O   PHE A   1       7.799   7.835  17.573  0.00  0.00    +0.000 OA
BRANCH   8  10
ATOM     10  OXT PHE A   1       7.563   6.276  15.962  0.00  0.00    +0.000 OA
ATOM     11  HXT PHE A   1       8.058   6.904  15.377  0.00  0.00    +0.000 HD
ENDBRANCH   8  10
ENDBRANCH   7   8
ENDBRANCH   2   7
ENDBRANCH   1   3
BRANCH   1  12
ATOM     12  N   PHE A   1       2.824   6.657  18.962  0.00  0.00    +0.000 N 
ATOM     13  C   UNK A   0       2.174   7.855  19.019  0.00  0.00    +0.000 C 
ATOM     14  O   UNK A   0       1.724   8.444  18.046  0.00  0.00    +0.000 OA
ATOM     15  H   PHE A   1       3.182   6.280  19.834  0.00  0.00    +0.000 HD
BRANCH  13  16
ATOM     16  O   UNK A   0       2.109   8.288  20.304  0.00  0.00    +0.000 OA
BRANCH  16  17
ATOM     17  C   UNK A   0       0.863   8.062  20.980  0.00  0.00    +0.000 C 
BRANCH  17  18
ATOM     18  C   UNK A   0       0.171   9.315  21.470  0.00  0.00    +0.000 A 
ATOM     19  C   UNK A   0      -0.110  10.378  20.596  0.00  0.00    +0.000 A 
ATOM     20  C   UNK A   0      -0.841  11.489  21.033  0.00  0.00    +0.000 A 
ATOM     21  C   UNK A   0      -1.293  11.556  22.348  0.00  0.00    +0.000 A 
ATOM     22  C   UNK A   0      -1.014  10.514  23.228  0.00  0.00    +0.000 A 
ATOM     23  C   UNK A   0      -0.283   9.403  22.795  0.00  0.00    +0.000 A 
ENDBRANCH  17  18
ENDBRANCH  16  17
ENDBRANCH  13  16
ENDBRANCH   1  12
BRANCH   1  24
ATOM     24  CB  PHE A   1       2.062   4.522  17.894  0.00  0.00    +0.000 C 
BRANCH  24  25
ATOM     25  CG  PHE A   1       2.179   3.881  19.259  0.00  0.00    +0.000 A 
ATOM     26  CD1 PHE A   1       3.347   3.201  19.627  0.00  0.00    +0.000 A 
ATOM     27  CE1 PHE A   1       3.392   2.457  20.806  0.00  0.00    +0.000 A 
ATOM     28  CZ  PHE A   1       2.272   2.391  21.631  0.00  0.00    +0.000 A 
ATOM     29  CE2 PHE A   1       1.127   3.116  21.306  0.00  0.00    +0.000 A 
ATOM     30  CD2 PHE A   1       1.088   3.874  20.137  0.00  0.00    +0.000 A 
ENDBRANCH  24  25
ENDBRANCH   1  24
TORSDOF 10
ENDMDL
MODEL 7
REMARK VINA RESULT:      -8.1      4.548      7.131
REMARK  Name = 
REMARK  11 active torsions:
REMARK  status: ('A' for Active; 'I' for Inactive)
REMARK    1  A    between atoms: CB_1  and  CA_2
REMARK    2  A    between atoms: CA_2  and  N_3
REMARK    3  A    between atoms: CA_2  and  C_25
REMARK    4  A    between atoms: C_4  and  CA_6
REMARK    5  A    between atoms: CA_6  and  CB_7
REMARK    6  A    between atoms: CA_6  and  N_14
REMARK    7  A    between atoms: CB_7  and  CG_8
REMARK    8  A    between atoms: C_15  and  O_17
REMARK    9  A    between atoms: O_17  and  C_18
REMARK   10  A    between atoms: C_18  and  C_19
REMARK   11  A    between atoms: C_25  and  OXT_27
REMARK                            x       y       z     vdW  Elec       q    Type
REMARK                         _______ _______ _______ _____ _____    ______ ____
ROOT
ATOM      1  CA  PHE A   1       2.775   6.152  18.178  0.00  0.00    +0.000 C 
ENDROOT
BRANCH   1   3
ATOM      2  N   PHE A   1       2.894   4.167  19.697  0.00  0.00    +0.000 N 
ATOM      3  C   PHE A   1       2.635   4.617  18.418  0.00  0.00    +0.000 C 
ATOM      4  O   PHE A   1       2.357   3.813  17.527  0.00  0.00    +0.000 OA
ATOM      5  H   PHE A   1       3.148   4.833  20.416  0.00  0.00    +0.000 HD
BRANCH   2   7
ATOM      6  CB  PHE A   1       2.487   2.612  21.563  0.00  0.00    +0.000 C 
ATOM      7  CA  PHE A   1       2.821   2.745  20.077  0.00  0.00    +0.000 C 
BRANCH   7   8
ATOM      8  C   PHE A   1       4.123   1.968  19.756  0.00  0.00    +0.000 C 
ATOM      9  O   PHE A   1       5.062   1.837  20.534  0.00  0.00    +0.000 OA
BRANCH   8  10
ATOM     10  OXT PHE A   1       4.112   1.392  18.538  0.00  0.00    +0.000 OA
ATOM     11  HXT PHE A   1       3.268   1.541  18.041  0.00  0.00    +0.000 HD
ENDBRANCH   8  10
ENDBRANCH   7   8
ENDBRANCH   2   7
ENDBRANCH   1   3
BRANCH   1  12
ATOM     12  N   PHE A   1       3.946   6.419  17.338  0.00  0.00    +0.000 N 
ATOM     13  C   UNK A   0       5.195   5.938  17.597  0.00  0.00    +0.000 C 
ATOM     14  O   UNK A   0       5.517   5.375  18.635  0.00  0.00    +0.000 OA
ATOM     15  H   PHE A   1       3.805   6.896  16.453  0.00  0.00    +0.000 HD
BRANCH  13  16
ATOM     16  O   UNK A   0       6.015   6.181  16.543  0.00  0.00    +0.000 OA
BRANCH  16  17
ATOM     17  C   UNK A   0       6.849   5.087  16.131  0.00  0.00    +0.000 C 
BRANCH  17  18
ATOM     18  C   UNK A   0       6.800   4.776  14.651  0.00  0.00    +0.000 A 
ATOM     19  C   UNK A   0       7.719   5.352  13.758  0.00  0.00    +0.000 A 
ATOM     20  C   UNK A   0       7.733   4.981  12.409  0.00  0.00    +0.000 A 
ATOM     21  C   UNK A   0       6.827   4.035  11.933  0.00  0.00    +0.000 A 
ATOM     22  C   UNK A   0       5.906   3.462  12.805  0.00  0.00    +0.000 A 
ATOM     23  C   UNK A   0       5.888   3.832  14.154  0.00  0.00    +0.000 A 
ENDBRANCH  17  18
ENDBRANCH  16  17
ENDBRANCH  13  16
ENDBRANCH   1  12
BRANCH   1  24
ATOM     24  CB  PHE A   1       2.813   6.936  19.513  0.00  0.00    +0.000 C 
BRANCH  24  25
ATOM     25  CG  PHE A   1       1.850   8.101  19.543  0.00  0.00    +0.000 A 
ATOM     26  CD1 PHE A   1       1.677   8.909  18.411  0.00  0.00    +0.000 A 
ATOM     27  CE1 PHE A   1       0.932  10.086  18.489  0.00  0.00    +0.000 A 
ATOM     28  CZ  PHE A   1       0.347  10.463  19.696  0.00  0.00    +0.000 A 
ATOM     29  CE2 PHE A   1       0.460   9.634  20.810  0.00  0.00    +0.000 A 
ATOM     30  CD2 PHE A   1       1.189   8.448  20.728  0.00  0.00    +0.000 A 
ENDBRANCH  24  25
ENDBRANCH   1  24
TORSDOF 10
ENDMDL
MODEL 8
REMARK VINA RESULT:      -8.0      4.434      6.884
REMARK  Name = 
REMARK  11 active torsions:
REMARK  status: ('A' for Active; 'I' for Inactive)
REMARK    1  A    between atoms: CB_1  and  CA_2
REMARK    2  A    between atoms: CA_2  and  N_3
REMARK    3  A    between atoms: CA_2  and  C_25
REMARK    4  A    between atoms: C_4  and  CA_6
REMARK    5  A    between atoms: CA_6  and  CB_7
REMARK    6  A    between atoms: CA_6  and  N_14
REMARK    7  A    between atoms: CB_7  and  CG_8
REMARK    8  A    between atoms: C_15  and  O_17
REMARK    9  A    between atoms: O_17  and  C_18
REMARK   10  A    between atoms: C_18  and  C_19
REMARK   11  A    between atoms: C_25  and  OXT_27
REMARK                            x       y       z     vdW  Elec       q    Type
REMARK                         _______ _______ _______ _____ _____    ______ ____
ROOT
ATOM      1  CA  PHE A   1       5.585   5.119  17.113  0.00  0.00    +0.000 C 
ENDROOT
BRANCH   1   3
ATOM      2  N   PHE A   1       6.053   4.493  14.736  0.00  0.00    +0.000 N 
ATOM      3  C   PHE A   1       6.585   4.696  15.993  0.00  0.00    +0.000 C 
ATOM      4  O   PHE A   1       7.784   4.497  16.193  0.00  0.00    +0.000 OA
ATOM      5  H   PHE A   1       5.061   4.633  14.587  0.00  0.00    +0.000 HD
BRANCH   2   7
ATOM      6  CB  PHE A   1       7.561   5.285  12.957  0.00  0.00    +0.000 C 
ATOM      7  CA  PHE A   1       6.864   4.075  13.578  0.00  0.00    +0.000 C 
BRANCH   7   8
ATOM      8  C   PHE A   1       6.037   3.330  12.500  0.00  0.00    +0.000 C 
ATOM      9  O   PHE A   1       4.872   3.588  12.219  0.00  0.00    +0.000 OA
BRANCH   8  10
ATOM     10  OXT PHE A   1       6.743   2.385  11.849  0.00  0.00    +0.000 OA
ATOM     11  HXT PHE A   1       7.719   2.550  11.854  0.00  0.00    +0.000 HD
ENDBRANCH   8  10
ENDBRANCH   7   8
ENDBRANCH   2   7
ENDBRANCH   1   3
BRANCH   1  12
ATOM     12  N   PHE A   1       5.444   4.035  18.089  0.00  0.00    +0.000 N 
ATOM     13  C   UNK A   0       5.853   4.121  19.388  0.00  0.00    +0.000 C 
ATOM     14  O   UNK A   0       6.527   5.036  19.840  0.00  0.00    +0.000 OA
ATOM     15  H   PHE A   1       4.915   3.211  17.822  0.00  0.00    +0.000 HD
BRANCH  13  16
ATOM     16  O   UNK A   0       5.407   3.048  20.087  0.00  0.00    +0.000 OA
BRANCH  16  17
ATOM     17  C   UNK A   0       4.530   2.157  19.380  0.00  0.00    +0.000 C 
BRANCH  17  18
ATOM     18  C   UNK A   0       3.056   2.386  19.632  0.00  0.00    +0.000 A 
ATOM     19  C   UNK A   0       2.592   2.809  20.889  0.00  0.00    +0.000 A 
ATOM     20  C   UNK A   0       1.241   3.117  21.086  0.00  0.00    +0.000 A 
ATOM     21  C   UNK A   0       0.336   2.999  20.034  0.00  0.00    +0.000 A 
ATOM     22  C   UNK A   0       0.780   2.573  18.785  0.00  0.00    +0.000 A 
ATOM     23  C   UNK A   0       2.129   2.263  18.586  0.00  0.00    +0.000 A 
ENDBRANCH  17  18
ENDBRANCH  16  17
ENDBRANCH  13  16
ENDBRANCH   1  12
BRANCH   1  24
ATOM     24  CB  PHE A   1       4.223   5.563  16.522  0.00  0.00    +0.000 C 
BRANCH  24  25
ATOM     25  CG  PHE A   1       3.376   6.337  17.507  0.00  0.00    +0.000 A 
ATOM     26  CD1 PHE A   1       3.159   7.711  17.332  0.00  0.00    +0.000 A 
ATOM     27  CE1 PHE A   1       2.534   8.461  18.328  0.00  0.00    +0.000 A 
ATOM     28  CZ  PHE A   1       2.114   7.845  19.505  0.00  0.00    +0.000 A 
ATOM     29  CE2 PHE A   1       2.268   6.470  19.661  0.00  0.00    +0.000 A 
ATOM     30  CD2 PHE A   1       2.876   5.716  18.658  0.00  0.00    +0.000 A 
ENDBRANCH  24  25
ENDBRANCH   1  24
TORSDOF 10
ENDMDL
MODEL 9
REMARK VINA RESULT:      -8.0      3.558      7.836
REMARK  Name = 
REMARK  11 active torsions:
REMARK  status: ('A' for Active; 'I' for Inactive)
REMARK    1  A    between atoms: CB_1  and  CA_2
REMARK    2  A    between atoms: CA_2  and  N_3
REMARK    3  A    between atoms: CA_2  and  C_25
REMARK    4  A    between atoms: C_4  and  CA_6
REMARK    5  A    between atoms: CA_6  and  CB_7
REMARK    6  A    between atoms: CA_6  and  N_14
REMARK    7  A    between atoms: CB_7  and  CG_8
REMARK    8  A    between atoms: C_15  and  O_17
REMARK    9  A    between atoms: O_17  and  C_18
REMARK   10  A    between atoms: C_18  and  C_19
REMARK   11  A    between atoms: C_25  and  OXT_27
REMARK                            x       y       z     vdW  Elec       q    Type
REMARK                         _______ _______ _______ _____ _____    ______ ____
ROOT
ATOM      1  CA  PHE A   1       3.195   6.210  18.660  0.00  0.00    +0.000 C 
ENDROOT
BRANCH   1   3
ATOM      2  N   PHE A   1       5.573   6.523  17.948  0.00  0.00    +0.000 N 
ATOM      3  C   PHE A   1       4.715   5.904  18.833  0.00  0.00    +0.000 C 
ATOM      4  O   PHE A   1       5.158   5.118  19.672  0.00  0.00    +0.000 OA
ATOM      5  H   PHE A   1       5.197   7.147  17.244  0.00  0.00    +0.000 HD
BRANCH   2   7
ATOM      6  CB  PHE A   1       7.747   7.569  17.448  0.00  0.00    +0.000 C 
ATOM      7  CA  PHE A   1       7.033   6.323  17.971  0.00  0.00    +0.000 C 
BRANCH   7   8
ATOM      8  C   PHE A   1       7.483   5.078  17.165  0.00  0.00    +0.000 C 
ATOM      9  O   PHE A   1       7.631   5.057  15.948  0.00  0.00    +0.000 OA
BRANCH   8  10
ATOM     10  OXT PHE A   1       7.753   4.011  17.941  0.00  0.00    +0.000 OA
ATOM     11  HXT PHE A   1       6.942   3.581  18.314  0.00  0.00    +0.000 HD
ENDBRANCH   8  10
ENDBRANCH   7   8
ENDBRANCH   2   7
ENDBRANCH   1   3
BRANCH   1  12
ATOM     12  N   PHE A   1       2.529   5.075  18.015  0.00  0.00    +0.000 N 
ATOM     13  C   UNK A   0       3.118   4.280  17.075  0.00  0.00    +0.000 C 
ATOM     14  O   UNK A   0       4.194   4.518  16.546  0.00  0.00    +0.000 OA
ATOM     15  H   PHE A   1       1.618   4.790  18.360  0.00  0.00    +0.000 HD
BRANCH  13  16
ATOM     16  O   UNK A   0       2.333   3.203  16.820  0.00  0.00    +0.000 OA
BRANCH  16  17
ATOM     17  C   UNK A   0       2.563   2.049  17.643  0.00  0.00    +0.000 C 
BRANCH  17  18
ATOM     18  C   UNK A   0       2.328   2.270  19.122  0.00  0.00    +0.000 A 
ATOM     19  C   UNK A   0       3.392   2.230  20.039  0.00  0.00    +0.000 A 
ATOM     20  C   UNK A   0       3.183   2.536  21.389  0.00  0.00    +0.000 A 
ATOM     21  C   UNK A   0       1.911   2.878  21.841  0.00  0.00    +0.000 A 
ATOM     22  C   UNK A   0       0.846   2.912  20.945  0.00  0.00    +0.000 A 
ATOM     23  C   UNK A   0       1.051   2.606  19.596  0.00  0.00    +0.000 A 
ENDBRANCH  17  18
ENDBRANCH  16  17
ENDBRANCH  13  16
ENDBRANCH   1  12
BRANCH   1  24
ATOM     24  CB  PHE A   1       2.965   7.540  17.901  0.00  0.00    +0.000 C 
BRANCH  24  25
ATOM     25  CG  PHE A   1       2.005   8.468  18.611  0.00  0.00    +0.000 A 
ATOM     26  CD1 PHE A   1       1.737   8.304  19.977  0.00  0.00    +0.000 A 
ATOM     27  CE1 PHE A   1       0.722   9.036  20.592  0.00  0.00    +0.000 A 
ATOM     28  CZ  PHE A   1      -0.031   9.944  19.850  0.00  0.00    +0.000 A 
ATOM     29  CE2 PHE A   1       0.269  10.160  18.507  0.00  0.00    +0.000 A 
ATOM     30  CD2 PHE A   1       1.296   9.442  17.896  0.00  0.00    +0.000 A 
ENDBRANCH  24  25
ENDBRANCH   1  24
TORSDOF 10
ENDMDL
