MODEL 1
REMARK VINA RESULT:      -8.4      0.000      0.000
REMARK  Name = 
REMARK  12 active torsions:
REMARK  status: ('A' for Active; 'I' for Inactive)
REMARK    1  A    between atoms: C_1  and  C_2
REMARK    2  A    between atoms: C_2  and  C_3
REMARK    3  A    between atoms: C_3  and  C_4
REMARK    4  A    between atoms: C_4  and  C_5
REMARK    5  A    between atoms: C_5  and  C_6
REMARK    6  A    between atoms: C_6  and  C_7
REMARK    7  A    between atoms: C_7  and  C_8
REMARK    8  A    between atoms: C_8  and  N_9
REMARK    9  A    between atoms: C_12  and  C_13
REMARK   10  A    between atoms: C_12  and  C_14
REMARK   11  A    between atoms: N_17  and  C_18
REMARK   12  A    between atoms: C_18  and  C_19
REMARK                            x       y       z     vdW  Elec       q    Type
REMARK                         _______ _______ _______ _____ _____    ______ ____
ROOT
ATOM      1  N   UNL     1       6.828   4.190  15.164  0.00  0.00    +0.000 N 
ATOM      2  C   UNL     1       6.542   4.960  16.252  0.00  0.00    +0.000 C 
ATOM      3  N   UNL     1       7.547   5.464  16.868  0.00  0.00    +0.000 NA
ATOM      4  C   UNL     1       7.281   6.320  18.012  0.00  0.00    +0.000 C 
ATOM      5  C   UNL     1       7.697   7.751  17.633  0.00  0.00    +0.000 C 
ATOM      6  C   UNL     1       8.131   5.799  19.178  0.00  0.00    +0.000 C 
ATOM      7  N   UNL     1       5.923   6.360  18.455  0.00  0.00    +0.000 N 
ATOM      8  C   UNL     1       4.972   5.840  17.647  0.00  0.00    +0.000 C 
ATOM      9  N   UNL     1       3.720   6.058  18.140  0.00  0.00    +0.000 N 
ATOM     10  N   UNL     1       5.225   5.174  16.588  0.00  0.00    +0.000 NA
ATOM     11  H   UNL     1       7.796   4.320  14.905  0.00  0.00    +0.000 HD
ATOM     12  H   UNL     1       5.694   7.050  19.147  0.00  0.00    +0.000 HD
ATOM     13  H   UNL     1       3.508   7.030  18.311  0.00  0.00    +0.000 HD
ENDROOT
BRANCH   1  14
ATOM     14  C   UNL     1       5.914   4.088  14.045  0.00  0.00    +0.000 C 
BRANCH  14  15
ATOM     15  C   UNL     1       6.633   3.562  12.801  0.00  0.00    +0.000 C 
BRANCH  15  16
ATOM     16  C   UNL     1       5.774   3.734  11.548  0.00  0.00    +0.000 C 
BRANCH  16  17
ATOM     17  C   UNL     1       4.934   2.494  11.256  0.00  0.00    +0.000 C 
BRANCH  17  18
ATOM     18  C   UNL     1       3.457   2.861  11.107  0.00  0.00    +0.000 C 
BRANCH  18  19
ATOM     19  C   UNL     1       3.296   4.227  10.443  0.00  0.00    +0.000 C 
BRANCH  19  21
ATOM     20  C   UNL     1       1.992   5.311   8.592  0.00  0.00    +0.000 C 
ATOM     21  C   UNL     1       2.796   4.090   9.006  0.00  0.00    +0.000 C 
ENDBRANCH  19  21
ENDBRANCH  18  19
ENDBRANCH  17  18
ENDBRANCH  16  17
ENDBRANCH  15  16
ENDBRANCH  14  15
ENDBRANCH   1  14
BRANCH   9  22
ATOM     22  C   UNL     1       2.575   5.205  17.838  0.00  0.00    +0.000 C 
BRANCH  22  23
ATOM     23  C   UNL     1       2.239   4.276  19.002  0.00  0.00    +0.000 A 
ATOM     24  C   UNL     1       2.081   4.780  20.309  0.00  0.00    +0.000 A 
ATOM     25  C   UNL     1       1.753   3.939  21.376  0.00  0.00    +0.000 A 
ATOM     26  C   UNL     1       1.615   2.570  21.172  0.00  0.00    +0.000 A 
ATOM     27  C   UNL     1       1.832   2.036  19.904  0.00  0.00    +0.000 A 
ATOM     28  C   UNL     1       2.153   2.881  18.828  0.00  0.00    +0.000 A 
ATOM     29 CL   UNL     1       2.462   2.121  17.307  0.00  0.00    +0.000 Cl
ENDBRANCH  22  23
ENDBRANCH   9  22
TORSDOF 9
ENDMDL
MODEL 2
REMARK VINA RESULT:      -8.2      1.147      1.482
REMARK  Name = 
REMARK  12 active torsions:
REMARK  status: ('A' for Active; 'I' for Inactive)
REMARK    1  A    between atoms: C_1  and  C_2
REMARK    2  A    between atoms: C_2  and  C_3
REMARK    3  A    between atoms: C_3  and  C_4
REMARK    4  A    between atoms: C_4  and  C_5
REMARK    5  A    between atoms: C_5  and  C_6
REMARK    6  A    between atoms: C_6  and  C_7
REMARK    7  A    between atoms: C_7  and  C_8
REMARK    8  A    between atoms: C_8  and  N_9
REMARK    9  A    between atoms: C_12  and  C_13
REMARK   10  A    between atoms: C_12  and  C_14
REMARK   11  A    between atoms: N_17  and  C_18
REMARK   12  A    between atoms: C_18  and  C_19
REMARK                            x       y       z     vdW  Elec       q    Type
REMARK                         _______ _______ _______ _____ _____    ______ ____
ROOT
ATOM      1  N   UNL     1       6.731   4.175  15.201  0.00  0.00    +0.000 N 
ATOM      2  C   UNL     1       6.466   4.961  16.284  0.00  0.00    +0.000 C 
ATOM      3  N   UNL     1       7.484   5.378  16.942  0.00  0.00    +0.000 NA
ATOM      4  C   UNL     1       7.245   6.247  18.081  0.00  0.00    +0.000 C 
ATOM      5  C   UNL     1       7.790   7.641  17.730  0.00  0.00    +0.000 C 
ATOM      6  C   UNL     1       8.004   5.653  19.275  0.00  0.00    +0.000 C 
ATOM      7  N   UNL     1       5.879   6.396  18.472  0.00  0.00    +0.000 N 
ATOM      8  C   UNL     1       4.920   5.959  17.624  0.00  0.00    +0.000 C 
ATOM      9  N   UNL     1       3.672   6.277  18.070  0.00  0.00    +0.000 N 
ATOM     10  N   UNL     1       5.159   5.280  16.570  0.00  0.00    +0.000 NA
ATOM     11  H   UNL     1       7.716   4.227  14.981  0.00  0.00    +0.000 HD
ATOM     12  H   UNL     1       5.680   7.099  19.161  0.00  0.00    +0.000 HD
ATOM     13  H   UNL     1       3.533   7.262  18.242  0.00  0.00    +0.000 HD
ENDROOT
BRANCH   1  14
ATOM     14  C   UNL     1       5.855   4.154  14.047  0.00  0.00    +0.000 C 
BRANCH  14  15
ATOM     15  C   UNL     1       6.644   4.412  12.761  0.00  0.00    +0.000 C 
BRANCH  15  16
ATOM     16  C   UNL     1       6.219   3.455  11.647  0.00  0.00    +0.000 C 
BRANCH  16  17
ATOM     17  C   UNL     1       5.036   2.585  12.062  0.00  0.00    +0.000 C 
BRANCH  17  18
ATOM     18  C   UNL     1       3.933   2.627  11.005  0.00  0.00    +0.000 C 
BRANCH  18  19
ATOM     19  C   UNL     1       3.691   4.055  10.521  0.00  0.00    +0.000 C 
BRANCH  19  21
ATOM     20  C   UNL     1       2.010   5.180   9.034  0.00  0.00    +0.000 C 
ATOM     21  C   UNL     1       3.044   4.070   9.138  0.00  0.00    +0.000 C 
ENDBRANCH  19  21
ENDBRANCH  18  19
ENDBRANCH  17  18
ENDBRANCH  16  17
ENDBRANCH  15  16
ENDBRANCH  14  15
ENDBRANCH   1  14
BRANCH   9  22
ATOM     22  C   UNL     1       2.474   5.522  17.718  0.00  0.00    +0.000 C 
BRANCH  22  23
ATOM     23  C   UNL     1       2.148   4.458  18.764  0.00  0.00    +0.000 A 
ATOM     24  C   UNL     1       2.113   3.091  18.421  0.00  0.00    +0.000 A 
ATOM     25  C   UNL     1       1.835   2.109  19.376  0.00  0.00    +0.000 A 
ATOM     26  C   UNL     1       1.547   2.471  20.687  0.00  0.00    +0.000 A 
ATOM     27  C   UNL     1       1.507   3.819  21.039  0.00  0.00    +0.000 A 
ATOM     28  C   UNL     1       1.794   4.806  20.082  0.00  0.00    +0.000 A 
ATOM     29 CL   UNL     1       1.662   6.451  20.597  0.00  0.00    +0.000 Cl
ENDBRANCH  22  23
ENDBRANCH   9  22
TORSDOF 9
ENDMDL
MODEL 3
REMARK VINA RESULT:      -8.0      3.727      6.078
REMARK  Name = 
REMARK  12 active torsions:
REMARK  status: ('A' for Active; 'I' for Inactive)
REMARK    1  A    between atoms: C_1  and  C_2
REMARK    2  A    between atoms: C_2  and  C_3
REMARK    3  A    between atoms: C_3  and  C_4
REMARK    4  A    between atoms: C_4  and  C_5
REMARK    5  A    between atoms: C_5  and  C_6
REMARK    6  A    between atoms: C_6  and  C_7
REMARK    7  A    between atoms: C_7  and  C_8
REMARK    8  A    between atoms: C_8  and  N_9
REMARK    9  A    between atoms: C_12  and  C_13
REMARK   10  A    between atoms: C_12  and  C_14
REMARK   11  A    between atoms: N_17  and  C_18
REMARK   12  A    between atoms: C_18  and  C_19
REMARK                            x       y       z     vdW  Elec       q    Type
REMARK                         _______ _______ _______ _____ _____    ______ ____
ROOT
ATOM      1  N   UNL     1       4.855   4.335  18.840  0.00  0.00    +0.000 N 
ATOM      2  C   UNL     1       3.638   4.369  19.456  0.00  0.00    +0.000 C 
ATOM      3  N   UNL     1       3.029   3.248  19.566  0.00  0.00    +0.000 NA
ATOM      4  C   UNL     1       1.745   3.237  20.247  0.00  0.00    +0.000 C 
ATOM      5  C   UNL     1       1.921   2.465  21.565  0.00  0.00    +0.000 C 
ATOM      6  C   UNL     1       0.747   2.522  19.328  0.00  0.00    +0.000 C 
ATOM      7  N   UNL     1       1.199   4.521  20.560  0.00  0.00    +0.000 N 
ATOM      8  C   UNL     1       2.005   5.601  20.454  0.00  0.00    +0.000 C 
ATOM      9  N   UNL     1       1.388   6.732  20.900  0.00  0.00    +0.000 N 
ATOM     10  N   UNL     1       3.173   5.569  19.941  0.00  0.00    +0.000 NA
ATOM     11  H   UNL     1       5.163   3.376  18.758  0.00  0.00    +0.000 HD
ATOM     12  H   UNL     1       0.389   4.533  21.154  0.00  0.00    +0.000 HD
ATOM     13  H   UNL     1       1.047   6.670  21.848  0.00  0.00    +0.000 HD
ENDROOT
BRANCH   1  14
ATOM     14  C   UNL     1       5.902   5.277  19.177  0.00  0.00    +0.000 C 
BRANCH  14  15
ATOM     15  C   UNL     1       6.391   6.015  17.928  0.00  0.00    +0.000 C 
BRANCH  15  16
ATOM     16  C   UNL     1       5.868   5.355  16.652  0.00  0.00    +0.000 C 
BRANCH  16  17
ATOM     17  C   UNL     1       6.950   4.545  15.944  0.00  0.00    +0.000 C 
BRANCH  17  18
ATOM     18  C   UNL     1       6.911   4.789  14.435  0.00  0.00    +0.000 C 
BRANCH  18  19
ATOM     19  C   UNL     1       5.900   3.868  13.756  0.00  0.00    +0.000 C 
BRANCH  19  21
ATOM     20  C   UNL     1       5.437   2.470  11.723  0.00  0.00    +0.000 C 
ATOM     21  C   UNL     1       6.295   3.579  12.310  0.00  0.00    +0.000 C 
ENDBRANCH  19  21
ENDBRANCH  18  19
ENDBRANCH  17  18
ENDBRANCH  16  17
ENDBRANCH  15  16
ENDBRANCH  14  15
ENDBRANCH   1  14
BRANCH   9  22
ATOM     22  C   UNL     1       1.735   8.073  20.439  0.00  0.00    +0.000 C 
BRANCH  22  23
ATOM     23  C   UNL     1       0.803   9.131  21.026  0.00  0.00    +0.000 A 
ATOM     24  C   UNL     1       0.506   9.152  22.404  0.00  0.00    +0.000 A 
ATOM     25  C   UNL     1      -0.330  10.128  22.953  0.00  0.00    +0.000 A 
ATOM     26  C   UNL     1      -0.920  11.084  22.133  0.00  0.00    +0.000 A 
ATOM     27  C   UNL     1      -0.699  11.047  20.758  0.00  0.00    +0.000 A 
ATOM     28  C   UNL     1       0.147  10.071  20.206  0.00  0.00    +0.000 A 
ATOM     29 CL   UNL     1       0.314  10.067  18.486  0.00  0.00    +0.000 Cl
ENDBRANCH  22  23
ENDBRANCH   9  22
TORSDOF 9
ENDMDL
MODEL 4
REMARK VINA RESULT:      -7.9      3.789      5.630
REMARK  Name = 
REMARK  12 active torsions:
REMARK  status: ('A' for Active; 'I' for Inactive)
REMARK    1  A    between atoms: C_1  and  C_2
REMARK    2  A    between atoms: C_2  and  C_3
REMARK    3  A    between atoms: C_3  and  C_4
REMARK    4  A    between atoms: C_4  and  C_5
REMARK    5  A    between atoms: C_5  and  C_6
REMARK    6  A    between atoms: C_6  and  C_7
REMARK    7  A    between atoms: C_7  and  C_8
REMARK    8  A    between atoms: C_8  and  N_9
REMARK    9  A    between atoms: C_12  and  C_13
REMARK   10  A    between atoms: C_12  and  C_14
REMARK   11  A    between atoms: N_17  and  C_18
REMARK   12  A    between atoms: C_18  and  C_19
REMARK                            x       y       z     vdW  Elec       q    Type
REMARK                         _______ _______ _______ _____ _____    ______ ____
ROOT
ATOM      1  N   UNL     1       4.031   4.877  17.420  0.00  0.00    +0.000 N 
ATOM      2  C   UNL     1       3.218   4.825  18.514  0.00  0.00    +0.000 C 
ATOM      3  N   UNL     1       2.813   3.661  18.863  0.00  0.00    +0.000 NA
ATOM      4  C   UNL     1       1.973   3.561  20.045  0.00  0.00    +0.000 C 
ATOM      5  C   UNL     1       2.779   2.829  21.131  0.00  0.00    +0.000 C 
ATOM      6  C   UNL     1       0.730   2.753  19.654  0.00  0.00    +0.000 C 
ATOM      7  N   UNL     1       1.525   4.802  20.594  0.00  0.00    +0.000 N 
ATOM      8  C   UNL     1       2.110   5.942  20.160  0.00  0.00    +0.000 C 
ATOM      9  N   UNL     1       1.670   7.028  20.856  0.00  0.00    +0.000 N 
ATOM     10  N   UNL     1       2.925   5.993  19.180  0.00  0.00    +0.000 NA
ATOM     11  H   UNL     1       4.345   3.944  17.191  0.00  0.00    +0.000 HD
ATOM     12  H   UNL     1       1.066   4.762  21.486  0.00  0.00    +0.000 HD
ATOM     13  H   UNL     1       1.794   6.956  21.855  0.00  0.00    +0.000 HD
ENDROOT
BRANCH   1  14
ATOM     14  C   UNL     1       5.040   5.905  17.272  0.00  0.00    +0.000 C 
BRANCH  14  15
ATOM     15  C   UNL     1       5.660   5.862  15.874  0.00  0.00    +0.000 C 
BRANCH  15  16
ATOM     16  C   UNL     1       5.781   4.425  15.363  0.00  0.00    +0.000 C 
BRANCH  16  17
ATOM     17  C   UNL     1       5.236   4.275  13.946  0.00  0.00    +0.000 C 
BRANCH  17  18
ATOM     18  C   UNL     1       6.308   3.719  13.008  0.00  0.00    +0.000 C 
BRANCH  18  19
ATOM     19  C   UNL     1       5.677   2.949  11.850  0.00  0.00    +0.000 C 
BRANCH  19  21
ATOM     20  C   UNL     1       3.771   3.751  10.427  0.00  0.00    +0.000 C 
ATOM     21  C   UNL     1       4.170   3.187  11.781  0.00  0.00    +0.000 C 
ENDBRANCH  19  21
ENDBRANCH  18  19
ENDBRANCH  17  18
ENDBRANCH  16  17
ENDBRANCH  15  16
ENDBRANCH  14  15
ENDBRANCH   1  14
BRANCH   9  22
ATOM     22  C   UNL     1       1.667   8.384  20.315  0.00  0.00    +0.000 C 
BRANCH  22  23
ATOM     23  C   UNL     1       0.744   9.307  21.108  0.00  0.00    +0.000 A 
ATOM     24  C   UNL     1       0.412   9.024  22.448  0.00  0.00    +0.000 A 
ATOM     25  C   UNL     1      -0.415   9.874  23.187  0.00  0.00    +0.000 A 
ATOM     26  C   UNL     1      -0.963  11.006  22.593  0.00  0.00    +0.000 A 
ATOM     27  C   UNL     1      -0.707  11.274  21.250  0.00  0.00    +0.000 A 
ATOM     28  C   UNL     1       0.131  10.425  20.509  0.00  0.00    +0.000 A 
ATOM     29 CL   UNL     1       0.342  10.806  18.837  0.00  0.00    +0.000 Cl
ENDBRANCH  22  23
ENDBRANCH   9  22
TORSDOF 9
ENDMDL
MODEL 5
REMARK VINA RESULT:      -7.8      4.782      7.753
REMARK  Name = 
REMARK  12 active torsions:
REMARK  status: ('A' for Active; 'I' for Inactive)
REMARK    1  A    between atoms: C_1  and  C_2
REMARK    2  A    between atoms: C_2  and  C_3
REMARK    3  A    between atoms: C_3  and  C_4
REMARK    4  A    between atoms: C_4  and  C_5
REMARK    5  A    between atoms: C_5  and  C_6
REMARK    6  A    between atoms: C_6  and  C_7
REMARK    7  A    between atoms: C_7  and  C_8
REMARK    8  A    between atoms: C_8  and  N_9
REMARK    9  A    between atoms: C_12  and  C_13
REMARK   10  A    between atoms: C_12  and  C_14
REMARK   11  A    between atoms: N_17  and  C_18
REMARK   12  A    between atoms: C_18  and  C_19
REMARK                            x       y       z     vdW  Elec       q    Type
REMARK                         _______ _______ _______ _____ _____    ______ ____
ROOT
ATOM      1  N   UNL     1       4.586   4.558  18.447  0.00  0.00    +0.000 N 
ATOM      2  C   UNL     1       3.473   4.566  19.236  0.00  0.00    +0.000 C 
ATOM      3  N   UNL     1       2.917   3.430  19.438  0.00  0.00    +0.000 NA
ATOM      4  C   UNL     1       1.748   3.391  20.302  0.00  0.00    +0.000 C 
ATOM      5  C   UNL     1       2.137   2.634  21.582  0.00  0.00    +0.000 C 
ATOM      6  C   UNL     1       0.645   2.643  19.543  0.00  0.00    +0.000 C 
ATOM      7  N   UNL     1       1.220   4.662  20.687  0.00  0.00    +0.000 N 
ATOM      8  C   UNL     1       1.972   5.763  20.459  0.00  0.00    +0.000 C 
ATOM      9  N   UNL     1       1.398   6.881  20.987  0.00  0.00    +0.000 N 
ATOM     10  N   UNL     1       3.052   5.757  19.780  0.00  0.00    +0.000 NA
ATOM     11  H   UNL     1       4.904   3.607  18.324  0.00  0.00    +0.000 HD
ATOM     12  H   UNL     1       0.506   4.659  21.394  0.00  0.00    +0.000 HD
ATOM     13  H   UNL     1       1.202   6.817  21.975  0.00  0.00    +0.000 HD
ENDROOT
BRANCH   1  14
ATOM     14  C   UNL     1       5.646   5.530  18.622  0.00  0.00    +0.000 C 
BRANCH  14  15
ATOM     15  C   UNL     1       6.813   5.238  17.676  0.00  0.00    +0.000 C 
BRANCH  15  16
ATOM     16  C   UNL     1       7.434   6.530  17.144  0.00  0.00    +0.000 C 
BRANCH  16  17
ATOM     17  C   UNL     1       7.989   7.401  18.268  0.00  0.00    +0.000 C 
BRANCH  17  18
ATOM     18  C   UNL     1       8.082   8.863  17.826  0.00  0.00    +0.000 C 
BRANCH  18  19
ATOM     19  C   UNL     1       8.932   9.676  18.800  0.00  0.00    +0.000 C 
BRANCH  19  21
ATOM     20  C   UNL     1      10.168  11.829  19.174  0.00  0.00    +0.000 C 
ATOM     21  C   UNL     1       9.381  10.996  18.176  0.00  0.00    +0.000 C 
ENDBRANCH  19  21
ENDBRANCH  18  19
ENDBRANCH  17  18
ENDBRANCH  16  17
ENDBRANCH  15  16
ENDBRANCH  14  15
ENDBRANCH   1  14
BRANCH   9  22
ATOM     22  C   UNL     1       1.637   8.227  20.475  0.00  0.00    +0.000 C 
BRANCH  22  23
ATOM     23  C   UNL     1       0.715   9.252  21.130  0.00  0.00    +0.000 A 
ATOM     24  C   UNL     1       0.372   9.153  22.494  0.00  0.00    +0.000 A 
ATOM     25  C   UNL     1      -0.454  10.099  23.107  0.00  0.00    +0.000 A 
ATOM     26  C   UNL     1      -0.991  11.145  22.363  0.00  0.00    +0.000 A 
ATOM     27  C   UNL     1      -0.724  11.229  20.999  0.00  0.00    +0.000 A 
ATOM     28  C   UNL     1       0.113  10.284  20.383  0.00  0.00    +0.000 A 
ATOM     29 CL   UNL     1       0.338  10.437  18.677  0.00  0.00    +0.000 Cl
ENDBRANCH  22  23
ENDBRANCH   9  22
TORSDOF 9
ENDMDL
MODEL 6
REMARK VINA RESULT:      -7.7      3.550      5.569
REMARK  Name = 
REMARK  12 active torsions:
REMARK  status: ('A' for Active; 'I' for Inactive)
REMARK    1  A    between atoms: C_1  and  C_2
REMARK    2  A    between atoms: C_2  and  C_3
REMARK    3  A    between atoms: C_3  and  C_4
REMARK    4  A    between atoms: C_4  and  C_5
REMARK    5  A    between atoms: C_5  and  C_6
REMARK    6  A    between atoms: C_6  and  C_7
REMARK    7  A    between atoms: C_7  and  C_8
REMARK    8  A    between atoms: C_8  and  N_9
REMARK    9  A    between atoms: C_12  and  C_13
REMARK   10  A    between atoms: C_12  and  C_14
REMARK   11  A    between atoms: N_17  and  C_18
REMARK   12  A    between atoms: C_18  and  C_19
REMARK                            x       y       z     vdW  Elec       q    Type
REMARK                         _______ _______ _______ _____ _____    ______ ____
ROOT
ATOM      1  N   UNL     1       4.150   4.342  17.204  0.00  0.00    +0.000 N 
ATOM      2  C   UNL     1       3.298   4.347  18.269  0.00  0.00    +0.000 C 
ATOM      3  N   UNL     1       2.797   3.214  18.597  0.00  0.00    +0.000 NA
ATOM      4  C   UNL     1       1.912   3.172  19.749  0.00  0.00    +0.000 C 
ATOM      5  C   UNL     1       2.624   2.381  20.859  0.00  0.00    +0.000 C 
ATOM      6  C   UNL     1       0.628   2.455  19.311  0.00  0.00    +0.000 C 
ATOM      7  N   UNL     1       1.535   4.441  20.288  0.00  0.00    +0.000 N 
ATOM      8  C   UNL     1       2.215   5.536  19.881  0.00  0.00    +0.000 C 
ATOM      9  N   UNL     1       1.830   6.649  20.566  0.00  0.00    +0.000 N 
ATOM     10  N   UNL     1       3.066   5.531  18.929  0.00  0.00    +0.000 NA
ATOM     11  H   UNL     1       4.404   3.390  16.981  0.00  0.00    +0.000 HD
ATOM     12  H   UNL     1       1.043   4.431  21.164  0.00  0.00    +0.000 HD
ATOM     13  H   UNL     1       1.913   6.567  21.568  0.00  0.00    +0.000 HD
ENDROOT
BRANCH   1  14
ATOM     14  C   UNL     1       5.235   5.296  17.096  0.00  0.00    +0.000 C 
BRANCH  14  15
ATOM     15  C   UNL     1       5.377   5.798  15.658  0.00  0.00    +0.000 C 
BRANCH  15  16
ATOM     16  C   UNL     1       6.533   5.101  14.938  0.00  0.00    +0.000 C 
BRANCH  16  17
ATOM     17  C   UNL     1       6.102   3.775  14.317  0.00  0.00    +0.000 C 
BRANCH  17  18
ATOM     18  C   UNL     1       6.458   3.731  12.830  0.00  0.00    +0.000 C 
BRANCH  18  19
ATOM     19  C   UNL     1       5.298   3.177  12.005  0.00  0.00    +0.000 C 
BRANCH  19  21
ATOM     20  C   UNL     1       7.188   1.773  11.133  0.00  0.00    +0.000 C 
ATOM     21  C   UNL     1       5.682   1.869  11.316  0.00  0.00    +0.000 C 
ENDBRANCH  19  21
ENDBRANCH  18  19
ENDBRANCH  17  18
ENDBRANCH  16  17
ENDBRANCH  15  16
ENDBRANCH  14  15
ENDBRANCH   1  14
BRANCH   9  22
ATOM     22  C   UNL     1       1.943   8.003  20.032  0.00  0.00    +0.000 C 
BRANCH  22  23
ATOM     23  C   UNL     1       1.022   8.978  20.762  0.00  0.00    +0.000 A 
ATOM     24  C   UNL     1       0.943   8.986  22.169  0.00  0.00    +0.000 A 
ATOM     25  C   UNL     1       0.118   9.889  22.845  0.00  0.00    +0.000 A 
ATOM     26  C   UNL     1      -0.679  10.778  22.132  0.00  0.00    +0.000 A 
ATOM     27  C   UNL     1      -0.673  10.745  20.739  0.00  0.00    +0.000 A 
ATOM     28  C   UNL     1       0.162   9.844  20.058  0.00  0.00    +0.000 A 
ATOM     29 CL   UNL     1       0.057   9.837  18.333  0.00  0.00    +0.000 Cl
ENDBRANCH  22  23
ENDBRANCH   9  22
TORSDOF 9
ENDMDL
MODEL 7
REMARK VINA RESULT:      -7.6      3.621      6.013
REMARK  Name = 
REMARK  12 active torsions:
REMARK  status: ('A' for Active; 'I' for Inactive)
REMARK    1  A    between atoms: C_1  and  C_2
REMARK    2  A    between atoms: C_2  and  C_3
REMARK    3  A    between atoms: C_3  and  C_4
REMARK    4  A    between atoms: C_4  and  C_5
REMARK    5  A    between atoms: C_5  and  C_6
REMARK    6  A    between atoms: C_6  and  C_7
REMARK    7  A    between atoms: C_7  and  C_8
REMARK    8  A    between atoms: C_8  and  N_9
REMARK    9  A    between atoms: C_12  and  C_13
REMARK   10  A    between atoms: C_12  and  C_14
REMARK   11  A    between atoms: N_17  and  C_18
REMARK   12  A    between atoms: C_18  and  C_19
REMARK                            x       y       z     vdW  Elec       q    Type
REMARK                         _______ _______ _______ _____ _____    ______ ____
ROOT
ATOM      1  N   UNL     1       5.515   4.159  19.050  0.00  0.00    +0.000 N 
ATOM      2  C   UNL     1       4.226   4.271  19.482  0.00  0.00    +0.000 C 
ATOM      3  N   UNL     1       3.605   3.171  19.699  0.00  0.00    +0.000 NA
ATOM      4  C   UNL     1       2.241   3.248  20.194  0.00  0.00    +0.000 C 
ATOM      5  C   UNL     1       2.235   2.715  21.636  0.00  0.00    +0.000 C 
ATOM      6  C   UNL     1       1.376   2.366  19.285  0.00  0.00    +0.000 C 
ATOM      7  N   UNL     1       1.659   4.554  20.206  0.00  0.00    +0.000 N 
ATOM      8  C   UNL     1       2.473   5.618  20.026  0.00  0.00    +0.000 C 
ATOM      9  N   UNL     1       1.804   6.794  20.185  0.00  0.00    +0.000 N 
ATOM     10  N   UNL     1       3.701   5.525  19.688  0.00  0.00    +0.000 NA
ATOM     11  H   UNL     1       5.830   3.207  19.175  0.00  0.00    +0.000 HD
ATOM     12  H   UNL     1       0.776   4.649  20.675  0.00  0.00    +0.000 HD
ATOM     13  H   UNL     1       1.337   6.887  21.075  0.00  0.00    +0.000 HD
ENDROOT
BRANCH   1  14
ATOM     14  C   UNL     1       6.508   5.168  19.358  0.00  0.00    +0.000 C 
BRANCH  14  15
ATOM     15  C   UNL     1       7.641   5.147  18.329  0.00  0.00    +0.000 C 
BRANCH  15  16
ATOM     16  C   UNL     1       7.147   4.658  16.967  0.00  0.00    +0.000 C 
BRANCH  16  17
ATOM     17  C   UNL     1       6.536   5.787  16.142  0.00  0.00    +0.000 C 
BRANCH  17  18
ATOM     18  C   UNL     1       5.663   5.228  15.018  0.00  0.00    +0.000 C 
BRANCH  18  19
ATOM     19  C   UNL     1       6.412   4.162  14.221  0.00  0.00    +0.000 C 
BRANCH  19  21
ATOM     20  C   UNL     1       6.446   3.093  11.950  0.00  0.00    +0.000 C 
ATOM     21  C   UNL     1       5.566   3.637  13.063  0.00  0.00    +0.000 C 
ENDBRANCH  19  21
ENDBRANCH  18  19
ENDBRANCH  17  18
ENDBRANCH  16  17
ENDBRANCH  15  16
ENDBRANCH  14  15
ENDBRANCH   1  14
BRANCH   9  22
ATOM     22  C   UNL     1       2.211   8.045  19.553  0.00  0.00    +0.000 C 
BRANCH  22  23
ATOM     23  C   UNL     1       1.098   9.089  19.595  0.00  0.00    +0.000 A 
ATOM     24  C   UNL     1       0.560   9.623  18.406  0.00  0.00    +0.000 A 
ATOM     25  C   UNL     1      -0.473  10.564  18.435  0.00  0.00    +0.000 A 
ATOM     26  C   UNL     1      -0.967  11.023  19.652  0.00  0.00    +0.000 A 
ATOM     27  C   UNL     1      -0.408  10.564  20.842  0.00  0.00    +0.000 A 
ATOM     28  C   UNL     1       0.625   9.612  20.815  0.00  0.00    +0.000 A 
ATOM     29 CL   UNL     1       1.295   9.146  22.338  0.00  0.00    +0.000 Cl
ENDBRANCH  22  23
ENDBRANCH   9  22
TORSDOF 9
ENDMDL
MODEL 8
REMARK VINA RESULT:      -7.6      3.774      6.314
REMARK  Name = 
REMARK  12 active torsions:
REMARK  status: ('A' for Active; 'I' for Inactive)
REMARK    1  A    between atoms: C_1  and  C_2
REMARK    2  A    between atoms: C_2  and  C_3
REMARK    3  A    between atoms: C_3  and  C_4
REMARK    4  A    between atoms: C_4  and  C_5
REMARK    5  A    between atoms: C_5  and  C_6
REMARK    6  A    between atoms: C_6  and  C_7
REMARK    7  A    between atoms: C_7  and  C_8
REMARK    8  A    between atoms: C_8  and  N_9
REMARK    9  A    between atoms: C_12  and  C_13
REMARK   10  A    between atoms: C_12  and  C_14
REMARK   11  A    between atoms: N_17  and  C_18
REMARK   12  A    between atoms: C_18  and  C_19
REMARK                            x       y       z     vdW  Elec       q    Type
REMARK                         _______ _______ _______ _____ _____    ______ ____
ROOT
ATOM      1  N   UNL     1       5.501   3.569  19.415  0.00  0.00    +0.000 N 
ATOM      2  C   UNL     1       5.457   4.670  18.611  0.00  0.00    +0.000 C 
ATOM      3  N   UNL     1       6.522   4.927  17.946  0.00  0.00    +0.000 NA
ATOM      4  C   UNL     1       6.503   6.072  17.051  0.00  0.00    +0.000 C 
ATOM      5  C   UNL     1       6.580   5.542  15.610  0.00  0.00    +0.000 C 
ATOM      6  C   UNL     1       7.733   6.929  17.380  0.00  0.00    +0.000 C 
ATOM      7  N   UNL     1       5.353   6.916  17.148  0.00  0.00    +0.000 N 
ATOM      8  C   UNL     1       4.282   6.460  17.836  0.00  0.00    +0.000 C 
ATOM      9  N   UNL     1       3.224   7.313  17.740  0.00  0.00    +0.000 N 
ATOM     10  N   UNL     1       4.290   5.394  18.538  0.00  0.00    +0.000 NA
ATOM     11  H   UNL     1       6.316   3.018  19.185  0.00  0.00    +0.000 HD
ATOM     12  H   UNL     1       5.254   7.625  16.444  0.00  0.00    +0.000 HD
ATOM     13  H   UNL     1       2.941   7.515  16.792  0.00  0.00    +0.000 HD
ENDROOT
BRANCH   1  14
ATOM     14  C   UNL     1       4.312   2.795  19.706  0.00  0.00    +0.000 C 
BRANCH  14  15
ATOM     15  C   UNL     1       4.149   1.651  18.703  0.00  0.00    +0.000 C 
BRANCH  15  16
ATOM     16  C   UNL     1       2.744   1.637  18.100  0.00  0.00    +0.000 C 
BRANCH  16  17
ATOM     17  C   UNL     1       2.421   2.940  17.374  0.00  0.00    +0.000 C 
BRANCH  17  18
ATOM     18  C   UNL     1       1.307   3.701  18.094  0.00  0.00    +0.000 C 
BRANCH  18  19
ATOM     19  C   UNL     1       0.538   2.782  19.042  0.00  0.00    +0.000 C 
BRANCH  19  21
ATOM     20  C   UNL     1       1.297   4.569  20.633  0.00  0.00    +0.000 C 
ATOM     21  C   UNL     1       0.815   3.133  20.502  0.00  0.00    +0.000 C 
ENDBRANCH  19  21
ENDBRANCH  18  19
ENDBRANCH  17  18
ENDBRANCH  16  17
ENDBRANCH  15  16
ENDBRANCH  14  15
ENDBRANCH   1  14
BRANCH   9  22
ATOM     22  C   UNL     1       2.171   7.408  18.746  0.00  0.00    +0.000 C 
BRANCH  22  23
ATOM     23  C   UNL     1       1.726   8.852  18.965  0.00  0.00    +0.000 A 
ATOM     24  C   UNL     1       2.075   9.865  18.049  0.00  0.00    +0.000 A 
ATOM     25  C   UNL     1       1.655  11.185  18.231  0.00  0.00    +0.000 A 
ATOM     26  C   UNL     1       0.910  11.534  19.353  0.00  0.00    +0.000 A 
ATOM     27  C   UNL     1       0.609  10.567  20.309  0.00  0.00    +0.000 A 
ATOM     28  C   UNL     1       1.023   9.238  20.124  0.00  0.00    +0.000 A 
ATOM     29 CL   UNL     1       0.654   8.122  21.391  0.00  0.00    +0.000 Cl
ENDBRANCH  22  23
ENDBRANCH   9  22
TORSDOF 9
ENDMDL
MODEL 9
REMARK VINA RESULT:      -7.5      4.026      6.566
REMARK  Name = 
REMARK  12 active torsions:
REMARK  status: ('A' for Active; 'I' for Inactive)
REMARK    1  A    between atoms: C_1  and  C_2
REMARK    2  A    between atoms: C_2  and  C_3
REMARK    3  A    between atoms: C_3  and  C_4
REMARK    4  A    between atoms: C_4  and  C_5
REMARK    5  A    between atoms: C_5  and  C_6
REMARK    6  A    between atoms: C_6  and  C_7
REMARK    7  A    between atoms: C_7  and  C_8
REMARK    8  A    between atoms: C_8  and  N_9
REMARK    9  A    between atoms: C_12  and  C_13
REMARK   10  A    between atoms: C_12  and  C_14
REMARK   11  A    between atoms: N_17  and  C_18
REMARK   12  A    between atoms: C_18  and  C_19
REMARK                            x       y       z     vdW  Elec       q    Type
REMARK                         _______ _______ _______ _____ _____    ______ ____
ROOT
ATOM      1  N   UNL     1       5.458   3.543  19.503  0.00  0.00    +0.000 N 
ATOM      2  C   UNL     1       5.515   4.684  18.757  0.00  0.00    +0.000 C 
ATOM      3  N   UNL     1       6.665   4.991  18.281  0.00  0.00    +0.000 NA
ATOM      4  C   UNL     1       6.760   6.180  17.452  0.00  0.00    +0.000 C 
ATOM      5  C   UNL     1       7.073   5.727  16.017  0.00  0.00    +0.000 C 
ATOM      6  C   UNL     1       7.902   7.037  18.012  0.00  0.00    +0.000 C 
ATOM      7  N   UNL     1       5.590   7.000  17.407  0.00  0.00    +0.000 N 
ATOM      8  C   UNL     1       4.435   6.493  17.895  0.00  0.00    +0.000 C 
ATOM      9  N   UNL     1       3.385   7.334  17.675  0.00  0.00    +0.000 N 
ATOM     10  N   UNL     1       4.357   5.393  18.536  0.00  0.00    +0.000 NA
ATOM     11  H   UNL     1       6.311   3.017  19.377  0.00  0.00    +0.000 HD
ATOM     12  H   UNL     1       5.586   7.744  16.732  0.00  0.00    +0.000 HD
ATOM     13  H   UNL     1       3.250   7.581  16.705  0.00  0.00    +0.000 HD
ENDROOT
BRANCH   1  14
ATOM     14  C   UNL     1       4.256   2.737  19.565  0.00  0.00    +0.000 C 
BRANCH  14  15
ATOM     15  C   UNL     1       4.016   2.227  20.987  0.00  0.00    +0.000 C 
BRANCH  15  16
ATOM     16  C   UNL     1       2.682   2.729  21.541  0.00  0.00    +0.000 C 
BRANCH  16  17
ATOM     17  C   UNL     1       2.406   4.176  21.140  0.00  0.00    +0.000 C 
BRANCH  17  18
ATOM     18  C   UNL     1       1.086   4.286  20.377  0.00  0.00    +0.000 C 
BRANCH  18  19
ATOM     19  C   UNL     1       0.571   2.907  19.970  0.00  0.00    +0.000 C 
BRANCH  19  21
ATOM     20  C   UNL     1       1.453   3.838  17.812  0.00  0.00    +0.000 C 
ATOM     21  C   UNL     1       0.716   2.681  18.467  0.00  0.00    +0.000 C 
ENDBRANCH  19  21
ENDBRANCH  18  19
ENDBRANCH  17  18
ENDBRANCH  16  17
ENDBRANCH  15  16
ENDBRANCH  14  15
ENDBRANCH   1  14
BRANCH   9  22
ATOM     22  C   UNL     1       2.186   7.361  18.506  0.00  0.00    +0.000 C 
BRANCH  22  23
ATOM     23  C   UNL     1       1.775   8.788  18.860  0.00  0.00    +0.000 A 
ATOM     24  C   UNL     1       2.072   9.863  17.999  0.00  0.00    +0.000 A 
ATOM     25  C   UNL     1       1.682  11.170  18.305  0.00  0.00    +0.000 A 
ATOM     26  C   UNL     1       1.020  11.440  19.499  0.00  0.00    +0.000 A 
ATOM     27  C   UNL     1       0.774  10.407  20.400  0.00  0.00    +0.000 A 
ATOM     28  C   UNL     1       1.158   9.092  20.090  0.00  0.00    +0.000 A 
ATOM     29 CL   UNL     1       0.863   7.889  21.295  0.00  0.00    +0.000 Cl
ENDBRANCH  22  23
ENDBRANCH   9  22
TORSDOF 9
ENDMDL
