MODEL 1
REMARK VINA RESULT:      -8.2      0.000      0.000
REMARK  Name = 
REMARK  7 active torsions:
REMARK  status: ('A' for Active; 'I' for Inactive)
REMARK    1  A    between atoms: C_1  and  O_2
REMARK    2  A    between atoms: O_2  and  C_3
REMARK    3  A    between atoms: C_7  and  N_8
REMARK    4  A    between atoms: C_9  and  C_11
REMARK    5  A    between atoms: C_11  and  N_12
REMARK    6  A    between atoms: C_15  and  S_16
REMARK    7  A    between atoms: S_16  and  C_17
REMARK                            x       y       z     vdW  Elec       q    Type
REMARK                         _______ _______ _______ _____ _____    ______ ____
ROOT
ATOM      1  N   UNL     1       6.922   6.058  18.185  0.00  0.00    +0.000 N 
ATOM      2  N   UNL     1       5.769   6.084  18.953  0.00  0.00    +0.000 NA
ATOM      3  C   UNL     1       4.955   5.314  18.282  0.00  0.00    +0.000 A 
ATOM      4  C   UNL     1       3.549   4.882  18.560  0.00  0.00    +0.000 A 
ATOM      5  N   UNL     1       2.860   4.084  17.799  0.00  0.00    +0.000 NA
ATOM      6  C   UNL     1       3.506   3.626  16.667  0.00  0.00    +0.000 A 
ATOM      7  C   UNL     1       4.765   3.947  16.325  0.00  0.00    +0.000 A 
ATOM      8  N   UNL     1       5.463   4.792  17.137  0.00  0.00    +0.000 N 
ATOM      9  C   UNL     1       6.754   5.241  17.050  0.00  0.00    +0.000 A 
ATOM     10  O   UNL     1       7.588   4.964  16.204  0.00  0.00    +0.000 OA
ENDROOT
BRANCH   1  11
ATOM     11  C   UNL     1       8.174   6.641  18.599  0.00  0.00    +0.000 C 
BRANCH  11  13
ATOM     12  N   UNL     1       9.027   8.837  19.243  0.00  0.00    +0.000 N 
ATOM     13  C   UNL     1       8.194   8.147  18.374  0.00  0.00    +0.000 C 
ATOM     14  O   UNL     1       7.582   8.630  17.423  0.00  0.00    +0.000 OA
ATOM     15  H   UNL     1       9.474   8.281  19.966  0.00  0.00    +0.000 HD
BRANCH  12  20
ATOM     16  C   UNL     1       9.988  12.210  18.020  0.00  0.00    +0.000 A 
ATOM     17  C   UNL     1       9.895  12.970  19.186  0.00  0.00    +0.000 A 
ATOM     18  C   UNL     1       9.470  12.381  20.371  0.00  0.00    +0.000 A 
ATOM     19  C   UNL     1       9.156  11.022  20.401  0.00  0.00    +0.000 A 
ATOM     20  C   UNL     1       9.274  10.233  19.254  0.00  0.00    +0.000 A 
ATOM     21  C   UNL     1       9.684  10.843  18.055  0.00  0.00    +0.000 A 
BRANCH  16  23
ATOM     22  C   UNL     1      11.126  14.116  17.197  0.00  0.00    +0.000 C 
ATOM     23  O   UNL     1      10.473  12.882  16.932  0.00  0.00    +0.000 OA
ENDBRANCH  16  23
ENDBRANCH  12  20
ENDBRANCH  11  13
ENDBRANCH   1  11
BRANCH   4  24
ATOM     24  S   UNL     1       3.026   5.554  20.056  0.00  0.00    +0.000 S 
BRANCH  24  25
ATOM     25  C   UNL     1       2.338   7.101  19.505  0.00  0.00    +0.000 A 
ATOM     26  C   UNL     1       2.460   7.516  18.176  0.00  0.00    +0.000 A 
ATOM     27  C   UNL     1       1.915   8.735  17.766  0.00  0.00    +0.000 A 
ATOM     28  C   UNL     1       1.237   9.539  18.681  0.00  0.00    +0.000 A 
ATOM     29  C   UNL     1       1.095   9.119  20.001  0.00  0.00    +0.000 A 
ATOM     30  C   UNL     1       1.640   7.902  20.414  0.00  0.00    +0.000 A 
ENDBRANCH  24  25
ENDBRANCH   4  24
TORSDOF 6
ENDMDL
MODEL 2
REMARK VINA RESULT:      -8.2      1.114      1.490
REMARK  Name = 
REMARK  7 active torsions:
REMARK  status: ('A' for Active; 'I' for Inactive)
REMARK    1  A    between atoms: C_1  and  O_2
REMARK    2  A    between atoms: O_2  and  C_3
REMARK    3  A    between atoms: C_7  and  N_8
REMARK    4  A    between atoms: C_9  and  C_11
REMARK    5  A    between atoms: C_11  and  N_12
REMARK    6  A    between atoms: C_15  and  S_16
REMARK    7  A    between atoms: S_16  and  C_17
REMARK                            x       y       z     vdW  Elec       q    Type
REMARK                         _______ _______ _______ _____ _____    ______ ____
ROOT
ATOM      1  N   UNL     1       6.578   5.666  18.227  0.00  0.00    +0.000 N 
ATOM      2  N   UNL     1       5.475   5.866  19.043  0.00  0.00    +0.000 NA
ATOM      3  C   UNL     1       4.573   5.087  18.508  0.00  0.00    +0.000 A 
ATOM      4  C   UNL     1       3.159   4.797  18.904  0.00  0.00    +0.000 A 
ATOM      5  N   UNL     1       2.374   3.971  18.278  0.00  0.00    +0.000 NA
ATOM      6  C   UNL     1       2.920   3.339  17.178  0.00  0.00    +0.000 A 
ATOM      7  C   UNL     1       4.177   3.523  16.739  0.00  0.00    +0.000 A 
ATOM      8  N   UNL     1       4.977   4.401  17.410  0.00  0.00    +0.000 N 
ATOM      9  C   UNL     1       6.289   4.739  17.206  0.00  0.00    +0.000 A 
ATOM     10  O   UNL     1       7.051   4.305  16.359  0.00  0.00    +0.000 OA
ENDROOT
BRANCH   1  11
ATOM     11  C   UNL     1       7.889   6.197  18.507  0.00  0.00    +0.000 C 
BRANCH  11  13
ATOM     12  N   UNL     1       8.746   8.416  19.056  0.00  0.00    +0.000 N 
ATOM     13  C   UNL     1       7.980   7.677  18.165  0.00  0.00    +0.000 C 
ATOM     14  O   UNL     1       7.479   8.095  17.122  0.00  0.00    +0.000 OA
ATOM     15  H   UNL     1       9.101   7.912  19.862  0.00  0.00    +0.000 HD
BRANCH  12  20
ATOM     16  C   UNL     1       9.864  11.800  20.102  0.00  0.00    +0.000 A 
ATOM     17  C   UNL     1       9.547  12.562  18.977  0.00  0.00    +0.000 A 
ATOM     18  C   UNL     1       9.007  11.953  17.850  0.00  0.00    +0.000 A 
ATOM     19  C   UNL     1       8.759  10.580  17.852  0.00  0.00    +0.000 A 
ATOM     20  C   UNL     1       9.035   9.802  18.979  0.00  0.00    +0.000 A 
ATOM     21  C   UNL     1       9.602  10.424  20.105  0.00  0.00    +0.000 A 
BRANCH  16  23
ATOM     22  C   UNL     1      10.049  13.909  21.164  0.00  0.00    +0.000 C 
ATOM     23  O   UNL     1      10.334  12.517  21.169  0.00  0.00    +0.000 OA
ENDBRANCH  16  23
ENDBRANCH  12  20
ENDBRANCH  11  13
ENDBRANCH   1  11
BRANCH   4  24
ATOM     24  S   UNL     1       2.771   5.673  20.334  0.00  0.00    +0.000 S 
BRANCH  24  25
ATOM     25  C   UNL     1       2.176   7.201  19.639  0.00  0.00    +0.000 A 
ATOM     26  C   UNL     1       2.363   7.504  18.286  0.00  0.00    +0.000 A 
ATOM     27  C   UNL     1       1.891   8.709  17.762  0.00  0.00    +0.000 A 
ATOM     28  C   UNL     1       1.220   9.612  18.586  0.00  0.00    +0.000 A 
ATOM     29  C   UNL     1       1.013   9.305  19.928  0.00  0.00    +0.000 A 
ATOM     30  C   UNL     1       1.485   8.102  20.455  0.00  0.00    +0.000 A 
ENDBRANCH  24  25
ENDBRANCH   4  24
TORSDOF 6
ENDMDL
MODEL 3
REMARK VINA RESULT:      -8.1      0.967      1.881
REMARK  Name = 
REMARK  7 active torsions:
REMARK  status: ('A' for Active; 'I' for Inactive)
REMARK    1  A    between atoms: C_1  and  O_2
REMARK    2  A    between atoms: O_2  and  C_3
REMARK    3  A    between atoms: C_7  and  N_8
REMARK    4  A    between atoms: C_9  and  C_11
REMARK    5  A    between atoms: C_11  and  N_12
REMARK    6  A    between atoms: C_15  and  S_16
REMARK    7  A    between atoms: S_16  and  C_17
REMARK                            x       y       z     vdW  Elec       q    Type
REMARK                         _______ _______ _______ _____ _____    ______ ____
ROOT
ATOM      1  N   UNL     1       6.872   5.953  18.292  0.00  0.00    +0.000 N 
ATOM      2  N   UNL     1       5.716   6.005  19.054  0.00  0.00    +0.000 NA
ATOM      3  C   UNL     1       4.902   5.216  18.404  0.00  0.00    +0.000 A 
ATOM      4  C   UNL     1       3.494   4.797  18.689  0.00  0.00    +0.000 A 
ATOM      5  N   UNL     1       2.806   3.977  17.951  0.00  0.00    +0.000 NA
ATOM      6  C   UNL     1       3.454   3.483  16.835  0.00  0.00    +0.000 A 
ATOM      7  C   UNL     1       4.716   3.791  16.488  0.00  0.00    +0.000 A 
ATOM      8  N   UNL     1       5.413   4.658  17.278  0.00  0.00    +0.000 N 
ATOM      9  C   UNL     1       6.706   5.102  17.181  0.00  0.00    +0.000 A 
ATOM     10  O   UNL     1       7.542   4.797  16.347  0.00  0.00    +0.000 OA
ENDROOT
BRANCH   1  11
ATOM     11  C   UNL     1       8.124   6.545  18.692  0.00  0.00    +0.000 C 
BRANCH  11  13
ATOM     12  N   UNL     1       8.997   8.771  19.185  0.00  0.00    +0.000 N 
ATOM     13  C   UNL     1       8.180   8.026  18.346  0.00  0.00    +0.000 C 
ATOM     14  O   UNL     1       7.610   8.440  17.338  0.00  0.00    +0.000 OA
ATOM     15  H   UNL     1       9.408   8.270  19.966  0.00  0.00    +0.000 HD
BRANCH  12  20
ATOM     16  C   UNL     1       9.271  12.339  20.180  0.00  0.00    +0.000 A 
ATOM     17  C   UNL     1       9.673  12.935  18.984  0.00  0.00    +0.000 A 
ATOM     18  C   UNL     1       9.901  12.155  17.857  0.00  0.00    +0.000 A 
ATOM     19  C   UNL     1       9.705  10.775  17.914  0.00  0.00    +0.000 A 
ATOM     20  C   UNL     1       9.270  10.159  19.090  0.00  0.00    +0.000 A 
ATOM     21  C   UNL     1       9.063  10.955  20.231  0.00  0.00    +0.000 A 
BRANCH  16  23
ATOM     22  C   UNL     1       9.018  12.660  22.513  0.00  0.00    +0.000 C 
ATOM     23  O   UNL     1       9.021  13.213  21.203  0.00  0.00    +0.000 OA
ENDBRANCH  16  23
ENDBRANCH  12  20
ENDBRANCH  11  13
ENDBRANCH   1  11
BRANCH   4  24
ATOM     24  S   UNL     1       2.968   5.515  20.163  0.00  0.00    +0.000 S 
BRANCH  24  25
ATOM     25  C   UNL     1       2.306   7.056  19.565  0.00  0.00    +0.000 A 
ATOM     26  C   UNL     1       1.622   7.931  20.415  0.00  0.00    +0.000 A 
ATOM     27  C   UNL     1       1.109   9.134  19.924  0.00  0.00    +0.000 A 
ATOM     28  C   UNL     1       1.286   9.471  18.583  0.00  0.00    +0.000 A 
ATOM     29  C   UNL     1       1.986   8.614  17.738  0.00  0.00    +0.000 A 
ATOM     30  C   UNL     1       2.498   7.410  18.226  0.00  0.00    +0.000 A 
ENDBRANCH  24  25
ENDBRANCH   4  24
TORSDOF 6
ENDMDL
MODEL 4
REMARK VINA RESULT:      -8.1      4.397      6.471
REMARK  Name = 
REMARK  7 active torsions:
REMARK  status: ('A' for Active; 'I' for Inactive)
REMARK    1  A    between atoms: C_1  and  O_2
REMARK    2  A    between atoms: O_2  and  C_3
REMARK    3  A    between atoms: C_7  and  N_8
REMARK    4  A    between atoms: C_9  and  C_11
REMARK    5  A    between atoms: C_11  and  N_12
REMARK    6  A    between atoms: C_15  and  S_16
REMARK    7  A    between atoms: S_16  and  C_17
REMARK                            x       y       z     vdW  Elec       q    Type
REMARK                         _______ _______ _______ _____ _____    ______ ____
ROOT
ATOM      1  N   UNL     1       5.398   5.047  18.756  0.00  0.00    +0.000 N 
ATOM      2  N   UNL     1       4.540   6.133  18.690  0.00  0.00    +0.000 NA
ATOM      3  C   UNL     1       3.477   5.703  19.316  0.00  0.00    +0.000 A 
ATOM      4  C   UNL     1       2.179   6.375  19.635  0.00  0.00    +0.000 A 
ATOM      5  N   UNL     1       1.204   5.820  20.294  0.00  0.00    +0.000 NA
ATOM      6  C   UNL     1       1.422   4.520  20.708  0.00  0.00    +0.000 A 
ATOM      7  C   UNL     1       2.550   3.826  20.479  0.00  0.00    +0.000 A 
ATOM      8  N   UNL     1       3.553   4.430  19.780  0.00  0.00    +0.000 N 
ATOM      9  C   UNL     1       4.802   3.974  19.449  0.00  0.00    +0.000 A 
ATOM     10  O   UNL     1       5.306   2.899  19.728  0.00  0.00    +0.000 OA
ENDROOT
BRANCH   1  11
ATOM     11  C   UNL     1       6.776   5.087  18.334  0.00  0.00    +0.000 C 
BRANCH  11  13
ATOM     12  N   UNL     1       6.801   4.370  16.000  0.00  0.00    +0.000 N 
ATOM     13  C   UNL     1       6.902   5.453  16.862  0.00  0.00    +0.000 C 
ATOM     14  O   UNL     1       6.981   6.635  16.531  0.00  0.00    +0.000 OA
ATOM     15  H   UNL     1       6.723   3.457  16.440  0.00  0.00    +0.000 HD
BRANCH  12  20
ATOM     16  C   UNL     1       6.019   3.514  12.471  0.00  0.00    +0.000 A 
ATOM     17  C   UNL     1       6.931   4.312  11.779  0.00  0.00    +0.000 A 
ATOM     18  C   UNL     1       7.775   5.171  12.474  0.00  0.00    +0.000 A 
ATOM     19  C   UNL     1       7.728   5.219  13.867  0.00  0.00    +0.000 A 
ATOM     20  C   UNL     1       6.847   4.405  14.584  0.00  0.00    +0.000 A 
ATOM     21  C   UNL     1       5.982   3.556  13.871  0.00  0.00    +0.000 A 
BRANCH  16  23
ATOM     22  C   UNL     1       4.025   3.160  11.243  0.00  0.00    +0.000 C 
ATOM     23  O   UNL     1       5.283   2.668  11.687  0.00  0.00    +0.000 OA
ENDBRANCH  16  23
ENDBRANCH  12  20
ENDBRANCH  11  13
ENDBRANCH   1  11
BRANCH   4  24
ATOM     24  S   UNL     1       2.211   7.995  19.053  0.00  0.00    +0.000 S 
BRANCH  24  25
ATOM     25  C   UNL     1       1.235   8.815  20.295  0.00  0.00    +0.000 A 
ATOM     26  C   UNL     1       1.452   8.586  21.658  0.00  0.00    +0.000 A 
ATOM     27  C   UNL     1       0.672   9.238  22.615  0.00  0.00    +0.000 A 
ATOM     28  C   UNL     1      -0.321  10.130  22.215  0.00  0.00    +0.000 A 
ATOM     29  C   UNL     1      -0.526  10.378  20.861  0.00  0.00    +0.000 A 
ATOM     30  C   UNL     1       0.250   9.726  19.901  0.00  0.00    +0.000 A 
ENDBRANCH  24  25
ENDBRANCH   4  24
TORSDOF 6
ENDMDL
MODEL 5
REMARK VINA RESULT:      -7.9      3.532      6.851
REMARK  Name = 
REMARK  7 active torsions:
REMARK  status: ('A' for Active; 'I' for Inactive)
REMARK    1  A    between atoms: C_1  and  O_2
REMARK    2  A    between atoms: O_2  and  C_3
REMARK    3  A    between atoms: C_7  and  N_8
REMARK    4  A    between atoms: C_9  and  C_11
REMARK    5  A    between atoms: C_11  and  N_12
REMARK    6  A    between atoms: C_15  and  S_16
REMARK    7  A    between atoms: S_16  and  C_17
REMARK                            x       y       z     vdW  Elec       q    Type
REMARK                         _______ _______ _______ _____ _____    ______ ____
ROOT
ATOM      1  N   UNL     1       4.072   3.868  19.236  0.00  0.00    +0.000 N 
ATOM      2  N   UNL     1       5.336   4.405  19.423  0.00  0.00    +0.000 NA
ATOM      3  C   UNL     1       5.841   4.386  18.218  0.00  0.00    +0.000 A 
ATOM      4  C   UNL     1       7.165   4.848  17.695  0.00  0.00    +0.000 A 
ATOM      5  N   UNL     1       7.527   4.783  16.448  0.00  0.00    +0.000 NA
ATOM      6  C   UNL     1       6.598   4.243  15.579  0.00  0.00    +0.000 A 
ATOM      7  C   UNL     1       5.381   3.802  15.942  0.00  0.00    +0.000 A 
ATOM      8  N   UNL     1       5.030   3.876  17.258  0.00  0.00    +0.000 N 
ATOM      9  C   UNL     1       3.857   3.543  17.882  0.00  0.00    +0.000 A 
ATOM     10  O   UNL     1       2.837   3.105  17.376  0.00  0.00    +0.000 OA
ENDROOT
BRANCH   1  11
ATOM     11  C   UNL     1       3.060   3.825  20.262  0.00  0.00    +0.000 C 
BRANCH  11  13
ATOM     12  N   UNL     1       2.770   6.205  19.798  0.00  0.00    +0.000 N 
ATOM     13  C   UNL     1       2.138   5.034  20.192  0.00  0.00    +0.000 C 
ATOM     14  O   UNL     1       0.930   4.893  20.381  0.00  0.00    +0.000 OA
ATOM     15  H   UNL     1       3.776   6.145  19.667  0.00  0.00    +0.000 HD
BRANCH  12  20
ATOM     16  C   UNL     1       0.884   9.308  20.578  0.00  0.00    +0.000 A 
ATOM     17  C   UNL     1       0.847   9.936  19.333  0.00  0.00    +0.000 A 
ATOM     18  C   UNL     1       1.486   9.360  18.241  0.00  0.00    +0.000 A 
ATOM     19  C   UNL     1       2.146   8.139  18.384  0.00  0.00    +0.000 A 
ATOM     20  C   UNL     1       2.168   7.474  19.613  0.00  0.00    +0.000 A 
ATOM     21  C   UNL     1       1.538   8.076  20.716  0.00  0.00    +0.000 A 
BRANCH  16  23
ATOM     22  C   UNL     1       0.242   9.356  22.857  0.00  0.00    +0.000 C 
ATOM     23  O   UNL     1       0.172   9.938  21.562  0.00  0.00    +0.000 OA
ENDBRANCH  16  23
ENDBRANCH  12  20
ENDBRANCH  11  13
ENDBRANCH   1  11
BRANCH   4  24
ATOM     24  S   UNL     1       8.087   5.525  18.981  0.00  0.00    +0.000 S 
BRANCH  24  25
ATOM     25  C   UNL     1       8.062   7.250  18.537  0.00  0.00    +0.000 A 
ATOM     26  C   UNL     1       7.190   7.734  17.558  0.00  0.00    +0.000 A 
ATOM     27  C   UNL     1       7.189   9.091  17.224  0.00  0.00    +0.000 A 
ATOM     28  C   UNL     1       8.054   9.969  17.874  0.00  0.00    +0.000 A 
ATOM     29  C   UNL     1       8.910   9.494  18.865  0.00  0.00    +0.000 A 
ATOM     30  C   UNL     1       8.914   8.139  19.199  0.00  0.00    +0.000 A 
ENDBRANCH  24  25
ENDBRANCH   4  24
TORSDOF 6
ENDMDL
MODEL 6
REMARK VINA RESULT:      -7.7      4.619      6.307
REMARK  Name = 
REMARK  7 active torsions:
REMARK  status: ('A' for Active; 'I' for Inactive)
REMARK    1  A    between atoms: C_1  and  O_2
REMARK    2  A    between atoms: O_2  and  C_3
REMARK    3  A    between atoms: C_7  and  N_8
REMARK    4  A    between atoms: C_9  and  C_11
REMARK    5  A    between atoms: C_11  and  N_12
REMARK    6  A    between atoms: C_15  and  S_16
REMARK    7  A    between atoms: S_16  and  C_17
REMARK                            x       y       z     vdW  Elec       q    Type
REMARK                         _______ _______ _______ _____ _____    ______ ____
ROOT
ATOM      1  N   UNL     1       5.506   4.847  18.846  0.00  0.00    +0.000 N 
ATOM      2  N   UNL     1       4.656   5.912  18.589  0.00  0.00    +0.000 NA
ATOM      3  C   UNL     1       3.498   5.465  18.995  0.00  0.00    +0.000 A 
ATOM      4  C   UNL     1       2.149   6.111  19.034  0.00  0.00    +0.000 A 
ATOM      5  N   UNL     1       1.073   5.541  19.492  0.00  0.00    +0.000 NA
ATOM      6  C   UNL     1       1.229   4.253  19.965  0.00  0.00    +0.000 A 
ATOM      7  C   UNL     1       2.393   3.582  19.980  0.00  0.00    +0.000 A 
ATOM      8  N   UNL     1       3.505   4.200  19.487  0.00  0.00    +0.000 N 
ATOM      9  C   UNL     1       4.804   3.770  19.424  0.00  0.00    +0.000 A 
ATOM     10  O   UNL     1       5.263   2.710  19.817  0.00  0.00    +0.000 OA
ENDROOT
BRANCH   1  11
ATOM     11  C   UNL     1       6.939   4.914  18.710  0.00  0.00    +0.000 C 
BRANCH  11  13
ATOM     12  N   UNL     1       6.501   4.955  16.308  0.00  0.00    +0.000 N 
ATOM     13  C   UNL     1       7.387   4.557  17.300  0.00  0.00    +0.000 C 
ATOM     14  O   UNL     1       8.494   4.052  17.120  0.00  0.00    +0.000 OA
ATOM     15  H   UNL     1       5.634   5.374  16.629  0.00  0.00    +0.000 HD
BRANCH  12  20
ATOM     16  C   UNL     1       5.906   3.713  12.859  0.00  0.00    +0.000 A 
ATOM     17  C   UNL     1       6.958   4.306  12.160  0.00  0.00    +0.000 A 
ATOM     18  C   UNL     1       7.840   5.156  12.816  0.00  0.00    +0.000 A 
ATOM     19  C   UNL     1       7.689   5.400  14.181  0.00  0.00    +0.000 A 
ATOM     20  C   UNL     1       6.663   4.791  14.910  0.00  0.00    +0.000 A 
ATOM     21  C   UNL     1       5.763   3.950  14.232  0.00  0.00    +0.000 A 
BRANCH  16  23
ATOM     22  C   UNL     1       5.824   1.761  11.520  0.00  0.00    +0.000 C 
ATOM     23  O   UNL     1       5.139   2.851  12.123  0.00  0.00    +0.000 OA
ENDBRANCH  16  23
ENDBRANCH  12  20
ENDBRANCH  11  13
ENDBRANCH   1  11
BRANCH   4  24
ATOM     24  S   UNL     1       2.265   7.723  18.442  0.00  0.00    +0.000 S 
BRANCH  24  25
ATOM     25  C   UNL     1       1.441   8.616  19.742  0.00  0.00    +0.000 A 
ATOM     26  C   UNL     1       0.597   9.695  19.459  0.00  0.00    +0.000 A 
ATOM     27  C   UNL     1      -0.038  10.384  20.496  0.00  0.00    +0.000 A 
ATOM     28  C   UNL     1       0.161   9.991  21.818  0.00  0.00    +0.000 A 
ATOM     29  C   UNL     1       0.983   8.903  22.103  0.00  0.00    +0.000 A 
ATOM     30  C   UNL     1       1.620   8.215  21.069  0.00  0.00    +0.000 A 
ENDBRANCH  24  25
ENDBRANCH   4  24
TORSDOF 6
ENDMDL
MODEL 7
REMARK VINA RESULT:      -7.6      4.703      8.939
REMARK  Name = 
REMARK  7 active torsions:
REMARK  status: ('A' for Active; 'I' for Inactive)
REMARK    1  A    between atoms: C_1  and  O_2
REMARK    2  A    between atoms: O_2  and  C_3
REMARK    3  A    between atoms: C_7  and  N_8
REMARK    4  A    between atoms: C_9  and  C_11
REMARK    5  A    between atoms: C_11  and  N_12
REMARK    6  A    between atoms: C_15  and  S_16
REMARK    7  A    between atoms: S_16  and  C_17
REMARK                            x       y       z     vdW  Elec       q    Type
REMARK                         _______ _______ _______ _____ _____    ______ ____
ROOT
ATOM      1  N   UNL     1       1.917   8.188  19.569  0.00  0.00    +0.000 N 
ATOM      2  N   UNL     1       2.694   7.471  18.673  0.00  0.00    +0.000 NA
ATOM      3  C   UNL     1       2.717   6.276  19.199  0.00  0.00    +0.000 A 
ATOM      4  C   UNL     1       3.353   5.004  18.734  0.00  0.00    +0.000 A 
ATOM      5  N   UNL     1       3.273   3.868  19.363  0.00  0.00    +0.000 NA
ATOM      6  C   UNL     1       2.544   3.879  20.535  0.00  0.00    +0.000 A 
ATOM      7  C   UNL     1       1.930   4.963  21.041  0.00  0.00    +0.000 A 
ATOM      8  N   UNL     1       2.035   6.143  20.365  0.00  0.00    +0.000 N 
ATOM      9  C   UNL     1       1.483   7.369  20.629  0.00  0.00    +0.000 A 
ATOM     10  O   UNL     1       0.745   7.675  21.550  0.00  0.00    +0.000 OA
ENDROOT
BRANCH   1  11
ATOM     11  C   UNL     1       1.469   9.539  19.339  0.00  0.00    +0.000 C 
BRANCH  11  13
ATOM     12  N   UNL     1      -0.745  10.351  18.705  0.00  0.00    +0.000 N 
ATOM     13  C   UNL     1       0.347   9.591  18.311  0.00  0.00    +0.000 C 
ATOM     14  O   UNL     1       0.504   9.068  17.209  0.00  0.00    +0.000 OA
ATOM     15  H   UNL     1      -0.708  10.727  19.648  0.00  0.00    +0.000 HD
BRANCH  12  20
ATOM     16  C   UNL     1      -4.122  11.642  17.853  0.00  0.00    +0.000 A 
ATOM     17  C   UNL     1      -4.326  11.086  16.590  0.00  0.00    +0.000 A 
ATOM     18  C   UNL     1      -3.330  10.321  15.995  0.00  0.00    +0.000 A 
ATOM     19  C   UNL     1      -2.132  10.089  16.671  0.00  0.00    +0.000 A 
ATOM     20  C   UNL     1      -1.918  10.607  17.951  0.00  0.00    +0.000 A 
ATOM     21  C   UNL     1      -2.923  11.397  18.535  0.00  0.00    +0.000 A 
BRANCH  16  23
ATOM     22  C   UNL     1      -6.363  12.349  17.554  0.00  0.00    +0.000 C 
ATOM     23  O   UNL     1      -5.193  12.325  18.362  0.00  0.00    +0.000 OA
ENDBRANCH  16  23
ENDBRANCH  12  20
ENDBRANCH  11  13
ENDBRANCH   1  11
BRANCH   4  24
ATOM     24  S   UNL     1       4.139   5.271  17.226  0.00  0.00    +0.000 S 
BRANCH  24  25
ATOM     25  C   UNL     1       5.711   5.902  17.777  0.00  0.00    +0.000 A 
ATOM     26  C   UNL     1       6.304   7.009  17.162  0.00  0.00    +0.000 A 
ATOM     27  C   UNL     1       7.539   7.485  17.609  0.00  0.00    +0.000 A 
ATOM     28  C   UNL     1       8.181   6.862  18.678  0.00  0.00    +0.000 A 
ATOM     29  C   UNL     1       7.583   5.773  19.307  0.00  0.00    +0.000 A 
ATOM     30  C   UNL     1       6.350   5.294  18.862  0.00  0.00    +0.000 A 
ENDBRANCH  24  25
ENDBRANCH   4  24
TORSDOF 6
ENDMDL
MODEL 8
REMARK VINA RESULT:      -7.6      3.179      6.508
REMARK  Name = 
REMARK  7 active torsions:
REMARK  status: ('A' for Active; 'I' for Inactive)
REMARK    1  A    between atoms: C_1  and  O_2
REMARK    2  A    between atoms: O_2  and  C_3
REMARK    3  A    between atoms: C_7  and  N_8
REMARK    4  A    between atoms: C_9  and  C_11
REMARK    5  A    between atoms: C_11  and  N_12
REMARK    6  A    between atoms: C_15  and  S_16
REMARK    7  A    between atoms: S_16  and  C_17
REMARK                            x       y       z     vdW  Elec       q    Type
REMARK                         _______ _______ _______ _____ _____    ______ ____
ROOT
ATOM      1  N   UNL     1       4.105   3.715  19.099  0.00  0.00    +0.000 N 
ATOM      2  N   UNL     1       5.350   4.285  19.311  0.00  0.00    +0.000 NA
ATOM      3  C   UNL     1       5.853   4.343  18.107  0.00  0.00    +0.000 A 
ATOM      4  C   UNL     1       7.159   4.875  17.607  0.00  0.00    +0.000 A 
ATOM      5  N   UNL     1       7.521   4.883  16.358  0.00  0.00    +0.000 NA
ATOM      6  C   UNL     1       6.610   4.355  15.464  0.00  0.00    +0.000 A 
ATOM      7  C   UNL     1       5.409   3.855  15.805  0.00  0.00    +0.000 A 
ATOM      8  N   UNL     1       5.058   3.853  17.123  0.00  0.00    +0.000 N 
ATOM      9  C   UNL     1       3.898   3.450  17.730  0.00  0.00    +0.000 A 
ATOM     10  O   UNL     1       2.893   3.003  17.204  0.00  0.00    +0.000 OA
ENDROOT
BRANCH   1  11
ATOM     11  C   UNL     1       3.096   3.587  20.121  0.00  0.00    +0.000 C 
BRANCH  11  13
ATOM     12  N   UNL     1       2.697   5.996  20.160  0.00  0.00    +0.000 N 
ATOM     13  C   UNL     1       2.106   4.743  20.081  0.00  0.00    +0.000 C 
ATOM     14  O   UNL     1       0.912   4.518  19.890  0.00  0.00    +0.000 OA
ATOM     15  H   UNL     1       3.703   6.005  20.303  0.00  0.00    +0.000 HD
BRANCH  12  20
ATOM     16  C   UNL     1       1.634   9.325  18.902  0.00  0.00    +0.000 A 
ATOM     17  C   UNL     1       0.868   9.798  19.968  0.00  0.00    +0.000 A 
ATOM     18  C   UNL     1       0.661   9.000  21.087  0.00  0.00    +0.000 A 
ATOM     19  C   UNL     1       1.239   7.732  21.156  0.00  0.00    +0.000 A 
ATOM     20  C   UNL     1       2.038   7.250  20.115  0.00  0.00    +0.000 A 
ATOM     21  C   UNL     1       2.222   8.056  18.978  0.00  0.00    +0.000 A 
BRANCH  16  23
ATOM     22  C   UNL     1       1.867  11.590  18.253  0.00  0.00    +0.000 C 
ATOM     23  O   UNL     1       1.816  10.219  17.882  0.00  0.00    +0.000 OA
ENDBRANCH  16  23
ENDBRANCH  12  20
ENDBRANCH  11  13
ENDBRANCH   1  11
BRANCH   4  24
ATOM     24  S   UNL     1       8.061   5.519  18.925  0.00  0.00    +0.000 S 
BRANCH  24  25
ATOM     25  C   UNL     1       8.053   7.252  18.518  0.00  0.00    +0.000 A 
ATOM     26  C   UNL     1       7.206   7.762  17.528  0.00  0.00    +0.000 A 
ATOM     27  C   UNL     1       7.219   9.125  17.224  0.00  0.00    +0.000 A 
ATOM     28  C   UNL     1       8.070   9.986  17.914  0.00  0.00    +0.000 A 
ATOM     29  C   UNL     1       8.899   9.486  18.915  0.00  0.00    +0.000 A 
ATOM     30  C   UNL     1       8.890   8.124  19.221  0.00  0.00    +0.000 A 
ENDBRANCH  24  25
ENDBRANCH   4  24
TORSDOF 6
ENDMDL
MODEL 9
REMARK VINA RESULT:      -7.6      4.533      6.633
REMARK  Name = 
REMARK  7 active torsions:
REMARK  status: ('A' for Active; 'I' for Inactive)
REMARK    1  A    between atoms: C_1  and  O_2
REMARK    2  A    between atoms: O_2  and  C_3
REMARK    3  A    between atoms: C_7  and  N_8
REMARK    4  A    between atoms: C_9  and  C_11
REMARK    5  A    between atoms: C_11  and  N_12
REMARK    6  A    between atoms: C_15  and  S_16
REMARK    7  A    between atoms: S_16  and  C_17
REMARK                            x       y       z     vdW  Elec       q    Type
REMARK                         _______ _______ _______ _____ _____    ______ ____
ROOT
ATOM      1  N   UNL     1       5.563   4.944  18.375  0.00  0.00    +0.000 N 
ATOM      2  N   UNL     1       4.809   6.077  18.111  0.00  0.00    +0.000 NA
ATOM      3  C   UNL     1       3.741   5.892  18.841  0.00  0.00    +0.000 A 
ATOM      4  C   UNL     1       2.529   6.744  19.051  0.00  0.00    +0.000 A 
ATOM      5  N   UNL     1       1.539   6.435  19.836  0.00  0.00    +0.000 NA
ATOM      6  C   UNL     1       1.652   5.231  20.502  0.00  0.00    +0.000 A 
ATOM      7  C   UNL     1       2.697   4.392  20.389  0.00  0.00    +0.000 A 
ATOM      8  N   UNL     1       3.719   4.738  19.554  0.00  0.00    +0.000 N 
ATOM      9  C   UNL     1       4.902   4.100  19.289  0.00  0.00    +0.000 A 
ATOM     10  O   UNL     1       5.314   3.056  19.768  0.00  0.00    +0.000 OA
ENDROOT
BRANCH   1  11
ATOM     11  C   UNL     1       6.916   4.757  17.916  0.00  0.00    +0.000 C 
BRANCH  11  13
ATOM     12  N   UNL     1       6.542   4.102  15.594  0.00  0.00    +0.000 N 
ATOM     13  C   UNL     1       7.056   5.079  16.435  0.00  0.00    +0.000 C 
ATOM     14  O   UNL     1       7.503   6.171  16.087  0.00  0.00    +0.000 OA
ATOM     15  H   UNL     1       6.195   3.263  16.047  0.00  0.00    +0.000 HD
BRANCH  12  20
ATOM     16  C   UNL     1       5.372   3.450  12.129  0.00  0.00    +0.000 A 
ATOM     17  C   UNL     1       6.379   4.052  11.374  0.00  0.00    +0.000 A 
ATOM     18  C   UNL     1       7.423   4.717  12.006  0.00  0.00    +0.000 A 
ATOM     19  C   UNL     1       7.478   4.763  13.399  0.00  0.00    +0.000 A 
ATOM     20  C   UNL     1       6.500   4.138  14.177  0.00  0.00    +0.000 A 
ATOM     21  C   UNL     1       5.437   3.487  13.528  0.00  0.00    +0.000 A 
BRANCH  16  23
ATOM     22  C   UNL     1       3.598   3.569  10.565  0.00  0.00    +0.000 C 
ATOM     23  O   UNL     1       4.430   2.776  11.401  0.00  0.00    +0.000 OA
ENDBRANCH  16  23
ENDBRANCH  12  20
ENDBRANCH  11  13
ENDBRANCH   1  11
BRANCH   4  24
ATOM     24  S   UNL     1       2.687   8.202  18.149  0.00  0.00    +0.000 S 
BRANCH  24  25
ATOM     25  C   UNL     1       1.327   9.147  18.801  0.00  0.00    +0.000 A 
ATOM     26  C   UNL     1       0.337   9.669  17.962  0.00  0.00    +0.000 A 
ATOM     27  C   UNL     1      -0.720  10.411  18.495  0.00  0.00    +0.000 A 
ATOM     28  C   UNL     1      -0.798  10.624  19.870  0.00  0.00    +0.000 A 
ATOM     29  C   UNL     1       0.173  10.088  20.711  0.00  0.00    +0.000 A 
ATOM     30  C   UNL     1       1.232   9.348  20.181  0.00  0.00    +0.000 A 
ENDBRANCH  24  25
ENDBRANCH   4  24
TORSDOF 6
ENDMDL
