MODEL 1
REMARK VINA RESULT:      -8.1      0.000      0.000
REMARK  Name = 
REMARK  11 active torsions:
REMARK  status: ('A' for Active; 'I' for Inactive)
REMARK    1  A    between atoms: C_1  and  C_2
REMARK    2  A    between atoms: C_2  and  C_3
REMARK    3  A    between atoms: C_3  and  C_4
REMARK    4  A    between atoms: C_4  and  N_5
REMARK    5  A    between atoms: C_11  and  C_12
REMARK    6  A    between atoms: C_12  and  N_13
REMARK    7  A    between atoms: N_13  and  C_14
REMARK    8  A    between atoms: N_13  and  C_22
REMARK    9  A    between atoms: C_14  and  C_15
REMARK   10  A    between atoms: C_22  and  C_23
REMARK   11  A    between atoms: C_26  and  N_27
REMARK                            x       y       z     vdW  Elec       q    Type
REMARK                         _______ _______ _______ _____ _____    ______ ____
ROOT
ATOM      1  N   UNL     1       4.009   5.818  18.561  0.00  0.00    +0.000 NA
ENDROOT
BRANCH   1   2
ATOM      2  C   UNL     1       5.290   5.335  19.127  0.00  0.00    +0.000 C 
BRANCH   2   9
ATOM      3  N   UNL     1       6.318   3.918  14.008  0.00  0.00    +0.000 N 
ATOM      4  C   UNL     1       6.984   4.975  14.577  0.00  0.00    +0.000 C 
ATOM      5  O   UNL     1       7.851   5.607  13.979  0.00  0.00    +0.000 OA
ATOM      6  N   UNL     1       6.613   5.249  15.873  0.00  0.00    +0.000 N 
ATOM      7  C   UNL     1       7.254   6.309  16.619  0.00  0.00    +0.000 C 
ATOM      8  C   UNL     1       7.510   5.670  17.969  0.00  0.00    +0.000 C 
ATOM      9  C   UNL     1       6.325   4.700  18.182  0.00  0.00    +0.000 C 
ATOM     10  C   UNL     1       5.815   4.408  16.762  0.00  0.00    +0.000 C 
ATOM     11  H   UNL     1       5.352   3.860  14.288  0.00  0.00    +0.000 HD
BRANCH   3  12
ATOM     12  C   UNL     1       6.633   3.532  12.648  0.00  0.00    +0.000 C 
BRANCH  12  13
ATOM     13  C   UNL     1       5.387   3.125  11.864  0.00  0.00    +0.000 C 
BRANCH  13  15
ATOM     14  C   UNL     1       7.023   1.387  11.037  0.00  0.00    +0.000 C 
ATOM     15  C   UNL     1       5.561   1.738  11.254  0.00  0.00    +0.000 C 
ENDBRANCH  13  15
ENDBRANCH  12  13
ENDBRANCH   3  12
ENDBRANCH   2   9
ENDBRANCH   1   2
BRANCH   1  16
ATOM     16  C   UNL     1       3.195   4.718  17.972  0.00  0.00    +0.000 C 
BRANCH  16  17
ATOM     17  C   UNL     1       2.579   3.823  19.041  0.00  0.00    +0.000 A 
ATOM     18  C   UNL     1       1.188   3.823  19.241  0.00  0.00    +0.000 A 
ATOM     19  C   UNL     1       0.637   3.230  20.378  0.00  0.00    +0.000 A 
ATOM     20  C   UNL     1       1.468   2.616  21.313  0.00  0.00    +0.000 A 
ATOM     21 CL   UNL     1       0.803   2.009  22.779  0.00  0.00    +0.000 Cl
ATOM     22  C   UNL     1       2.840   2.530  21.087  0.00  0.00    +0.000 A 
ATOM     23  C   UNL     1       3.395   3.121  19.947  0.00  0.00    +0.000 A 
ENDBRANCH  16  17
ENDBRANCH   1  16
BRANCH   1  24
ATOM     24  C   UNL     1       3.226   6.474  19.648  0.00  0.00    +0.000 C 
BRANCH  24  25
ATOM     25  C   UNL     1       2.440   7.672  19.186  0.00  0.00    +0.000 A 
ATOM     26  C   UNL     1       2.417   8.251  17.931  0.00  0.00    +0.000 A 
ATOM     27  C   UNL     1       1.506   9.347  17.857  0.00  0.00    +0.000 A 
ATOM     28  C   UNL     1       0.868   9.550  19.065  0.00  0.00    +0.000 A 
ATOM     29  S   UNL     1       1.362   8.458  20.261  0.00  0.00    +0.000 S 
BRANCH  28  30
ATOM     30  N   UNL     1      -0.130  10.552  19.353  0.00  0.00    +0.000 N 
ATOM     31  O   UNL     1       0.249  11.529  20.013  0.00  0.00    +0.000 OA
ATOM     32  O   UNL     1      -1.277  10.371  18.929  0.00  0.00    +0.000 OA
ENDBRANCH  28  30
ENDBRANCH  24  25
ENDBRANCH   1  24
TORSDOF 10
ENDMDL
MODEL 2
REMARK VINA RESULT:      -7.9      3.442      5.217
REMARK  Name = 
REMARK  11 active torsions:
REMARK  status: ('A' for Active; 'I' for Inactive)
REMARK    1  A    between atoms: C_1  and  C_2
REMARK    2  A    between atoms: C_2  and  C_3
REMARK    3  A    between atoms: C_3  and  C_4
REMARK    4  A    between atoms: C_4  and  N_5
REMARK    5  A    between atoms: C_11  and  C_12
REMARK    6  A    between atoms: C_12  and  N_13
REMARK    7  A    between atoms: N_13  and  C_14
REMARK    8  A    between atoms: N_13  and  C_22
REMARK    9  A    between atoms: C_14  and  C_15
REMARK   10  A    between atoms: C_22  and  C_23
REMARK   11  A    between atoms: C_26  and  N_27
REMARK                            x       y       z     vdW  Elec       q    Type
REMARK                         _______ _______ _______ _____ _____    ______ ____
ROOT
ATOM      1  N   UNL     1       2.417   7.325  18.731  0.00  0.00    +0.000 NA
ENDROOT
BRANCH   1   2
ATOM      2  C   UNL     1       3.791   7.219  18.188  0.00  0.00    +0.000 C 
BRANCH   2   9
ATOM      3  N   UNL     1       6.668   5.373  13.995  0.00  0.00    +0.000 N 
ATOM      4  C   UNL     1       7.057   5.081  15.278  0.00  0.00    +0.000 C 
ATOM      5  O   UNL     1       8.027   4.370  15.528  0.00  0.00    +0.000 OA
ATOM      6  N   UNL     1       6.257   5.630  16.253  0.00  0.00    +0.000 N 
ATOM      7  C   UNL     1       6.516   5.379  17.653  0.00  0.00    +0.000 C 
ATOM      8  C   UNL     1       5.137   5.081  18.207  0.00  0.00    +0.000 C 
ATOM      9  C   UNL     1       4.176   5.966  17.381  0.00  0.00    +0.000 C 
ATOM     10  C   UNL     1       4.942   6.244  16.079  0.00  0.00    +0.000 C 
ATOM     11  H   UNL     1       6.305   6.308  13.893  0.00  0.00    +0.000 HD
BRANCH   3  12
ATOM     12  C   UNL     1       7.432   4.841  12.884  0.00  0.00    +0.000 C 
BRANCH  12  13
ATOM     13  C   UNL     1       6.801   3.575  12.309  0.00  0.00    +0.000 C 
BRANCH  13  15
ATOM     14  C   UNL     1       4.671   2.599  11.362  0.00  0.00    +0.000 C 
ATOM     15  C   UNL     1       5.298   3.758  12.118  0.00  0.00    +0.000 C 
ENDBRANCH  13  15
ENDBRANCH  12  13
ENDBRANCH   3  12
ENDBRANCH   2   9
ENDBRANCH   1   2
BRANCH   1  16
ATOM     16  C   UNL     1       1.809   8.662  18.487  0.00  0.00    +0.000 C 
BRANCH  16  17
ATOM     17  C   UNL     1       1.252   9.283  19.764  0.00  0.00    +0.000 A 
ATOM     18  C   UNL     1       1.288   8.560  20.968  0.00  0.00    +0.000 A 
ATOM     19  C   UNL     1       0.548   8.989  22.072  0.00  0.00    +0.000 A 
ATOM     20  C   UNL     1      -0.216  10.151  21.987  0.00  0.00    +0.000 A 
ATOM     21 CL   UNL     1      -1.234  10.601  23.298  0.00  0.00    +0.000 Cl
ATOM     22  C   UNL     1      -0.193  10.925  20.830  0.00  0.00    +0.000 A 
ATOM     23  C   UNL     1       0.549  10.500  19.722  0.00  0.00    +0.000 A 
ENDBRANCH  16  17
ENDBRANCH   1  16
BRANCH   1  24
ATOM     24  C   UNL     1       1.569   6.280  18.088  0.00  0.00    +0.000 C 
BRANCH  24  25
ATOM     25  C   UNL     1       1.585   4.960  18.813  0.00  0.00    +0.000 A 
ATOM     26  C   UNL     1       1.447   3.690  18.287  0.00  0.00    +0.000 A 
ATOM     27  C   UNL     1       1.568   2.675  19.283  0.00  0.00    +0.000 A 
ATOM     28  C   UNL     1       1.801   3.222  20.529  0.00  0.00    +0.000 A 
ATOM     29  S   UNL     1       1.858   4.914  20.504  0.00  0.00    +0.000 S 
BRANCH  28  30
ATOM     30  N   UNL     1       1.996   2.499  21.762  0.00  0.00    +0.000 N 
ATOM     31  O   UNL     1       3.167   2.233  22.063  0.00  0.00    +0.000 OA
ATOM     32  O   UNL     1       0.997   2.198  22.426  0.00  0.00    +0.000 OA
ENDBRANCH  28  30
ENDBRANCH  24  25
ENDBRANCH   1  24
TORSDOF 10
ENDMDL
MODEL 3
REMARK VINA RESULT:      -7.9      1.088      1.179
REMARK  Name = 
REMARK  11 active torsions:
REMARK  status: ('A' for Active; 'I' for Inactive)
REMARK    1  A    between atoms: C_1  and  C_2
REMARK    2  A    between atoms: C_2  and  C_3
REMARK    3  A    between atoms: C_3  and  C_4
REMARK    4  A    between atoms: C_4  and  N_5
REMARK    5  A    between atoms: C_11  and  C_12
REMARK    6  A    between atoms: C_12  and  N_13
REMARK    7  A    between atoms: N_13  and  C_14
REMARK    8  A    between atoms: N_13  and  C_22
REMARK    9  A    between atoms: C_14  and  C_15
REMARK   10  A    between atoms: C_22  and  C_23
REMARK   11  A    between atoms: C_26  and  N_27
REMARK                            x       y       z     vdW  Elec       q    Type
REMARK                         _______ _______ _______ _____ _____    ______ ____
ROOT
ATOM      1  N   UNL     1       3.545   6.034  17.718  0.00  0.00    +0.000 NA
ENDROOT
BRANCH   1   2
ATOM      2  C   UNL     1       4.520   5.181  18.438  0.00  0.00    +0.000 C 
BRANCH   2   9
ATOM      3  N   UNL     1       6.104   3.748  13.468  0.00  0.00    +0.000 N 
ATOM      4  C   UNL     1       6.807   4.698  14.167  0.00  0.00    +0.000 C 
ATOM      5  O   UNL     1       7.826   5.223  13.726  0.00  0.00    +0.000 OA
ATOM      6  N   UNL     1       6.287   4.990  15.407  0.00  0.00    +0.000 N 
ATOM      7  C   UNL     1       6.939   5.942  16.278  0.00  0.00    +0.000 C 
ATOM      8  C   UNL     1       6.911   5.248  17.624  0.00  0.00    +0.000 C 
ATOM      9  C   UNL     1       5.594   4.436  17.627  0.00  0.00    +0.000 C 
ATOM     10  C   UNL     1       5.266   4.243  16.138  0.00  0.00    +0.000 C 
ATOM     11  H   UNL     1       5.108   3.811  13.604  0.00  0.00    +0.000 HD
BRANCH   3  12
ATOM     12  C   UNL     1       6.565   3.352  12.152  0.00  0.00    +0.000 C 
BRANCH  12  13
ATOM     13  C   UNL     1       5.742   2.200  11.579  0.00  0.00    +0.000 C 
BRANCH  13  15
ATOM     14  C   UNL     1       6.124  -0.281  11.293  0.00  0.00    +0.000 C 
ATOM     15  C   UNL     1       6.653   1.115  11.013  0.00  0.00    +0.000 C 
ENDBRANCH  13  15
ENDBRANCH  12  13
ENDBRANCH   3  12
ENDBRANCH   2   9
ENDBRANCH   1   2
BRANCH   1  16
ATOM     16  C   UNL     1       2.136   5.724  18.088  0.00  0.00    +0.000 C 
BRANCH  16  17
ATOM     17  C   UNL     1       2.047   4.648  19.164  0.00  0.00    +0.000 A 
ATOM     18  C   UNL     1       1.319   3.471  18.922  0.00  0.00    +0.000 A 
ATOM     19  C   UNL     1       0.998   2.609  19.972  0.00  0.00    +0.000 A 
ATOM     20  C   UNL     1       1.419   2.906  21.267  0.00  0.00    +0.000 A 
ATOM     21 CL   UNL     1       0.907   1.918  22.579  0.00  0.00    +0.000 Cl
ATOM     22  C   UNL     1       2.216   4.022  21.510  0.00  0.00    +0.000 A 
ATOM     23  C   UNL     1       2.541   4.887  20.460  0.00  0.00    +0.000 A 
ENDBRANCH  16  17
ENDBRANCH   1  16
BRANCH   1  24
ATOM     24  C   UNL     1       3.831   7.461  18.042  0.00  0.00    +0.000 C 
BRANCH  24  25
ATOM     25  C   UNL     1       2.595   8.272  18.332  0.00  0.00    +0.000 A 
ATOM     26  C   UNL     1       1.796   8.966  17.443  0.00  0.00    +0.000 A 
ATOM     27  C   UNL     1       0.676   9.575  18.084  0.00  0.00    +0.000 A 
ATOM     28  C   UNL     1       0.670   9.310  19.440  0.00  0.00    +0.000 A 
ATOM     29  S   UNL     1       1.986   8.364  19.931  0.00  0.00    +0.000 S 
BRANCH  28  30
ATOM     30  N   UNL     1      -0.319   9.745  20.396  0.00  0.00    +0.000 N 
ATOM     31  O   UNL     1      -0.380   9.103  21.453  0.00  0.00    +0.000 OA
ATOM     32  O   UNL     1      -1.029  10.714  20.102  0.00  0.00    +0.000 OA
ENDBRANCH  28  30
ENDBRANCH  24  25
ENDBRANCH   1  24
TORSDOF 10
ENDMDL
MODEL 4
REMARK VINA RESULT:      -7.6      3.170      9.219
REMARK  Name = 
REMARK  11 active torsions:
REMARK  status: ('A' for Active; 'I' for Inactive)
REMARK    1  A    between atoms: C_1  and  C_2
REMARK    2  A    between atoms: C_2  and  C_3
REMARK    3  A    between atoms: C_3  and  C_4
REMARK    4  A    between atoms: C_4  and  N_5
REMARK    5  A    between atoms: C_11  and  C_12
REMARK    6  A    between atoms: C_12  and  N_13
REMARK    7  A    between atoms: N_13  and  C_14
REMARK    8  A    between atoms: N_13  and  C_22
REMARK    9  A    between atoms: C_14  and  C_15
REMARK   10  A    between atoms: C_22  and  C_23
REMARK   11  A    between atoms: C_26  and  N_27
REMARK                            x       y       z     vdW  Elec       q    Type
REMARK                         _______ _______ _______ _____ _____    ______ ____
ROOT
ATOM      1  N   UNL     1       2.552   7.445  18.471  0.00  0.00    +0.000 NA
ENDROOT
BRANCH   1   2
ATOM      2  C   UNL     1       1.599   8.529  18.801  0.00  0.00    +0.000 C 
BRANCH   2   9
ATOM      3  N   UNL     1      -0.580  12.269  22.046  0.00  0.00    +0.000 N 
ATOM      4  C   UNL     1      -0.767  10.935  22.310  0.00  0.00    +0.000 C 
ATOM      5  O   UNL     1      -1.387  10.538  23.294  0.00  0.00    +0.000 OA
ATOM      6  N   UNL     1      -0.184  10.088  21.397  0.00  0.00    +0.000 N 
ATOM      7  C   UNL     1      -0.260   8.654  21.562  0.00  0.00    +0.000 C 
ATOM      8  C   UNL     1       1.155   8.200  21.266  0.00  0.00    +0.000 C 
ATOM      9  C   UNL     1       1.673   9.184  20.191  0.00  0.00    +0.000 C 
ATOM     10  C   UNL     1       0.794  10.433  20.368  0.00  0.00    +0.000 C 
ATOM     11  H   UNL     1      -0.599  12.485  21.061  0.00  0.00    +0.000 HD
BRANCH   3  12
ATOM     12  C   UNL     1      -1.142  13.256  22.946  0.00  0.00    +0.000 C 
BRANCH  12  13
ATOM     13  C   UNL     1      -2.199  14.121  22.262  0.00  0.00    +0.000 C 
BRANCH  13  15
ATOM     14  C   UNL     1      -3.994  12.920  20.952  0.00  0.00    +0.000 C 
ATOM     15  C   UNL     1      -2.600  13.522  20.918  0.00  0.00    +0.000 C 
ENDBRANCH  13  15
ENDBRANCH  12  13
ENDBRANCH   3  12
ENDBRANCH   2   9
ENDBRANCH   1   2
BRANCH   1  16
ATOM     16  C   UNL     1       1.869   6.217  17.974  0.00  0.00    +0.000 C 
BRANCH  16  17
ATOM     17  C   UNL     1       1.928   5.078  18.986  0.00  0.00    +0.000 A 
ATOM     18  C   UNL     1       1.260   3.870  18.722  0.00  0.00    +0.000 A 
ATOM     19  C   UNL     1       1.072   2.929  19.737  0.00  0.00    +0.000 A 
ATOM     20  C   UNL     1       1.568   3.180  21.015  0.00  0.00    +0.000 A 
ATOM     21 CL   UNL     1       1.216   2.086  22.296  0.00  0.00    +0.000 Cl
ATOM     22  C   UNL     1       2.308   4.331  21.271  0.00  0.00    +0.000 A 
ATOM     23  C   UNL     1       2.500   5.275  20.256  0.00  0.00    +0.000 A 
ENDBRANCH  16  17
ENDBRANCH   1  16
BRANCH   1  24
ATOM     24  C   UNL     1       3.490   7.938  17.421  0.00  0.00    +0.000 C 
BRANCH  24  25
ATOM     25  C   UNL     1       4.604   6.974  17.107  0.00  0.00    +0.000 A 
ATOM     26  C   UNL     1       5.008   6.502  15.872  0.00  0.00    +0.000 A 
ATOM     27  C   UNL     1       6.140   5.639  15.968  0.00  0.00    +0.000 A 
ATOM     28  C   UNL     1       6.553   5.497  17.278  0.00  0.00    +0.000 A 
ATOM     29  S   UNL     1       5.595   6.370  18.367  0.00  0.00    +0.000 S 
BRANCH  28  30
ATOM     30  N   UNL     1       7.674   4.719  17.746  0.00  0.00    +0.000 N 
ATOM     31  O   UNL     1       8.278   4.057  16.891  0.00  0.00    +0.000 OA
ATOM     32  O   UNL     1       7.953   4.763  18.950  0.00  0.00    +0.000 OA
ENDBRANCH  28  30
ENDBRANCH  24  25
ENDBRANCH   1  24
TORSDOF 10
ENDMDL
MODEL 5
REMARK VINA RESULT:      -7.6      1.691      2.135
REMARK  Name = 
REMARK  11 active torsions:
REMARK  status: ('A' for Active; 'I' for Inactive)
REMARK    1  A    between atoms: C_1  and  C_2
REMARK    2  A    between atoms: C_2  and  C_3
REMARK    3  A    between atoms: C_3  and  C_4
REMARK    4  A    between atoms: C_4  and  N_5
REMARK    5  A    between atoms: C_11  and  C_12
REMARK    6  A    between atoms: C_12  and  N_13
REMARK    7  A    between atoms: N_13  and  C_14
REMARK    8  A    between atoms: N_13  and  C_22
REMARK    9  A    between atoms: C_14  and  C_15
REMARK   10  A    between atoms: C_22  and  C_23
REMARK   11  A    between atoms: C_26  and  N_27
REMARK                            x       y       z     vdW  Elec       q    Type
REMARK                         _______ _______ _______ _____ _____    ______ ____
ROOT
ATOM      1  N   UNL     1       2.748   6.754  18.036  0.00  0.00    +0.000 NA
ENDROOT
BRANCH   1   2
ATOM      2  C   UNL     1       4.114   6.604  18.588  0.00  0.00    +0.000 C 
BRANCH   2   9
ATOM      3  N   UNL     1       5.843   4.349  13.985  0.00  0.00    +0.000 N 
ATOM      4  C   UNL     1       6.681   5.157  14.712  0.00  0.00    +0.000 C 
ATOM      5  O   UNL     1       7.845   5.368  14.383  0.00  0.00    +0.000 OA
ATOM      6  N   UNL     1       6.113   5.688  15.848  0.00  0.00    +0.000 N 
ATOM      7  C   UNL     1       6.883   6.528  16.738  0.00  0.00    +0.000 C 
ATOM      8  C   UNL     1       6.519   5.995  18.109  0.00  0.00    +0.000 C 
ATOM      9  C   UNL     1       5.046   5.540  17.982  0.00  0.00    +0.000 C 
ATOM     10  C   UNL     1       4.856   5.292  16.478  0.00  0.00    +0.000 C 
ATOM     11  H   UNL     1       4.888   4.671  13.978  0.00  0.00    +0.000 HD
BRANCH   3  12
ATOM     12  C   UNL     1       6.336   3.726  12.773  0.00  0.00    +0.000 C 
BRANCH  12  13
ATOM     13  C   UNL     1       5.236   2.978  12.024  0.00  0.00    +0.000 C 
BRANCH  13  15
ATOM     14  C   UNL     1       7.303   1.839  11.124  0.00  0.00    +0.000 C 
ATOM     15  C   UNL     1       5.800   1.746  11.324  0.00  0.00    +0.000 C 
ENDBRANCH  13  15
ENDBRANCH  12  13
ENDBRANCH   3  12
ENDBRANCH   2   9
ENDBRANCH   1   2
BRANCH   1  16
ATOM     16  C   UNL     1       1.732   5.987  18.811  0.00  0.00    +0.000 C 
BRANCH  16  17
ATOM     17  C   UNL     1       2.078   4.505  18.902  0.00  0.00    +0.000 A 
ATOM     18  C   UNL     1       2.671   3.993  20.068  0.00  0.00    +0.000 A 
ATOM     19  C   UNL     1       3.240   2.717  20.071  0.00  0.00    +0.000 A 
ATOM     20  C   UNL     1       3.202   1.939  18.917  0.00  0.00    +0.000 A 
ATOM     21 CL   UNL     1       4.023   0.426  18.880  0.00  0.00    +0.000 Cl
ATOM     22  C   UNL     1       2.541   2.396  17.779  0.00  0.00    +0.000 A 
ATOM     23  C   UNL     1       1.969   3.672  17.774  0.00  0.00    +0.000 A 
ENDBRANCH  16  17
ENDBRANCH   1  16
BRANCH   1  24
ATOM     24  C   UNL     1       2.383   8.200  18.054  0.00  0.00    +0.000 C 
BRANCH  24  25
ATOM     25  C   UNL     1       1.698   8.633  19.323  0.00  0.00    +0.000 A 
ATOM     26  C   UNL     1       1.763   8.050  20.575  0.00  0.00    +0.000 A 
ATOM     27  C   UNL     1       1.017   8.777  21.549  0.00  0.00    +0.000 A 
ATOM     28  C   UNL     1       0.419   9.891  20.994  0.00  0.00    +0.000 A 
ATOM     29  S   UNL     1       0.737  10.051  19.339  0.00  0.00    +0.000 S 
BRANCH  28  30
ATOM     30  N   UNL     1      -0.391  10.866  21.683  0.00  0.00    +0.000 N 
ATOM     31  O   UNL     1      -0.203  10.973  22.903  0.00  0.00    +0.000 OA
ATOM     32  O   UNL     1      -1.208  11.518  21.022  0.00  0.00    +0.000 OA
ENDBRANCH  28  30
ENDBRANCH  24  25
ENDBRANCH   1  24
TORSDOF 10
ENDMDL
MODEL 6
REMARK VINA RESULT:      -7.5      5.193      8.601
REMARK  Name = 
REMARK  11 active torsions:
REMARK  status: ('A' for Active; 'I' for Inactive)
REMARK    1  A    between atoms: C_1  and  C_2
REMARK    2  A    between atoms: C_2  and  C_3
REMARK    3  A    between atoms: C_3  and  C_4
REMARK    4  A    between atoms: C_4  and  N_5
REMARK    5  A    between atoms: C_11  and  C_12
REMARK    6  A    between atoms: C_12  and  N_13
REMARK    7  A    between atoms: N_13  and  C_14
REMARK    8  A    between atoms: N_13  and  C_22
REMARK    9  A    between atoms: C_14  and  C_15
REMARK   10  A    between atoms: C_22  and  C_23
REMARK   11  A    between atoms: C_26  and  N_27
REMARK                            x       y       z     vdW  Elec       q    Type
REMARK                         _______ _______ _______ _____ _____    ______ ____
ROOT
ATOM      1  N   UNL     1      -1.232  12.263  20.304  0.00  0.00    +0.000 NA
ENDROOT
BRANCH   1   2
ATOM      2  C   UNL     1      -0.728  10.986  20.861  0.00  0.00    +0.000 C 
BRANCH   2   9
ATOM      3  N   UNL     1       2.608   6.831  19.928  0.00  0.00    +0.000 N 
ATOM      4  C   UNL     1       2.307   7.712  18.919  0.00  0.00    +0.000 C 
ATOM      5  O   UNL     1       2.801   7.625  17.797  0.00  0.00    +0.000 OA
ATOM      6  N   UNL     1       1.429   8.708  19.278  0.00  0.00    +0.000 N 
ATOM      7  C   UNL     1       1.046   9.735  18.334  0.00  0.00    +0.000 C 
ATOM      8  C   UNL     1       1.137  11.004  19.156  0.00  0.00    +0.000 C 
ATOM      9  C   UNL     1       0.731  10.583  20.588  0.00  0.00    +0.000 C 
ATOM     10  C   UNL     1       1.005   9.071  20.628  0.00  0.00    +0.000 C 
ATOM     11  H   UNL     1       1.823   6.631  20.527  0.00  0.00    +0.000 HD
BRANCH   3  12
ATOM     12  C   UNL     1       3.531   5.745  19.668  0.00  0.00    +0.000 C 
BRANCH  12  13
ATOM     13  C   UNL     1       2.823   4.394  19.599  0.00  0.00    +0.000 C 
BRANCH  13  15
ATOM     14  C   UNL     1       1.060   2.986  20.734  0.00  0.00    +0.000 C 
ATOM     15  C   UNL     1       1.578   4.391  20.480  0.00  0.00    +0.000 C 
ENDBRANCH  13  15
ENDBRANCH  12  13
ENDBRANCH   3  12
ENDBRANCH   2   9
ENDBRANCH   1   2
BRANCH   1  16
ATOM     16  C   UNL     1      -2.701  12.237  20.058  0.00  0.00    +0.000 C 
BRANCH  16  17
ATOM     17  C   UNL     1      -3.035  11.922  18.604  0.00  0.00    +0.000 A 
ATOM     18  C   UNL     1      -4.354  11.604  18.240  0.00  0.00    +0.000 A 
ATOM     19  C   UNL     1      -4.629  11.052  16.987  0.00  0.00    +0.000 A 
ATOM     20  C   UNL     1      -3.591  10.833  16.083  0.00  0.00    +0.000 A 
ATOM     21 CL   UNL     1      -3.910  10.027  14.596  0.00  0.00    +0.000 Cl
ATOM     22  C   UNL     1      -2.291  11.224  16.394  0.00  0.00    +0.000 A 
ATOM     23  C   UNL     1      -2.013  11.779  17.648  0.00  0.00    +0.000 A 
ENDBRANCH  16  17
ENDBRANCH   1  16
BRANCH   1  24
ATOM     24  C   UNL     1      -0.920  13.359  21.267  0.00  0.00    +0.000 C 
BRANCH  24  25
ATOM     25  C   UNL     1       0.230  14.230  20.835  0.00  0.00    +0.000 A 
ATOM     26  C   UNL     1       1.318  14.646  21.579  0.00  0.00    +0.000 A 
ATOM     27  C   UNL     1       2.234  15.425  20.810  0.00  0.00    +0.000 A 
ATOM     28  C   UNL     1       1.803  15.561  19.505  0.00  0.00    +0.000 A 
ATOM     29  S   UNL     1       0.326  14.784  19.216  0.00  0.00    +0.000 S 
BRANCH  28  30
ATOM     30  N   UNL     1       2.483  16.262  18.444  0.00  0.00    +0.000 N 
ATOM     31  O   UNL     1       2.459  17.499  18.500  0.00  0.00    +0.000 OA
ATOM     32  O   UNL     1       3.035  15.593  17.563  0.00  0.00    +0.000 OA
ENDBRANCH  28  30
ENDBRANCH  24  25
ENDBRANCH   1  24
TORSDOF 10
ENDMDL
MODEL 7
REMARK VINA RESULT:      -7.4      4.170      9.339
REMARK  Name = 
REMARK  11 active torsions:
REMARK  status: ('A' for Active; 'I' for Inactive)
REMARK    1  A    between atoms: C_1  and  C_2
REMARK    2  A    between atoms: C_2  and  C_3
REMARK    3  A    between atoms: C_3  and  C_4
REMARK    4  A    between atoms: C_4  and  N_5
REMARK    5  A    between atoms: C_11  and  C_12
REMARK    6  A    between atoms: C_12  and  N_13
REMARK    7  A    between atoms: N_13  and  C_14
REMARK    8  A    between atoms: N_13  and  C_22
REMARK    9  A    between atoms: C_14  and  C_15
REMARK   10  A    between atoms: C_22  and  C_23
REMARK   11  A    between atoms: C_26  and  N_27
REMARK                            x       y       z     vdW  Elec       q    Type
REMARK                         _______ _______ _______ _____ _____    ______ ____
ROOT
ATOM      1  N   UNL     1       3.051   6.820  17.997  0.00  0.00    +0.000 NA
ENDROOT
BRANCH   1   2
ATOM      2  C   UNL     1       2.708   7.807  19.047  0.00  0.00    +0.000 C 
BRANCH   2   9
ATOM      3  N   UNL     1      -0.358  11.662  21.283  0.00  0.00    +0.000 N 
ATOM      4  C   UNL     1       0.343  11.922  20.132  0.00  0.00    +0.000 C 
ATOM      5  O   UNL     1       0.276  13.000  19.548  0.00  0.00    +0.000 OA
ATOM      6  N   UNL     1       1.103  10.868  19.680  0.00  0.00    +0.000 N 
ATOM      7  C   UNL     1       1.867  10.976  18.457  0.00  0.00    +0.000 C 
ATOM      8  C   UNL     1       1.578   9.663  17.758  0.00  0.00    +0.000 C 
ATOM      9  C   UNL     1       1.417   8.630  18.898  0.00  0.00    +0.000 C 
ATOM     10  C   UNL     1       1.042   9.477  20.124  0.00  0.00    +0.000 C 
ATOM     11  H   UNL     1       0.146  11.079  21.932  0.00  0.00    +0.000 HD
BRANCH   3  12
ATOM     12  C   UNL     1      -1.201  12.697  21.848  0.00  0.00    +0.000 C 
BRANCH  12  13
ATOM     13  C   UNL     1      -2.669  12.512  21.467  0.00  0.00    +0.000 C 
BRANCH  13  15
ATOM     14  C   UNL     1      -3.564  12.408  23.827  0.00  0.00    +0.000 C 
ATOM     15  C   UNL     1      -3.581  13.157  22.505  0.00  0.00    +0.000 C 
ENDBRANCH  13  15
ENDBRANCH  12  13
ENDBRANCH   3  12
ENDBRANCH   2   9
ENDBRANCH   1   2
BRANCH   1  16
ATOM     16  C   UNL     1       4.238   5.995  18.356  0.00  0.00    +0.000 C 
BRANCH  16  17
ATOM     17  C   UNL     1       4.984   5.493  17.124  0.00  0.00    +0.000 A 
ATOM     18  C   UNL     1       5.119   6.324  16.000  0.00  0.00    +0.000 A 
ATOM     19  C   UNL     1       5.549   5.798  14.779  0.00  0.00    +0.000 A 
ATOM     20  C   UNL     1       5.865   4.445  14.680  0.00  0.00    +0.000 A 
ATOM     21 CL   UNL     1       6.260   3.770  13.147  0.00  0.00    +0.000 Cl
ATOM     22  C   UNL     1       5.820   3.626  15.806  0.00  0.00    +0.000 A 
ATOM     23  C   UNL     1       5.392   4.150  17.030  0.00  0.00    +0.000 A 
ENDBRANCH  16  17
ENDBRANCH   1  16
BRANCH   1  24
ATOM     24  C   UNL     1       1.879   5.921  17.788  0.00  0.00    +0.000 C 
BRANCH  24  25
ATOM     25  C   UNL     1       1.937   4.657  18.605  0.00  0.00    +0.000 A 
ATOM     26  C   UNL     1       2.039   3.352  18.161  0.00  0.00    +0.000 A 
ATOM     27  C   UNL     1       2.119   2.419  19.238  0.00  0.00    +0.000 A 
ATOM     28  C   UNL     1       2.081   3.061  20.461  0.00  0.00    +0.000 A 
ATOM     29  S   UNL     1       1.938   4.742  20.317  0.00  0.00    +0.000 S 
BRANCH  28  30
ATOM     30  N   UNL     1       2.160   2.440  21.760  0.00  0.00    +0.000 N 
ATOM     31  O   UNL     1       1.118   2.431  22.429  0.00  0.00    +0.000 OA
ATOM     32  O   UNL     1       3.246   1.965  22.115  0.00  0.00    +0.000 OA
ENDBRANCH  28  30
ENDBRANCH  24  25
ENDBRANCH   1  24
TORSDOF 10
ENDMDL
MODEL 8
REMARK VINA RESULT:      -7.3      3.309      8.666
REMARK  Name = 
REMARK  11 active torsions:
REMARK  status: ('A' for Active; 'I' for Inactive)
REMARK    1  A    between atoms: C_1  and  C_2
REMARK    2  A    between atoms: C_2  and  C_3
REMARK    3  A    between atoms: C_3  and  C_4
REMARK    4  A    between atoms: C_4  and  N_5
REMARK    5  A    between atoms: C_11  and  C_12
REMARK    6  A    between atoms: C_12  and  N_13
REMARK    7  A    between atoms: N_13  and  C_14
REMARK    8  A    between atoms: N_13  and  C_22
REMARK    9  A    between atoms: C_14  and  C_15
REMARK   10  A    between atoms: C_22  and  C_23
REMARK   11  A    between atoms: C_26  and  N_27
REMARK                            x       y       z     vdW  Elec       q    Type
REMARK                         _______ _______ _______ _____ _____    ______ ____
ROOT
ATOM      1  N   UNL     1       2.368   6.968  19.692  0.00  0.00    +0.000 NA
ENDROOT
BRANCH   1   2
ATOM      2  C   UNL     1       1.947   8.381  19.836  0.00  0.00    +0.000 C 
BRANCH   2   9
ATOM      3  N   UNL     1      -2.503  11.188  18.575  0.00  0.00    +0.000 N 
ATOM      4  C   UNL     1      -1.271  11.794  18.531  0.00  0.00    +0.000 C 
ATOM      5  O   UNL     1      -1.121  12.959  18.172  0.00  0.00    +0.000 OA
ATOM      6  N   UNL     1      -0.225  10.980  18.898  0.00  0.00    +0.000 N 
ATOM      7  C   UNL     1       1.137  11.463  18.865  0.00  0.00    +0.000 C 
ATOM      8  C   UNL     1       1.889  10.319  18.215  0.00  0.00    +0.000 C 
ATOM      9  C   UNL     1       1.159   9.041  18.691  0.00  0.00    +0.000 C 
ATOM     10  C   UNL     1      -0.249   9.529  19.068  0.00  0.00    +0.000 C 
ATOM     11  H   UNL     1      -2.600  10.543  19.343  0.00  0.00    +0.000 HD
BRANCH   3  12
ATOM     12  C   UNL     1      -3.679  11.947  18.200  0.00  0.00    +0.000 C 
BRANCH  12  13
ATOM     13  C   UNL     1      -4.732  11.074  17.520  0.00  0.00    +0.000 C 
BRANCH  13  15
ATOM     14  C   UNL     1      -6.420  12.909  17.111  0.00  0.00    +0.000 C 
ATOM     15  C   UNL     1      -6.135  11.593  17.815  0.00  0.00    +0.000 C 
ENDBRANCH  13  15
ENDBRANCH  12  13
ENDBRANCH   3  12
ENDBRANCH   2   9
ENDBRANCH   1   2
BRANCH   1  16
ATOM     16  C   UNL     1       1.392   6.018  20.297  0.00  0.00    +0.000 C 
BRANCH  16  17
ATOM     17  C   UNL     1       1.763   4.564  20.027  0.00  0.00    +0.000 A 
ATOM     18  C   UNL     1       2.611   3.880  20.914  0.00  0.00    +0.000 A 
ATOM     19  C   UNL     1       3.178   2.657  20.550  0.00  0.00    +0.000 A 
ATOM     20  C   UNL     1       2.885   2.100  19.307  0.00  0.00    +0.000 A 
ATOM     21 CL   UNL     1       3.690   0.664  18.804  0.00  0.00    +0.000 Cl
ATOM     22  C   UNL     1       1.978   2.721  18.452  0.00  0.00    +0.000 A 
ATOM     23  C   UNL     1       1.407   3.946  18.815  0.00  0.00    +0.000 A 
ENDBRANCH  16  17
ENDBRANCH   1  16
BRANCH   1  24
ATOM     24  C   UNL     1       2.511   6.660  18.240  0.00  0.00    +0.000 C 
BRANCH  24  25
ATOM     25  C   UNL     1       3.941   6.486  17.800  0.00  0.00    +0.000 A 
ATOM     26  C   UNL     1       4.696   7.315  16.990  0.00  0.00    +0.000 A 
ATOM     27  C   UNL     1       6.035   6.846  16.836  0.00  0.00    +0.000 A 
ATOM     28  C   UNL     1       6.242   5.679  17.545  0.00  0.00    +0.000 A 
ATOM     29  S   UNL     1       4.857   5.153  18.364  0.00  0.00    +0.000 S 
BRANCH  28  30
ATOM     30  N   UNL     1       7.476   4.937  17.637  0.00  0.00    +0.000 N 
ATOM     31  O   UNL     1       7.943   4.787  18.775  0.00  0.00    +0.000 OA
ATOM     32  O   UNL     1       7.977   4.507  16.592  0.00  0.00    +0.000 OA
ENDBRANCH  28  30
ENDBRANCH  24  25
ENDBRANCH   1  24
TORSDOF 10
ENDMDL
MODEL 9
REMARK VINA RESULT:      -7.3      3.313      9.392
REMARK  Name = 
REMARK  11 active torsions:
REMARK  status: ('A' for Active; 'I' for Inactive)
REMARK    1  A    between atoms: C_1  and  C_2
REMARK    2  A    between atoms: C_2  and  C_3
REMARK    3  A    between atoms: C_3  and  C_4
REMARK    4  A    between atoms: C_4  and  N_5
REMARK    5  A    between atoms: C_11  and  C_12
REMARK    6  A    between atoms: C_12  and  N_13
REMARK    7  A    between atoms: N_13  and  C_14
REMARK    8  A    between atoms: N_13  and  C_22
REMARK    9  A    between atoms: C_14  and  C_15
REMARK   10  A    between atoms: C_22  and  C_23
REMARK   11  A    between atoms: C_26  and  N_27
REMARK                            x       y       z     vdW  Elec       q    Type
REMARK                         _______ _______ _______ _____ _____    ______ ____
ROOT
ATOM      1  N   UNL     1       2.460   7.413  18.416  0.00  0.00    +0.000 NA
ENDROOT
BRANCH   1   2
ATOM      2  C   UNL     1       1.405   8.430  18.634  0.00  0.00    +0.000 C 
BRANCH   2   9
ATOM      3  N   UNL     1      -1.178  12.170  21.568  0.00  0.00    +0.000 N 
ATOM      4  C   UNL     1      -1.006  10.903  22.066  0.00  0.00    +0.000 C 
ATOM      5  O   UNL     1      -1.383  10.578  23.189  0.00  0.00    +0.000 OA
ATOM      6  N   UNL     1      -0.357  10.040  21.213  0.00  0.00    +0.000 N 
ATOM      7  C   UNL     1      -0.066   8.682  21.613  0.00  0.00    +0.000 C 
ATOM      8  C   UNL     1       1.368   8.492  21.160  0.00  0.00    +0.000 C 
ATOM      9  C   UNL     1       1.495   9.339  19.872  0.00  0.00    +0.000 C 
ATOM     10  C   UNL     1       0.373  10.382  19.994  0.00  0.00    +0.000 C 
ATOM     11  H   UNL     1      -1.372  12.185  20.579  0.00  0.00    +0.000 HD
BRANCH   3  12
ATOM     12  C   UNL     1      -1.841  13.168  22.383  0.00  0.00    +0.000 C 
BRANCH  12  13
ATOM     13  C   UNL     1      -0.854  13.958  23.240  0.00  0.00    +0.000 C 
BRANCH  13  15
ATOM     14  C   UNL     1       0.283  16.079  22.475  0.00  0.00    +0.000 C 
ATOM     15  C   UNL     1      -1.002  15.455  22.992  0.00  0.00    +0.000 C 
ENDBRANCH  13  15
ENDBRANCH  12  13
ENDBRANCH   3  12
ENDBRANCH   2   9
ENDBRANCH   1   2
BRANCH   1  16
ATOM     16  C   UNL     1       1.915   6.128  17.898  0.00  0.00    +0.000 C 
BRANCH  16  17
ATOM     17  C   UNL     1       1.953   5.022  18.947  0.00  0.00    +0.000 A 
ATOM     18  C   UNL     1       1.295   3.804  18.708  0.00  0.00    +0.000 A 
ATOM     19  C   UNL     1       1.086   2.896  19.748  0.00  0.00    +0.000 A 
ATOM     20  C   UNL     1       1.550   3.190  21.028  0.00  0.00    +0.000 A 
ATOM     21 CL   UNL     1       1.171   2.137  22.336  0.00  0.00    +0.000 Cl
ATOM     22  C   UNL     1       2.280   4.352  21.264  0.00  0.00    +0.000 A 
ATOM     23  C   UNL     1       2.493   5.263  20.223  0.00  0.00    +0.000 A 
ENDBRANCH  16  17
ENDBRANCH   1  16
BRANCH   1  24
ATOM     24  C   UNL     1       3.447   7.954  17.437  0.00  0.00    +0.000 C 
BRANCH  24  25
ATOM     25  C   UNL     1       4.558   6.992  17.107  0.00  0.00    +0.000 A 
ATOM     26  C   UNL     1       4.944   6.519  15.868  0.00  0.00    +0.000 A 
ATOM     27  C   UNL     1       6.079   5.657  15.947  0.00  0.00    +0.000 A 
ATOM     28  C   UNL     1       6.512   5.518  17.251  0.00  0.00    +0.000 A 
ATOM     29  S   UNL     1       5.568   6.390  18.353  0.00  0.00    +0.000 S 
BRANCH  28  30
ATOM     30  N   UNL     1       7.641   4.742  17.703  0.00  0.00    +0.000 N 
ATOM     31  O   UNL     1       8.262   4.118  16.832  0.00  0.00    +0.000 OA
ATOM     32  O   UNL     1       7.909   4.750  18.910  0.00  0.00    +0.000 OA
ENDBRANCH  28  30
ENDBRANCH  24  25
ENDBRANCH   1  24
TORSDOF 10
ENDMDL
