MODEL 1
REMARK VINA RESULT:      -6.3      0.000      0.000
REMARK  Name = 
REMARK  8 active torsions:
REMARK  status: ('A' for Active; 'I' for Inactive)
REMARK    1  A    between atoms: C_1  and  O_2
REMARK    2  A    between atoms: O_2  and  C_3
REMARK    3  A    between atoms: C_7  and  C_8
REMARK    4  A    between atoms: C_15  and  C_16
REMARK    5  A    between atoms: C_19  and  C_20
REMARK    6  A    between atoms: C_20  and  O_22
REMARK    7  A    between atoms: C_23  and  O_24
REMARK    8  A    between atoms: O_24  and  C_25
REMARK                            x       y       z     vdW  Elec       q    Type
REMARK                         _______ _______ _______ _____ _____    ______ ____
ROOT
ATOM      1  C   UNL     1       0.036  10.830  20.706  0.00  0.00    +0.000 C 
ATOM      2  C   UNL     1       0.166  12.026  21.679  0.00  0.00    +0.000 C 
ATOM      3  N   UNL     1      -0.778  11.725  22.751  0.00  0.00    +0.000 N 
ATOM      4  C   UNL     1      -1.781  12.599  23.126  0.00  0.00    +0.000 A 
ATOM      5  C   UNL     1      -1.669  13.966  22.949  0.00  0.00    +0.000 A 
ATOM      6  C   UNL     1      -2.721  14.752  23.361  0.00  0.00    +0.000 A 
ATOM      7  N   UNL     1      -3.826  14.266  23.943  0.00  0.00    +0.000 NA
ATOM      8  C   UNL     1      -3.848  12.936  24.112  0.00  0.00    +0.000 A 
ATOM      9  C   UNL     1      -5.030  12.338  24.806  0.00  0.00    +0.000 C 
ATOM     10  N   UNL     1      -2.877  12.090  23.721  0.00  0.00    +0.000 NA
ATOM     11  C   UNL     1      -1.048  10.283  22.803  0.00  0.00    +0.000 C 
ATOM     12  C   UNL     1      -0.154   9.672  21.712  0.00  0.00    +0.000 C 
ENDROOT
BRANCH   1  17
ATOM     13  C   UNL     1      -2.042  10.476  17.469  0.00  0.00    +0.000 A 
ATOM     14  C   UNL     1      -3.111  11.338  17.735  0.00  0.00    +0.000 A 
ATOM     15  C   UNL     1      -3.144  12.074  18.910  0.00  0.00    +0.000 A 
ATOM     16  C   UNL     1      -2.122  11.939  19.844  0.00  0.00    +0.000 A 
ATOM     17  C   UNL     1      -1.069  11.024  19.652  0.00  0.00    +0.000 A 
ATOM     18  C   UNL     1      -1.066  10.245  18.460  0.00  0.00    +0.000 A 
BRANCH  13  20
ATOM     19  C   UNL     1      -2.849  10.343  15.252  0.00  0.00    +0.000 C 
ATOM     20  O   UNL     1      -1.953   9.850  16.252  0.00  0.00    +0.000 OA
ENDBRANCH  13  20
BRANCH  18  21
ATOM     21  O   UNL     1      -0.045   9.328  18.399  0.00  0.00    +0.000 OA
ATOM     22  C   UNL     1       1.219   9.709  17.876  0.00  0.00    +0.000 C 
ENDBRANCH  18  21
ENDBRANCH   1  17
BRANCH  12  23
ATOM     23  C   UNL     1       1.172   9.196  22.262  0.00  0.00    +0.000 C 
ATOM     24  O   UNL     1       1.652   9.482  23.346  0.00  0.00    +0.000 OA
BRANCH  23  25
ATOM     25  O   UNL     1       1.802   8.332  21.422  0.00  0.00    +0.000 OA
ATOM     26  H   UNL     1       1.378   7.454  21.341  0.00  0.00    +0.000 HD
ENDBRANCH  23  25
ENDBRANCH  12  23
TORSDOF 5
ENDMDL
MODEL 2
REMARK VINA RESULT:      -6.3      5.928      9.263
REMARK  Name = 
REMARK  8 active torsions:
REMARK  status: ('A' for Active; 'I' for Inactive)
REMARK    1  A    between atoms: C_1  and  O_2
REMARK    2  A    between atoms: O_2  and  C_3
REMARK    3  A    between atoms: C_7  and  C_8
REMARK    4  A    between atoms: C_15  and  C_16
REMARK    5  A    between atoms: C_19  and  C_20
REMARK    6  A    between atoms: C_20  and  O_22
REMARK    7  A    between atoms: C_23  and  O_24
REMARK    8  A    between atoms: O_24  and  C_25
REMARK                            x       y       z     vdW  Elec       q    Type
REMARK                         _______ _______ _______ _____ _____    ______ ____
ROOT
ATOM      1  C   UNL     1       1.777   5.184  19.322  0.00  0.00    +0.000 C 
ATOM      2  C   UNL     1       2.547   4.212  18.396  0.00  0.00    +0.000 C 
ATOM      3  N   UNL     1       3.873   4.112  18.999  0.00  0.00    +0.000 N 
ATOM      4  C   UNL     1       5.031   4.383  18.295  0.00  0.00    +0.000 A 
ATOM      5  C   UNL     1       5.110   4.232  16.922  0.00  0.00    +0.000 A 
ATOM      6  C   UNL     1       6.311   4.522  16.315  0.00  0.00    +0.000 A 
ATOM      7  N   UNL     1       7.404   4.914  16.983  0.00  0.00    +0.000 NA
ATOM      8  C   UNL     1       7.261   5.004  18.314  0.00  0.00    +0.000 A 
ATOM      9  C   UNL     1       8.460   5.383  19.123  0.00  0.00    +0.000 C 
ATOM     10  N   UNL     1       6.121   4.762  18.989  0.00  0.00    +0.000 NA
ATOM     11  C   UNL     1       3.815   4.470  20.421  0.00  0.00    +0.000 C 
ATOM     12  C   UNL     1       2.331   4.753  20.699  0.00  0.00    +0.000 C 
ENDROOT
BRANCH   1  17
ATOM     13  C   UNL     1       1.622   9.042  19.416  0.00  0.00    +0.000 A 
ATOM     14  C   UNL     1       2.318   9.371  18.247  0.00  0.00    +0.000 A 
ATOM     15  C   UNL     1       2.783   8.376  17.403  0.00  0.00    +0.000 A 
ATOM     16  C   UNL     1       2.580   7.038  17.727  0.00  0.00    +0.000 A 
ATOM     17  C   UNL     1       1.956   6.662  18.931  0.00  0.00    +0.000 A 
ATOM     18  C   UNL     1       1.517   7.693  19.811  0.00  0.00    +0.000 A 
BRANCH  13  20
ATOM     19  C   UNL     1       0.593  11.169  19.445  0.00  0.00    +0.000 C 
ATOM     20  O   UNL     1       1.056  10.032  20.178  0.00  0.00    +0.000 OA
ENDBRANCH  13  20
BRANCH  18  21
ATOM     21  O   UNL     1       0.992   7.229  20.992  0.00  0.00    +0.000 OA
ATOM     22  C   UNL     1      -0.070   7.931  21.620  0.00  0.00    +0.000 C 
ENDBRANCH  18  21
ENDBRANCH   1  17
BRANCH  12  23
ATOM     23  C   UNL     1       1.607   3.535  21.229  0.00  0.00    +0.000 C 
ATOM     24  O   UNL     1       1.952   2.840  22.170  0.00  0.00    +0.000 OA
BRANCH  23  25
ATOM     25  O   UNL     1       0.447   3.290  20.564  0.00  0.00    +0.000 OA
ATOM     26  H   UNL     1      -0.124   2.608  20.970  0.00  0.00    +0.000 HD
ENDBRANCH  23  25
ENDBRANCH  12  23
TORSDOF 5
ENDMDL
MODEL 3
REMARK VINA RESULT:      -6.2      5.278      8.679
REMARK  Name = 
REMARK  8 active torsions:
REMARK  status: ('A' for Active; 'I' for Inactive)
REMARK    1  A    between atoms: C_1  and  O_2
REMARK    2  A    between atoms: O_2  and  C_3
REMARK    3  A    between atoms: C_7  and  C_8
REMARK    4  A    between atoms: C_15  and  C_16
REMARK    5  A    between atoms: C_19  and  C_20
REMARK    6  A    between atoms: C_20  and  O_22
REMARK    7  A    between atoms: C_23  and  O_24
REMARK    8  A    between atoms: O_24  and  C_25
REMARK                            x       y       z     vdW  Elec       q    Type
REMARK                         _______ _______ _______ _____ _____    ______ ____
ROOT
ATOM      1  C   UNL     1       1.583   6.022  19.285  0.00  0.00    +0.000 C 
ATOM      2  C   UNL     1       2.314   5.192  18.202  0.00  0.00    +0.000 C 
ATOM      3  N   UNL     1       3.695   5.124  18.669  0.00  0.00    +0.000 N 
ATOM      4  C   UNL     1       4.763   5.534  17.893  0.00  0.00    +0.000 A 
ATOM      5  C   UNL     1       4.717   5.516  16.510  0.00  0.00    +0.000 A 
ATOM      6  C   UNL     1       5.835   5.938  15.828  0.00  0.00    +0.000 A 
ATOM      7  N   UNL     1       6.964   6.337  16.430  0.00  0.00    +0.000 NA
ATOM      8  C   UNL     1       6.946   6.295  17.770  0.00  0.00    +0.000 A 
ATOM      9  C   UNL     1       8.194   6.674  18.500  0.00  0.00    +0.000 C 
ATOM     10  N   UNL     1       5.892   5.917  18.519  0.00  0.00    +0.000 NA
ATOM     11  C   UNL     1       3.755   5.344  20.119  0.00  0.00    +0.000 C 
ATOM     12  C   UNL     1       2.291   5.503  20.557  0.00  0.00    +0.000 C 
ENDROOT
BRANCH   1  17
ATOM     13  C   UNL     1       1.230   9.837  19.775  0.00  0.00    +0.000 A 
ATOM     14  C   UNL     1       1.782  10.317  18.582  0.00  0.00    +0.000 A 
ATOM     15  C   UNL     1       2.211   9.436  17.602  0.00  0.00    +0.000 A 
ATOM     16  C   UNL     1       2.116   8.064  17.810  0.00  0.00    +0.000 A 
ATOM     17  C   UNL     1       1.640   7.539  19.027  0.00  0.00    +0.000 A 
ATOM     18  C   UNL     1       1.240   8.453  20.043  0.00  0.00    +0.000 A 
BRANCH  13  20
ATOM     19  C   UNL     1      -0.390  11.507  20.190  0.00  0.00    +0.000 C 
ATOM     20  O   UNL     1       0.693  10.713  20.683  0.00  0.00    +0.000 OA
ENDBRANCH  13  20
BRANCH  18  21
ATOM     21  O   UNL     1       0.865   7.848  21.217  0.00  0.00    +0.000 OA
ATOM     22  C   UNL     1      -0.387   8.162  21.808  0.00  0.00    +0.000 C 
ENDBRANCH  18  21
ENDBRANCH   1  17
BRANCH  12  23
ATOM     23  C   UNL     1       1.692   4.196  21.028  0.00  0.00    +0.000 C 
ATOM     24  O   UNL     1       2.141   3.462  21.892  0.00  0.00    +0.000 OA
BRANCH  23  25
ATOM     25  O   UNL     1       0.515   3.912  20.409  0.00  0.00    +0.000 OA
ATOM     26  H   UNL     1      -0.215   4.531  20.609  0.00  0.00    +0.000 HD
ENDBRANCH  23  25
ENDBRANCH  12  23
TORSDOF 5
ENDMDL
MODEL 4
REMARK VINA RESULT:      -6.2      3.499      5.956
REMARK  Name = 
REMARK  8 active torsions:
REMARK  status: ('A' for Active; 'I' for Inactive)
REMARK    1  A    between atoms: C_1  and  O_2
REMARK    2  A    between atoms: O_2  and  C_3
REMARK    3  A    between atoms: C_7  and  C_8
REMARK    4  A    between atoms: C_15  and  C_16
REMARK    5  A    between atoms: C_19  and  C_20
REMARK    6  A    between atoms: C_20  and  O_22
REMARK    7  A    between atoms: C_23  and  O_24
REMARK    8  A    between atoms: O_24  and  C_25
REMARK                            x       y       z     vdW  Elec       q    Type
REMARK                         _______ _______ _______ _____ _____    ______ ____
ROOT
ATOM      1  C   UNL     1      -3.298  11.911  17.847  0.00  0.00    +0.000 C 
ATOM      2  C   UNL     1      -1.787  12.243  17.878  0.00  0.00    +0.000 C 
ATOM      3  N   UNL     1      -1.154  11.009  18.331  0.00  0.00    +0.000 N 
ATOM      4  C   UNL     1      -0.320  10.962  19.432  0.00  0.00    +0.000 A 
ATOM      5  C   UNL     1       0.409  12.062  19.849  0.00  0.00    +0.000 A 
ATOM      6  C   UNL     1       1.217  11.912  20.953  0.00  0.00    +0.000 A 
ATOM      7  N   UNL     1       1.352  10.759  21.622  0.00  0.00    +0.000 NA
ATOM      8  C   UNL     1       0.642   9.728  21.138  0.00  0.00    +0.000 A 
ATOM      9  C   UNL     1       0.793   8.399  21.806  0.00  0.00    +0.000 C 
ATOM     10  N   UNL     1      -0.188   9.789  20.080  0.00  0.00    +0.000 NA
ATOM     11  C   UNL     1      -2.027   9.860  18.063  0.00  0.00    +0.000 C 
ATOM     12  C   UNL     1      -3.252  10.450  17.346  0.00  0.00    +0.000 C 
ENDROOT
BRANCH   1  17
ATOM     13  C   UNL     1      -6.047  12.213  20.544  0.00  0.00    +0.000 A 
ATOM     14  C   UNL     1      -5.291  12.578  21.664  0.00  0.00    +0.000 A 
ATOM     15  C   UNL     1      -3.925  12.785  21.553  0.00  0.00    +0.000 A 
ATOM     16  C   UNL     1      -3.292  12.606  20.326  0.00  0.00    +0.000 A 
ATOM     17  C   UNL     1      -4.002  12.163  19.194  0.00  0.00    +0.000 A 
ATOM     18  C   UNL     1      -5.397  11.915  19.329  0.00  0.00    +0.000 A 
BRANCH  13  20
ATOM     19  C   UNL     1      -7.916  10.880  21.105  0.00  0.00    +0.000 C 
ATOM     20  O   UNL     1      -7.412  12.135  20.636  0.00  0.00    +0.000 OA
ENDBRANCH  13  20
BRANCH  18  21
ATOM     21  O   UNL     1      -5.985  11.413  18.194  0.00  0.00    +0.000 OA
ATOM     22  C   UNL     1      -6.797  12.251  17.386  0.00  0.00    +0.000 C 
ENDBRANCH  18  21
ENDBRANCH   1  17
BRANCH  12  23
ATOM     23  C   UNL     1      -3.116  10.386  15.841  0.00  0.00    +0.000 C 
ATOM     24  O   UNL     1      -2.741   9.427  15.187  0.00  0.00    +0.000 OA
BRANCH  23  25
ATOM     25  O   UNL     1      -3.518  11.535  15.235  0.00  0.00    +0.000 OA
ATOM     26  H   UNL     1      -4.252  11.429  14.597  0.00  0.00    +0.000 HD
ENDBRANCH  23  25
ENDBRANCH  12  23
TORSDOF 5
ENDMDL
MODEL 5
REMARK VINA RESULT:      -6.1      9.595     11.388
REMARK  Name = 
REMARK  8 active torsions:
REMARK  status: ('A' for Active; 'I' for Inactive)
REMARK    1  A    between atoms: C_1  and  O_2
REMARK    2  A    between atoms: O_2  and  C_3
REMARK    3  A    between atoms: C_7  and  C_8
REMARK    4  A    between atoms: C_15  and  C_16
REMARK    5  A    between atoms: C_19  and  C_20
REMARK    6  A    between atoms: C_20  and  O_22
REMARK    7  A    between atoms: C_23  and  O_24
REMARK    8  A    between atoms: O_24  and  C_25
REMARK                            x       y       z     vdW  Elec       q    Type
REMARK                         _______ _______ _______ _____ _____    ______ ____
ROOT
ATOM      1  C   UNL     1       9.420  14.837  18.070  0.00  0.00    +0.000 C 
ATOM      2  C   UNL     1      10.236  15.104  19.357  0.00  0.00    +0.000 C 
ATOM      3  N   UNL     1      10.058  13.895  20.155  0.00  0.00    +0.000 N 
ATOM      4  C   UNL     1       9.574  13.924  21.450  0.00  0.00    +0.000 A 
ATOM      5  C   UNL     1       9.733  15.027  22.270  0.00  0.00    +0.000 A 
ATOM      6  C   UNL     1       9.221  14.954  23.545  0.00  0.00    +0.000 A 
ATOM      7  N   UNL     1       8.606  13.869  24.036  0.00  0.00    +0.000 NA
ATOM      8  C   UNL     1       8.521  12.828  23.196  0.00  0.00    +0.000 A 
ATOM      9  C   UNL     1       7.895  11.568  23.702  0.00  0.00    +0.000 C 
ATOM     10  N   UNL     1       8.973  12.817  21.927  0.00  0.00    +0.000 NA
ATOM     11  C   UNL     1       9.691  12.764  19.294  0.00  0.00    +0.000 C 
ATOM     12  C   UNL     1       9.705  13.332  17.866  0.00  0.00    +0.000 C 
ENDROOT
BRANCH   1  17
ATOM     13  C   UNL     1       6.249  16.893  18.868  0.00  0.00    +0.000 A 
ATOM     14  C   UNL     1       5.246  16.049  18.377  0.00  0.00    +0.000 A 
ATOM     15  C   UNL     1       5.568  14.809  17.849  0.00  0.00    +0.000 A 
ATOM     16  C   UNL     1       6.898  14.406  17.782  0.00  0.00    +0.000 A 
ATOM     17  C   UNL     1       7.943  15.256  18.191  0.00  0.00    +0.000 A 
ATOM     18  C   UNL     1       7.604  16.543  18.696  0.00  0.00    +0.000 A 
BRANCH  13  20
ATOM     19  C   UNL     1       5.143  17.898  20.699  0.00  0.00    +0.000 C 
ATOM     20  O   UNL     1       5.911  18.060  19.503  0.00  0.00    +0.000 OA
ENDBRANCH  13  20
BRANCH  18  21
ATOM     21  O   UNL     1       8.691  17.327  18.996  0.00  0.00    +0.000 OA
ATOM     22  C   UNL     1       9.050  18.399  18.138  0.00  0.00    +0.000 C 
ENDBRANCH  18  21
ENDBRANCH   1  17
BRANCH  12  23
ATOM     23  C   UNL     1      11.033  13.110  17.177  0.00  0.00    +0.000 C 
ATOM     24  O   UNL     1      11.918  12.352  17.536  0.00  0.00    +0.000 OA
BRANCH  23  25
ATOM     25  O   UNL     1      11.148  13.829  16.028  0.00  0.00    +0.000 OA
ATOM     26  H   UNL     1      10.979  13.324  15.208  0.00  0.00    +0.000 HD
ENDBRANCH  23  25
ENDBRANCH  12  23
TORSDOF 5
ENDMDL
MODEL 6
REMARK VINA RESULT:      -6.0      3.545      5.852
REMARK  Name = 
REMARK  8 active torsions:
REMARK  status: ('A' for Active; 'I' for Inactive)
REMARK    1  A    between atoms: C_1  and  O_2
REMARK    2  A    between atoms: O_2  and  C_3
REMARK    3  A    between atoms: C_7  and  C_8
REMARK    4  A    between atoms: C_15  and  C_16
REMARK    5  A    between atoms: C_19  and  C_20
REMARK    6  A    between atoms: C_20  and  O_22
REMARK    7  A    between atoms: C_23  and  O_24
REMARK    8  A    between atoms: O_24  and  C_25
REMARK                            x       y       z     vdW  Elec       q    Type
REMARK                         _______ _______ _______ _____ _____    ______ ____
ROOT
ATOM      1  C   UNL     1      -1.509  12.875  19.381  0.00  0.00    +0.000 C 
ATOM      2  C   UNL     1      -0.669  12.245  20.517  0.00  0.00    +0.000 C 
ATOM      3  N   UNL     1       0.492  11.679  19.838  0.00  0.00    +0.000 N 
ATOM      4  C   UNL     1       0.851  10.350  19.962  0.00  0.00    +0.000 A 
ATOM      5  C   UNL     1       0.535   9.605  21.085  0.00  0.00    +0.000 A 
ATOM      6  C   UNL     1       0.943   8.291  21.115  0.00  0.00    +0.000 A 
ATOM      7  N   UNL     1       1.647   7.710  20.133  0.00  0.00    +0.000 NA
ATOM      8  C   UNL     1       1.946   8.504  19.094  0.00  0.00    +0.000 A 
ATOM      9  C   UNL     1       2.777   7.931  17.991  0.00  0.00    +0.000 C 
ATOM     10  N   UNL     1       1.570   9.791  18.970  0.00  0.00    +0.000 NA
ATOM     11  C   UNL     1       0.703  12.345  18.547  0.00  0.00    +0.000 C 
ATOM     12  C   UNL     1      -0.385  13.429  18.477  0.00  0.00    +0.000 C 
ENDROOT
BRANCH   1  17
ATOM     13  C   UNL     1      -4.771  11.001  18.501  0.00  0.00    +0.000 A 
ATOM     14  C   UNL     1      -4.316  10.104  17.529  0.00  0.00    +0.000 A 
ATOM     15  C   UNL     1      -2.971  10.051  17.195  0.00  0.00    +0.000 A 
ATOM     16  C   UNL     1      -2.068  10.912  17.811  0.00  0.00    +0.000 A 
ATOM     17  C   UNL     1      -2.496  11.883  18.736  0.00  0.00    +0.000 A 
ATOM     18  C   UNL     1      -3.884  11.955  19.042  0.00  0.00    +0.000 A 
BRANCH  13  20
ATOM     19  C   UNL     1      -6.995  11.689  18.097  0.00  0.00    +0.000 C 
ATOM     20  O   UNL     1      -6.077  10.958  18.915  0.00  0.00    +0.000 OA
ENDBRANCH  13  20
BRANCH  18  21
ATOM     21  O   UNL     1      -4.214  12.981  19.893  0.00  0.00    +0.000 OA
ATOM     22  C   UNL     1      -4.539  12.704  21.246  0.00  0.00    +0.000 C 
ENDBRANCH  18  21
ENDBRANCH   1  17
BRANCH  12  23
ATOM     23  C   UNL     1       0.112  14.768  18.973  0.00  0.00    +0.000 C 
ATOM     24  O   UNL     1       1.261  15.050  19.273  0.00  0.00    +0.000 OA
BRANCH  23  25
ATOM     25  O   UNL     1      -0.872  15.705  19.011  0.00  0.00    +0.000 OA
ATOM     26  H   UNL     1      -0.735  16.471  18.418  0.00  0.00    +0.000 HD
ENDBRANCH  23  25
ENDBRANCH  12  23
TORSDOF 5
ENDMDL
MODEL 7
REMARK VINA RESULT:      -6.0      3.693      6.029
REMARK  Name = 
REMARK  8 active torsions:
REMARK  status: ('A' for Active; 'I' for Inactive)
REMARK    1  A    between atoms: C_1  and  O_2
REMARK    2  A    between atoms: O_2  and  C_3
REMARK    3  A    between atoms: C_7  and  C_8
REMARK    4  A    between atoms: C_15  and  C_16
REMARK    5  A    between atoms: C_19  and  C_20
REMARK    6  A    between atoms: C_20  and  O_22
REMARK    7  A    between atoms: C_23  and  O_24
REMARK    8  A    between atoms: O_24  and  C_25
REMARK                            x       y       z     vdW  Elec       q    Type
REMARK                         _______ _______ _______ _____ _____    ______ ____
ROOT
ATOM      1  C   UNL     1      -3.260  12.994  23.250  0.00  0.00    +0.000 C 
ATOM      2  C   UNL     1      -2.183  11.908  23.486  0.00  0.00    +0.000 C 
ATOM      3  N   UNL     1      -1.021  12.383  22.742  0.00  0.00    +0.000 N 
ATOM      4  C   UNL     1      -0.393  11.618  21.777  0.00  0.00    +0.000 A 
ATOM      5  C   UNL     1      -0.420  10.235  21.803  0.00  0.00    +0.000 A 
ATOM      6  C   UNL     1       0.242   9.565  20.800  0.00  0.00    +0.000 A 
ATOM      7  N   UNL     1       0.927  10.178  19.825  0.00  0.00    +0.000 NA
ATOM      8  C   UNL     1       0.938  11.518  19.886  0.00  0.00    +0.000 A 
ATOM      9  C   UNL     1       1.731  12.260  18.858  0.00  0.00    +0.000 C 
ATOM     10  N   UNL     1       0.301  12.255  20.816  0.00  0.00    +0.000 NA
ATOM     11  C   UNL     1      -1.101  13.835  22.545  0.00  0.00    +0.000 C 
ATOM     12  C   UNL     1      -2.383  14.266  23.275  0.00  0.00    +0.000 C 
ENDROOT
BRANCH   1  17
ATOM     13  C   UNL     1      -6.242  12.207  20.925  0.00  0.00    +0.000 A 
ATOM     14  C   UNL     1      -5.650  12.349  19.665  0.00  0.00    +0.000 A 
ATOM     15  C   UNL     1      -4.299  12.634  19.552  0.00  0.00    +0.000 A 
ATOM     16  C   UNL     1      -3.526  12.806  20.697  0.00  0.00    +0.000 A 
ATOM     17  C   UNL     1      -4.098  12.751  21.982  0.00  0.00    +0.000 A 
ATOM     18  C   UNL     1      -5.495  12.496  22.085  0.00  0.00    +0.000 A 
BRANCH  13  20
ATOM     19  C   UNL     1      -7.766  10.406  20.789  0.00  0.00    +0.000 C 
ATOM     20  O   UNL     1      -7.548  11.799  21.026  0.00  0.00    +0.000 OA
ENDBRANCH  13  20
BRANCH  18  21
ATOM     21  O   UNL     1      -5.974  12.537  23.372  0.00  0.00    +0.000 OA
ATOM     22  C   UNL     1      -6.792  13.620  23.789  0.00  0.00    +0.000 C 
ENDBRANCH  18  21
ENDBRANCH   1  17
BRANCH  12  23
ATOM     23  C   UNL     1      -2.108  14.720  24.691  0.00  0.00    +0.000 C 
ATOM     24  O   UNL     1      -1.032  15.078  25.141  0.00  0.00    +0.000 OA
BRANCH  23  25
ATOM     25  O   UNL     1      -3.232  14.747  25.455  0.00  0.00    +0.000 OA
ATOM     26  H   UNL     1      -3.370  15.576  25.955  0.00  0.00    +0.000 HD
ENDBRANCH  23  25
ENDBRANCH  12  23
TORSDOF 5
ENDMDL
MODEL 8
REMARK VINA RESULT:      -5.9      3.086      4.359
REMARK  Name = 
REMARK  8 active torsions:
REMARK  status: ('A' for Active; 'I' for Inactive)
REMARK    1  A    between atoms: C_1  and  O_2
REMARK    2  A    between atoms: O_2  and  C_3
REMARK    3  A    between atoms: C_7  and  C_8
REMARK    4  A    between atoms: C_15  and  C_16
REMARK    5  A    between atoms: C_19  and  C_20
REMARK    6  A    between atoms: C_20  and  O_22
REMARK    7  A    between atoms: C_23  and  O_24
REMARK    8  A    between atoms: O_24  and  C_25
REMARK                            x       y       z     vdW  Elec       q    Type
REMARK                         _______ _______ _______ _____ _____    ______ ____
ROOT
ATOM      1  C   UNL     1      -1.835  13.164  21.060  0.00  0.00    +0.000 C 
ATOM      2  C   UNL     1      -3.077  14.036  20.757  0.00  0.00    +0.000 C 
ATOM      3  N   UNL     1      -4.185  13.314  21.375  0.00  0.00    +0.000 N 
ATOM      4  C   UNL     1      -5.310  12.934  20.668  0.00  0.00    +0.000 A 
ATOM      5  C   UNL     1      -5.744  13.624  19.550  0.00  0.00    +0.000 A 
ATOM      6  C   UNL     1      -6.880  13.169  18.920  0.00  0.00    +0.000 A 
ATOM      7  N   UNL     1      -7.594  12.118  19.346  0.00  0.00    +0.000 NA
ATOM      8  C   UNL     1      -7.132  11.522  20.455  0.00  0.00    +0.000 A 
ATOM      9  C   UNL     1      -7.915  10.377  21.013  0.00  0.00    +0.000 C 
ATOM     10  N   UNL     1      -6.020  11.884  21.123  0.00  0.00    +0.000 NA
ATOM     11  C   UNL     1      -3.689  12.428  22.435  0.00  0.00    +0.000 C 
ATOM     12  C   UNL     1      -2.174  12.682  22.488  0.00  0.00    +0.000 C 
ENDROOT
BRANCH   1  17
ATOM     13  C   UNL     1      -0.240  10.215  19.142  0.00  0.00    +0.000 A 
ATOM     14  C   UNL     1      -1.147  10.053  18.088  0.00  0.00    +0.000 A 
ATOM     15  C   UNL     1      -2.227  10.911  17.952  0.00  0.00    +0.000 A 
ATOM     16  C   UNL     1      -2.428  11.928  18.881  0.00  0.00    +0.000 A 
ATOM     17  C   UNL     1      -1.586  12.076  19.999  0.00  0.00    +0.000 A 
ATOM     18  C   UNL     1      -0.502  11.164  20.150  0.00  0.00    +0.000 A 
BRANCH  13  20
ATOM     19  C   UNL     1       1.564   9.267  17.945  0.00  0.00    +0.000 C 
ATOM     20  O   UNL     1       0.892   9.443  19.196  0.00  0.00    +0.000 OA
ENDBRANCH  13  20
BRANCH  18  21
ATOM     21  O   UNL     1       0.214  11.340  21.308  0.00  0.00    +0.000 OA
ATOM     22  C   UNL     1       0.307  10.284  22.252  0.00  0.00    +0.000 C 
ENDBRANCH  18  21
ENDBRANCH   1  17
BRANCH  12  23
ATOM     23  C   UNL     1      -1.806  13.722  23.523  0.00  0.00    +0.000 C 
ATOM     24  O   UNL     1      -2.551  14.209  24.358  0.00  0.00    +0.000 OA
BRANCH  23  25
ATOM     25  O   UNL     1      -0.489  14.055  23.480  0.00  0.00    +0.000 OA
ATOM     26  H   UNL     1      -0.309  14.997  23.290  0.00  0.00    +0.000 HD
ENDBRANCH  23  25
ENDBRANCH  12  23
TORSDOF 5
ENDMDL
MODEL 9
REMARK VINA RESULT:      -5.9      2.423      3.066
REMARK  Name = 
REMARK  8 active torsions:
REMARK  status: ('A' for Active; 'I' for Inactive)
REMARK    1  A    between atoms: C_1  and  O_2
REMARK    2  A    between atoms: O_2  and  C_3
REMARK    3  A    between atoms: C_7  and  C_8
REMARK    4  A    between atoms: C_15  and  C_16
REMARK    5  A    between atoms: C_19  and  C_20
REMARK    6  A    between atoms: C_20  and  O_22
REMARK    7  A    between atoms: C_23  and  O_24
REMARK    8  A    between atoms: O_24  and  C_25
REMARK                            x       y       z     vdW  Elec       q    Type
REMARK                         _______ _______ _______ _____ _____    ______ ____
ROOT
ATOM      1  C   UNL     1      -2.074  12.913  20.304  0.00  0.00    +0.000 C 
ATOM      2  C   UNL     1      -2.833  14.124  20.899  0.00  0.00    +0.000 C 
ATOM      3  N   UNL     1      -3.645  13.552  21.968  0.00  0.00    +0.000 N 
ATOM      4  C   UNL     1      -5.016  13.719  22.031  0.00  0.00    +0.000 A 
ATOM      5  C   UNL     1      -5.649  14.817  21.475  0.00  0.00    +0.000 A 
ATOM      6  C   UNL     1      -7.018  14.894  21.597  0.00  0.00    +0.000 A 
ATOM      7  N   UNL     1      -7.757  13.982  22.242  0.00  0.00    +0.000 NA
ATOM      8  C   UNL     1      -7.071  12.966  22.784  0.00  0.00    +0.000 A 
ATOM      9  C   UNL     1      -7.833  11.944  23.566  0.00  0.00    +0.000 C 
ATOM     10  N   UNL     1      -5.738  12.798  22.697  0.00  0.00    +0.000 NA
ATOM     11  C   UNL     1      -3.072  12.278  22.418  0.00  0.00    +0.000 C 
ATOM     12  C   UNL     1      -1.789  12.105  21.590  0.00  0.00    +0.000 C 
ENDROOT
BRANCH   1  17
ATOM     13  C   UNL     1      -2.882  10.905  17.105  0.00  0.00    +0.000 A 
ATOM     14  C   UNL     1      -4.279  10.841  17.169  0.00  0.00    +0.000 A 
ATOM     15  C   UNL     1      -4.966  11.482  18.189  0.00  0.00    +0.000 A 
ATOM     16  C   UNL     1      -4.264  12.174  19.172  0.00  0.00    +0.000 A 
ATOM     17  C   UNL     1      -2.857  12.196  19.189  0.00  0.00    +0.000 A 
ATOM     18  C   UNL     1      -2.161  11.502  18.159  0.00  0.00    +0.000 A 
BRANCH  13  20
ATOM     19  C   UNL     1      -3.021  10.205  14.852  0.00  0.00    +0.000 C 
ATOM     20  O   UNL     1      -2.221  10.378  16.026  0.00  0.00    +0.000 OA
ENDBRANCH  13  20
BRANCH  18  21
ATOM     21  O   UNL     1      -0.795  11.515  18.305  0.00  0.00    +0.000 OA
ATOM     22  C   UNL     1      -0.111  10.331  18.683  0.00  0.00    +0.000 C 
ENDBRANCH  18  21
ENDBRANCH   1  17
BRANCH  12  23
ATOM     23  C   UNL     1      -0.569  12.628  22.312  0.00  0.00    +0.000 C 
ATOM     24  O   UNL     1      -0.553  13.197  23.392  0.00  0.00    +0.000 OA
BRANCH  23  25
ATOM     25  O   UNL     1       0.586  12.355  21.648  0.00  0.00    +0.000 OA
ATOM     26  H   UNL     1       1.311  12.014  22.208  0.00  0.00    +0.000 HD
ENDBRANCH  23  25
ENDBRANCH  12  23
TORSDOF 5
ENDMDL
