MODEL 1
REMARK VINA RESULT:      -8.0      0.000      0.000
REMARK  Name = 
REMARK  7 active torsions:
REMARK  status: ('A' for Active; 'I' for Inactive)
REMARK    1  A    between atoms: C_1  and  N_2
REMARK    2  A    between atoms: C_5  and  C_6
REMARK    3  A    between atoms: C_6  and  N_7
REMARK    4  A    between atoms: C_11  and  C_12
REMARK    5  A    between atoms: C_12  and  C_14
REMARK    6  A    between atoms: C_14  and  C_15
REMARK    7  A    between atoms: C_22  and  C_23
REMARK                            x       y       z     vdW  Elec       q    Type
REMARK                         _______ _______ _______ _____ _____    ______ ____
ROOT
ATOM      1  N   UNL     1       4.037   5.631  17.437  0.00  0.00    +0.000 NA
ATOM      2  C   UNL     1       4.283   7.061  17.226  0.00  0.00    +0.000 C 
ATOM      3  C   UNL     1       5.742   7.430  16.972  0.00  0.00    +0.000 C 
ATOM      4  C   UNL     1       6.687   6.799  17.983  0.00  0.00    +0.000 C 
ATOM      5  C   UNL     1       6.441   5.301  18.149  0.00  0.00    +0.000 C 
ATOM      6  C   UNL     1       4.960   4.980  18.371  0.00  0.00    +0.000 C 
ENDROOT
BRANCH   5   7
ATOM      7  C   UNL     1       7.052   4.462  17.021  0.00  0.00    +0.000 C 
ATOM      8  O   UNL     1       8.229   4.105  17.033  0.00  0.00    +0.000 OA
BRANCH   7   9
ATOM      9  C   UNL     1       6.103   4.023  15.915  0.00  0.00    +0.000 C 
BRANCH   9  10
ATOM     10  C   UNL     1       6.537   4.228  14.486  0.00  0.00    +0.000 A 
ATOM     11  C   UNL     1       7.464   5.193  14.074  0.00  0.00    +0.000 A 
ATOM     12  C   UNL     1       7.814   5.307  12.723  0.00  0.00    +0.000 A 
ATOM     13  C   UNL     1       7.241   4.465  11.772  0.00  0.00    +0.000 A 
ATOM     14  C   UNL     1       6.319   3.501  12.167  0.00  0.00    +0.000 A 
ATOM     15  C   UNL     1       5.971   3.385  13.513  0.00  0.00    +0.000 A 
ENDBRANCH   9  10
ENDBRANCH   7   9
ENDBRANCH   5   7
BRANCH   1  16
ATOM     16  C   UNL     1       2.615   5.332  17.724  0.00  0.00    +0.000 C 
BRANCH  16  21
ATOM     17  C   UNL     1       1.550   2.520  21.821  0.00  0.00    +0.000 C 
ATOM     18  N   UNL     1       1.909   3.557  20.884  0.00  0.00    +0.000 N 
ATOM     19  N   UNL     1       2.045   4.807  21.371  0.00  0.00    +0.000 NA
ATOM     20  C   UNL     1       2.327   5.541  20.298  0.00  0.00    +0.000 A 
ATOM     21  C   UNL     1       2.365   4.786  19.102  0.00  0.00    +0.000 A 
ATOM     22  C   UNL     1       2.150   3.477  19.532  0.00  0.00    +0.000 A 
BRANCH  22  23
ATOM     23  C   UNL     1       2.180   2.273  18.589  0.00  0.00    +0.000 C 
ATOM     24  C   UNL     1       3.039   2.255  17.348  0.00  0.00    +0.000 C 
ATOM     25  C   UNL     1       3.406   1.396  18.510  0.00  0.00    +0.000 C 
ENDBRANCH  22  23
ENDBRANCH  16  21
ENDBRANCH   1  16
TORSDOF 6
ENDMDL
MODEL 2
REMARK VINA RESULT:      -7.7      1.804      2.689
REMARK  Name = 
REMARK  7 active torsions:
REMARK  status: ('A' for Active; 'I' for Inactive)
REMARK    1  A    between atoms: C_1  and  N_2
REMARK    2  A    between atoms: C_5  and  C_6
REMARK    3  A    between atoms: C_6  and  N_7
REMARK    4  A    between atoms: C_11  and  C_12
REMARK    5  A    between atoms: C_12  and  C_14
REMARK    6  A    between atoms: C_14  and  C_15
REMARK    7  A    between atoms: C_22  and  C_23
REMARK                            x       y       z     vdW  Elec       q    Type
REMARK                         _______ _______ _______ _____ _____    ______ ____
ROOT
ATOM      1  N   UNL     1       5.165   5.557  18.461  0.00  0.00    +0.000 NA
ATOM      2  C   UNL     1       6.420   5.703  19.204  0.00  0.00    +0.000 C 
ATOM      3  C   UNL     1       7.683   5.652  18.347  0.00  0.00    +0.000 C 
ATOM      4  C   UNL     1       7.685   4.473  17.385  0.00  0.00    +0.000 C 
ATOM      5  C   UNL     1       6.386   4.372  16.590  0.00  0.00    +0.000 C 
ATOM      6  C   UNL     1       5.149   4.459  17.490  0.00  0.00    +0.000 C 
ENDROOT
BRANCH   5   7
ATOM      7  C   UNL     1       6.318   5.357  15.418  0.00  0.00    +0.000 C 
ATOM      8  O   UNL     1       5.677   6.406  15.480  0.00  0.00    +0.000 OA
BRANCH   7   9
ATOM      9  C   UNL     1       7.152   5.011  14.193  0.00  0.00    +0.000 C 
BRANCH   9  10
ATOM     10  C   UNL     1       6.549   4.093  13.161  0.00  0.00    +0.000 A 
ATOM     11  C   UNL     1       7.293   3.304  12.276  0.00  0.00    +0.000 A 
ATOM     12  C   UNL     1       6.647   2.473  11.354  0.00  0.00    +0.000 A 
ATOM     13  C   UNL     1       5.256   2.422  11.303  0.00  0.00    +0.000 A 
ATOM     14  C   UNL     1       4.502   3.200  12.177  0.00  0.00    +0.000 A 
ATOM     15  C   UNL     1       5.145   4.027  13.097  0.00  0.00    +0.000 A 
ENDBRANCH   9  10
ENDBRANCH   7   9
ENDBRANCH   5   7
BRANCH   1  16
ATOM     16  C   UNL     1       3.974   5.568  19.343  0.00  0.00    +0.000 C 
BRANCH  16  21
ATOM     17  C   UNL     1       0.425   2.027  18.510  0.00  0.00    +0.000 C 
ATOM     18  N   UNL     1       1.283   3.187  18.492  0.00  0.00    +0.000 N 
ATOM     19  N   UNL     1       1.152   4.033  17.451  0.00  0.00    +0.000 NA
ATOM     20  C   UNL     1       2.079   4.961  17.672  0.00  0.00    +0.000 A 
ATOM     21  C   UNL     1       2.832   4.727  18.846  0.00  0.00    +0.000 A 
ATOM     22  C   UNL     1       2.241   3.588  19.394  0.00  0.00    +0.000 A 
BRANCH  22  23
ATOM     23  C   UNL     1       2.671   2.987  20.733  0.00  0.00    +0.000 C 
ATOM     24  C   UNL     1       2.441   3.706  22.040  0.00  0.00    +0.000 C 
ATOM     25  C   UNL     1       1.637   2.492  21.716  0.00  0.00    +0.000 C 
ENDBRANCH  22  23
ENDBRANCH  16  21
ENDBRANCH   1  16
TORSDOF 6
ENDMDL
MODEL 3
REMARK VINA RESULT:      -7.7      2.663      5.680
REMARK  Name = 
REMARK  7 active torsions:
REMARK  status: ('A' for Active; 'I' for Inactive)
REMARK    1  A    between atoms: C_1  and  N_2
REMARK    2  A    between atoms: C_5  and  C_6
REMARK    3  A    between atoms: C_6  and  N_7
REMARK    4  A    between atoms: C_11  and  C_12
REMARK    5  A    between atoms: C_12  and  C_14
REMARK    6  A    between atoms: C_14  and  C_15
REMARK    7  A    between atoms: C_22  and  C_23
REMARK                            x       y       z     vdW  Elec       q    Type
REMARK                         _______ _______ _______ _____ _____    ______ ____
ROOT
ATOM      1  N   UNL     1       2.198   4.751  20.106  0.00  0.00    +0.000 NA
ATOM      2  C   UNL     1       1.574   3.684  20.893  0.00  0.00    +0.000 C 
ATOM      3  C   UNL     1       1.608   2.303  20.241  0.00  0.00    +0.000 C 
ATOM      4  C   UNL     1       1.144   2.334  18.792  0.00  0.00    +0.000 C 
ATOM      5  C   UNL     1       1.844   3.423  17.983  0.00  0.00    +0.000 C 
ATOM      6  C   UNL     1       1.810   4.781  18.693  0.00  0.00    +0.000 C 
ENDROOT
BRANCH   5   7
ATOM      7  C   UNL     1       3.260   3.035  17.546  0.00  0.00    +0.000 C 
ATOM      8  O   UNL     1       3.739   1.927  17.785  0.00  0.00    +0.000 OA
BRANCH   7   9
ATOM      9  C   UNL     1       4.023   4.066  16.728  0.00  0.00    +0.000 C 
BRANCH   9  10
ATOM     10  C   UNL     1       5.188   4.767  17.379  0.00  0.00    +0.000 A 
ATOM     11  C   UNL     1       5.482   4.705  18.746  0.00  0.00    +0.000 A 
ATOM     12  C   UNL     1       6.591   5.384  19.264  0.00  0.00    +0.000 A 
ATOM     13  C   UNL     1       7.415   6.131  18.425  0.00  0.00    +0.000 A 
ATOM     14  C   UNL     1       7.136   6.202  17.064  0.00  0.00    +0.000 A 
ATOM     15  C   UNL     1       6.032   5.525  16.547  0.00  0.00    +0.000 A 
ENDBRANCH   9  10
ENDBRANCH   7   9
ENDBRANCH   5   7
BRANCH   1  16
ATOM     16  C   UNL     1       2.100   6.076  20.762  0.00  0.00    +0.000 C 
BRANCH  16  21
ATOM     17  C   UNL     1       1.394  10.473  18.312  0.00  0.00    +0.000 C 
ATOM     18  N   UNL     1       1.791   9.156  18.748  0.00  0.00    +0.000 N 
ATOM     19  N   UNL     1       2.476   8.397  17.868  0.00  0.00    +0.000 NA
ATOM     20  C   UNL     1       2.664   7.249  18.512  0.00  0.00    +0.000 A 
ATOM     21  C   UNL     1       2.095   7.238  19.807  0.00  0.00    +0.000 A 
ATOM     22  C   UNL     1       1.585   8.528  19.954  0.00  0.00    +0.000 A 
BRANCH  22  23
ATOM     23  C   UNL     1       0.931   9.025  21.244  0.00  0.00    +0.000 C 
ATOM     24  C   UNL     1      -0.204  10.020  21.229  0.00  0.00    +0.000 C 
ATOM     25  C   UNL     1      -0.473   8.601  21.601  0.00  0.00    +0.000 C 
ENDBRANCH  22  23
ENDBRANCH  16  21
ENDBRANCH   1  16
TORSDOF 6
ENDMDL
MODEL 4
REMARK VINA RESULT:      -7.7      1.821      2.890
REMARK  Name = 
REMARK  7 active torsions:
REMARK  status: ('A' for Active; 'I' for Inactive)
REMARK    1  A    between atoms: C_1  and  N_2
REMARK    2  A    between atoms: C_5  and  C_6
REMARK    3  A    between atoms: C_6  and  N_7
REMARK    4  A    between atoms: C_11  and  C_12
REMARK    5  A    between atoms: C_12  and  C_14
REMARK    6  A    between atoms: C_14  and  C_15
REMARK    7  A    between atoms: C_22  and  C_23
REMARK                            x       y       z     vdW  Elec       q    Type
REMARK                         _______ _______ _______ _____ _____    ______ ____
ROOT
ATOM      1  N   UNL     1       4.669   5.211  17.213  0.00  0.00    +0.000 NA
ATOM      2  C   UNL     1       5.512   5.717  18.300  0.00  0.00    +0.000 C 
ATOM      3  C   UNL     1       6.994   5.844  17.956  0.00  0.00    +0.000 C 
ATOM      4  C   UNL     1       7.548   4.589  17.297  0.00  0.00    +0.000 C 
ATOM      5  C   UNL     1       6.676   4.111  16.139  0.00  0.00    +0.000 C 
ATOM      6  C   UNL     1       5.196   4.029  16.525  0.00  0.00    +0.000 C 
ENDROOT
BRANCH   5   7
ATOM      7  C   UNL     1       6.894   4.911  14.850  0.00  0.00    +0.000 C 
ATOM      8  O   UNL     1       7.894   5.604  14.670  0.00  0.00    +0.000 OA
BRANCH   7   9
ATOM      9  C   UNL     1       5.842   4.744  13.764  0.00  0.00    +0.000 C 
BRANCH   9  10
ATOM     10  C   UNL     1       6.059   3.672  12.725  0.00  0.00    +0.000 A 
ATOM     11  C   UNL     1       7.314   3.282  12.245  0.00  0.00    +0.000 A 
ATOM     12  C   UNL     1       7.421   2.270  11.284  0.00  0.00    +0.000 A 
ATOM     13  C   UNL     1       6.280   1.641  10.791  0.00  0.00    +0.000 A 
ATOM     14  C   UNL     1       5.025   2.018  11.259  0.00  0.00    +0.000 A 
ATOM     15  C   UNL     1       4.917   3.025  12.218  0.00  0.00    +0.000 A 
ENDBRANCH   9  10
ENDBRANCH   7   9
ENDBRANCH   5   7
BRANCH   1  16
ATOM     16  C   UNL     1       3.249   5.065  17.613  0.00  0.00    +0.000 C 
BRANCH  16  21
ATOM     17  C   UNL     1       1.196   8.084  21.147  0.00  0.00    +0.000 C 
ATOM     18  N   UNL     1       1.834   7.514  19.986  0.00  0.00    +0.000 N 
ATOM     19  N   UNL     1       2.070   8.340  18.946  0.00  0.00    +0.000 NA
ATOM     20  C   UNL     1       2.611   7.550  18.024  0.00  0.00    +0.000 A 
ATOM     21  C   UNL     1       2.722   6.203  18.441  0.00  0.00    +0.000 A 
ATOM     22  C   UNL     1       2.261   6.227  19.757  0.00  0.00    +0.000 A 
BRANCH  22  23
ATOM     23  C   UNL     1       2.263   4.996  20.665  0.00  0.00    +0.000 C 
ATOM     24  C   UNL     1       1.089   4.048  20.724  0.00  0.00    +0.000 C 
ATOM     25  C   UNL     1       2.357   3.610  20.072  0.00  0.00    +0.000 C 
ENDBRANCH  22  23
ENDBRANCH  16  21
ENDBRANCH   1  16
TORSDOF 6
ENDMDL
MODEL 5
REMARK VINA RESULT:      -7.6      1.364      2.782
REMARK  Name = 
REMARK  7 active torsions:
REMARK  status: ('A' for Active; 'I' for Inactive)
REMARK    1  A    between atoms: C_1  and  N_2
REMARK    2  A    between atoms: C_5  and  C_6
REMARK    3  A    between atoms: C_6  and  N_7
REMARK    4  A    between atoms: C_11  and  C_12
REMARK    5  A    between atoms: C_12  and  C_14
REMARK    6  A    between atoms: C_14  and  C_15
REMARK    7  A    between atoms: C_22  and  C_23
REMARK                            x       y       z     vdW  Elec       q    Type
REMARK                         _______ _______ _______ _____ _____    ______ ____
ROOT
ATOM      1  N   UNL     1       4.606   5.293  17.000  0.00  0.00    +0.000 NA
ATOM      2  C   UNL     1       5.423   5.789  18.112  0.00  0.00    +0.000 C 
ATOM      3  C   UNL     1       6.922   5.857  17.826  0.00  0.00    +0.000 C 
ATOM      4  C   UNL     1       7.455   4.571  17.212  0.00  0.00    +0.000 C 
ATOM      5  C   UNL     1       6.614   4.102  16.028  0.00  0.00    +0.000 C 
ATOM      6  C   UNL     1       5.117   4.081  16.355  0.00  0.00    +0.000 C 
ENDROOT
BRANCH   5   7
ATOM      7  C   UNL     1       6.912   4.870  14.735  0.00  0.00    +0.000 C 
ATOM      8  O   UNL     1       7.929   5.547  14.594  0.00  0.00    +0.000 OA
BRANCH   7   9
ATOM      9  C   UNL     1       5.918   4.690  13.597  0.00  0.00    +0.000 C 
BRANCH   9  10
ATOM     10  C   UNL     1       6.176   3.592  12.597  0.00  0.00    +0.000 A 
ATOM     11  C   UNL     1       7.437   3.279  12.077  0.00  0.00    +0.000 A 
ATOM     12  C   UNL     1       7.584   2.235  11.156  0.00  0.00    +0.000 A 
ATOM     13  C   UNL     1       6.477   1.496  10.744  0.00  0.00    +0.000 A 
ATOM     14  C   UNL     1       5.217   1.795  11.253  0.00  0.00    +0.000 A 
ATOM     15  C   UNL     1       5.070   2.834  12.171  0.00  0.00    +0.000 A 
ENDBRANCH   9  10
ENDBRANCH   7   9
ENDBRANCH   5   7
BRANCH   1  16
ATOM     16  C   UNL     1       3.168   5.205  17.344  0.00  0.00    +0.000 C 
BRANCH  16  21
ATOM     17  C   UNL     1       2.265   2.594  21.610  0.00  0.00    +0.000 C 
ATOM     18  N   UNL     1       2.447   3.046  20.252  0.00  0.00    +0.000 N 
ATOM     19  N   UNL     1       2.428   2.108  19.283  0.00  0.00    +0.000 NA
ATOM     20  C   UNL     1       2.661   2.793  18.167  0.00  0.00    +0.000 A 
ATOM     21  C   UNL     1       2.847   4.177  18.393  0.00  0.00    +0.000 A 
ATOM     22  C   UNL     1       2.636   4.319  19.765  0.00  0.00    +0.000 A 
BRANCH  22  23
ATOM     23  C   UNL     1       2.656   5.672  20.477  0.00  0.00    +0.000 C 
ATOM     24  C   UNL     1       2.283   6.951  19.767  0.00  0.00    +0.000 C 
ATOM     25  C   UNL     1       1.364   6.385  20.797  0.00  0.00    +0.000 C 
ENDBRANCH  22  23
ENDBRANCH  16  21
ENDBRANCH   1  16
TORSDOF 6
ENDMDL
MODEL 6
REMARK VINA RESULT:      -7.6      3.027      5.708
REMARK  Name = 
REMARK  7 active torsions:
REMARK  status: ('A' for Active; 'I' for Inactive)
REMARK    1  A    between atoms: C_1  and  N_2
REMARK    2  A    between atoms: C_5  and  C_6
REMARK    3  A    between atoms: C_6  and  N_7
REMARK    4  A    between atoms: C_11  and  C_12
REMARK    5  A    between atoms: C_12  and  C_14
REMARK    6  A    between atoms: C_14  and  C_15
REMARK    7  A    between atoms: C_22  and  C_23
REMARK                            x       y       z     vdW  Elec       q    Type
REMARK                         _______ _______ _______ _____ _____    ______ ____
ROOT
ATOM      1  N   UNL     1       2.504   5.639  19.704  0.00  0.00    +0.000 NA
ATOM      2  C   UNL     1       1.518   4.877  20.476  0.00  0.00    +0.000 C 
ATOM      3  C   UNL     1       1.257   3.462  19.964  0.00  0.00    +0.000 C 
ATOM      4  C   UNL     1       1.009   3.424  18.463  0.00  0.00    +0.000 C 
ATOM      5  C   UNL     1       2.076   4.184  17.680  0.00  0.00    +0.000 C 
ATOM      6  C   UNL     1       2.323   5.585  18.251  0.00  0.00    +0.000 C 
ENDROOT
BRANCH   5   7
ATOM      7  C   UNL     1       3.377   3.393  17.509  0.00  0.00    +0.000 C 
ATOM      8  O   UNL     1       3.551   2.295  18.035  0.00  0.00    +0.000 OA
BRANCH   7   9
ATOM      9  C   UNL     1       4.423   4.001  16.585  0.00  0.00    +0.000 C 
BRANCH   9  10
ATOM     10  C   UNL     1       5.520   4.830  17.203  0.00  0.00    +0.000 A 
ATOM     11  C   UNL     1       6.283   5.774  16.505  0.00  0.00    +0.000 A 
ATOM     12  C   UNL     1       7.278   6.505  17.164  0.00  0.00    +0.000 A 
ATOM     13  C   UNL     1       7.523   6.301  18.520  0.00  0.00    +0.000 A 
ATOM     14  C   UNL     1       6.773   5.367  19.227  0.00  0.00    +0.000 A 
ATOM     15  C   UNL     1       5.779   4.639  18.571  0.00  0.00    +0.000 A 
ENDBRANCH   9  10
ENDBRANCH   7   9
ENDBRANCH   5   7
BRANCH   1  16
ATOM     16  C   UNL     1       2.687   7.018  20.215  0.00  0.00    +0.000 C 
BRANCH  16  21
ATOM     17  C   UNL     1      -0.407  10.574  18.315  0.00  0.00    +0.000 C 
ATOM     18  N   UNL     1       0.649   9.627  18.580  0.00  0.00    +0.000 N 
ATOM     19  N   UNL     1       1.534   9.400  17.589  0.00  0.00    +0.000 NA
ATOM     20  C   UNL     1       2.346   8.472  18.089  0.00  0.00    +0.000 A 
ATOM     21  C   UNL     1       1.994   8.074  19.399  0.00  0.00    +0.000 A 
ATOM     22  C   UNL     1       0.914   8.898  19.716  0.00  0.00    +0.000 A 
BRANCH  22  23
ATOM     23  C   UNL     1       0.229   8.888  21.083  0.00  0.00    +0.000 C 
ATOM     24  C   UNL     1       0.988   9.177  22.356  0.00  0.00    +0.000 C 
ATOM     25  C   UNL     1       0.013  10.179  21.837  0.00  0.00    +0.000 C 
ENDBRANCH  22  23
ENDBRANCH  16  21
ENDBRANCH   1  16
TORSDOF 6
ENDMDL
MODEL 7
REMARK VINA RESULT:      -7.5      2.916      4.825
REMARK  Name = 
REMARK  7 active torsions:
REMARK  status: ('A' for Active; 'I' for Inactive)
REMARK    1  A    between atoms: C_1  and  N_2
REMARK    2  A    between atoms: C_5  and  C_6
REMARK    3  A    between atoms: C_6  and  N_7
REMARK    4  A    between atoms: C_11  and  C_12
REMARK    5  A    between atoms: C_12  and  C_14
REMARK    6  A    between atoms: C_14  and  C_15
REMARK    7  A    between atoms: C_22  and  C_23
REMARK                            x       y       z     vdW  Elec       q    Type
REMARK                         _______ _______ _______ _____ _____    ______ ____
ROOT
ATOM      1  N   UNL     1       3.185   5.871  19.066  0.00  0.00    +0.000 NA
ATOM      2  C   UNL     1       3.784   4.875  19.960  0.00  0.00    +0.000 C 
ATOM      3  C   UNL     1       4.862   4.004  19.320  0.00  0.00    +0.000 C 
ATOM      4  C   UNL     1       4.425   3.427  17.982  0.00  0.00    +0.000 C 
ATOM      5  C   UNL     1       3.849   4.492  17.052  0.00  0.00    +0.000 C 
ATOM      6  C   UNL     1       2.795   5.359  17.749  0.00  0.00    +0.000 C 
ENDROOT
BRANCH   5   7
ATOM      7  C   UNL     1       4.926   5.336  16.362  0.00  0.00    +0.000 C 
ATOM      8  O   UNL     1       4.799   6.547  16.190  0.00  0.00    +0.000 OA
BRANCH   7   9
ATOM      9  C   UNL     1       6.204   4.610  15.966  0.00  0.00    +0.000 C 
BRANCH   9  10
ATOM     10  C   UNL     1       6.506   4.457  14.497  0.00  0.00    +0.000 A 
ATOM     11  C   UNL     1       5.858   3.553  13.648  0.00  0.00    +0.000 A 
ATOM     12  C   UNL     1       6.200   3.484  12.293  0.00  0.00    +0.000 A 
ATOM     13  C   UNL     1       7.191   4.313  11.772  0.00  0.00    +0.000 A 
ATOM     14  C   UNL     1       7.844   5.218  12.603  0.00  0.00    +0.000 A 
ATOM     15  C   UNL     1       7.503   5.288  13.954  0.00  0.00    +0.000 A 
ENDBRANCH   9  10
ENDBRANCH   7   9
ENDBRANCH   5   7
BRANCH   1  16
ATOM     16  C   UNL     1       2.115   6.658  19.722  0.00  0.00    +0.000 C 
BRANCH  16  21
ATOM     17  C   UNL     1       0.694  11.411  18.618  0.00  0.00    +0.000 C 
ATOM     18  N   UNL     1       1.309  10.107  18.678  0.00  0.00    +0.000 N 
ATOM     19  N   UNL     1       2.135   9.769  17.668  0.00  0.00    +0.000 NA
ATOM     20  C   UNL     1       2.510   8.527  17.961  0.00  0.00    +0.000 A 
ATOM     21  C   UNL     1       1.925   8.036  19.151  0.00  0.00    +0.000 A 
ATOM     22  C   UNL     1       1.192   9.121  19.631  0.00  0.00    +0.000 A 
BRANCH  22  23
ATOM     23  C   UNL     1       0.433   9.095  20.958  0.00  0.00    +0.000 C 
ATOM     24  C   UNL     1       1.152   9.093  22.286  0.00  0.00    +0.000 C 
ATOM     25  C   UNL     1       0.414  10.313  21.850  0.00  0.00    +0.000 C 
ENDBRANCH  22  23
ENDBRANCH  16  21
ENDBRANCH   1  16
TORSDOF 6
ENDMDL
MODEL 8
REMARK VINA RESULT:      -7.5      0.481      1.077
REMARK  Name = 
REMARK  7 active torsions:
REMARK  status: ('A' for Active; 'I' for Inactive)
REMARK    1  A    between atoms: C_1  and  N_2
REMARK    2  A    between atoms: C_5  and  C_6
REMARK    3  A    between atoms: C_6  and  N_7
REMARK    4  A    between atoms: C_11  and  C_12
REMARK    5  A    between atoms: C_12  and  C_14
REMARK    6  A    between atoms: C_14  and  C_15
REMARK    7  A    between atoms: C_22  and  C_23
REMARK                            x       y       z     vdW  Elec       q    Type
REMARK                         _______ _______ _______ _____ _____    ______ ____
ROOT
ATOM      1  N   UNL     1       4.306   6.115  17.409  0.00  0.00    +0.000 NA
ATOM      2  C   UNL     1       4.792   7.491  17.266  0.00  0.00    +0.000 C 
ATOM      3  C   UNL     1       6.299   7.621  17.063  0.00  0.00    +0.000 C 
ATOM      4  C   UNL     1       7.094   6.804  18.071  0.00  0.00    +0.000 C 
ATOM      5  C   UNL     1       6.599   5.363  18.167  0.00  0.00    +0.000 C 
ATOM      6  C   UNL     1       5.078   5.285  18.338  0.00  0.00    +0.000 C 
ENDROOT
BRANCH   5   7
ATOM      7  C   UNL     1       7.098   4.477  17.020  0.00  0.00    +0.000 C 
ATOM      8  O   UNL     1       8.249   4.045  16.978  0.00  0.00    +0.000 OA
BRANCH   7   9
ATOM      9  C   UNL     1       6.069   4.090  15.967  0.00  0.00    +0.000 C 
BRANCH   9  10
ATOM     10  C   UNL     1       6.467   4.190  14.516  0.00  0.00    +0.000 A 
ATOM     11  C   UNL     1       5.950   3.379  13.499  0.00  0.00    +0.000 A 
ATOM     12  C   UNL     1       6.373   3.548  12.176  0.00  0.00    +0.000 A 
ATOM     13  C   UNL     1       7.314   4.524  11.854  0.00  0.00    +0.000 A 
ATOM     14  C   UNL     1       7.836   5.338  12.855  0.00  0.00    +0.000 A 
ATOM     15  C   UNL     1       7.414   5.171  14.174  0.00  0.00    +0.000 A 
ENDBRANCH   9  10
ENDBRANCH   7   9
ENDBRANCH   5   7
BRANCH   1  16
ATOM     16  C   UNL     1       2.845   6.047  17.648  0.00  0.00    +0.000 C 
BRANCH  16  21
ATOM     17  C   UNL     1       1.327   2.856  21.300  0.00  0.00    +0.000 C 
ATOM     18  N   UNL     1       1.807   3.970  20.519  0.00  0.00    +0.000 N 
ATOM     19  N   UNL     1       1.961   5.148  21.156  0.00  0.00    +0.000 NA
ATOM     20  C   UNL     1       2.363   5.981  20.200  0.00  0.00    +0.000 A 
ATOM     21  C   UNL     1       2.462   5.364  18.931  0.00  0.00    +0.000 A 
ATOM     22  C   UNL     1       2.151   4.029  19.188  0.00  0.00    +0.000 A 
BRANCH  22  23
ATOM     23  C   UNL     1       2.201   2.939  18.116  0.00  0.00    +0.000 C 
ATOM     24  C   UNL     1       3.500   2.296  17.694  0.00  0.00    +0.000 C 
ATOM     25  C   UNL     1       2.516   1.511  18.494  0.00  0.00    +0.000 C 
ENDBRANCH  22  23
ENDBRANCH  16  21
ENDBRANCH   1  16
TORSDOF 6
ENDMDL
MODEL 9
REMARK VINA RESULT:      -7.5      2.432      6.952
REMARK  Name = 
REMARK  7 active torsions:
REMARK  status: ('A' for Active; 'I' for Inactive)
REMARK    1  A    between atoms: C_1  and  N_2
REMARK    2  A    between atoms: C_5  and  C_6
REMARK    3  A    between atoms: C_6  and  N_7
REMARK    4  A    between atoms: C_11  and  C_12
REMARK    5  A    between atoms: C_12  and  C_14
REMARK    6  A    between atoms: C_14  and  C_15
REMARK    7  A    between atoms: C_22  and  C_23
REMARK                            x       y       z     vdW  Elec       q    Type
REMARK                         _______ _______ _______ _____ _____    ______ ____
ROOT
ATOM      1  N   UNL     1       4.056   3.641  17.223  0.00  0.00    +0.000 NA
ATOM      2  C   UNL     1       2.687   3.478  16.726  0.00  0.00    +0.000 C 
ATOM      3  C   UNL     1       1.607   4.099  17.609  0.00  0.00    +0.000 C 
ATOM      4  C   UNL     1       1.765   3.722  19.074  0.00  0.00    +0.000 C 
ATOM      5  C   UNL     1       3.189   3.945  19.579  0.00  0.00    +0.000 C 
ATOM      6  C   UNL     1       4.236   3.331  18.644  0.00  0.00    +0.000 C 
ENDROOT
BRANCH   5   7
ATOM      7  C   UNL     1       3.491   5.413  19.900  0.00  0.00    +0.000 C 
ATOM      8  O   UNL     1       4.582   5.926  19.658  0.00  0.00    +0.000 OA
BRANCH   7   9
ATOM      9  C   UNL     1       2.341   6.233  20.467  0.00  0.00    +0.000 C 
BRANCH   9  10
ATOM     10  C   UNL     1       1.975   7.519  19.770  0.00  0.00    +0.000 A 
ATOM     11  C   UNL     1       1.287   8.576  20.377  0.00  0.00    +0.000 A 
ATOM     12  C   UNL     1       0.996   9.738  19.653  0.00  0.00    +0.000 A 
ATOM     13  C   UNL     1       1.386   9.857  18.321  0.00  0.00    +0.000 A 
ATOM     14  C   UNL     1       2.071   8.814  17.705  0.00  0.00    +0.000 A 
ATOM     15  C   UNL     1       2.363   7.656  18.425  0.00  0.00    +0.000 A 
ENDBRANCH   9  10
ENDBRANCH   7   9
ENDBRANCH   5   7
BRANCH   1  16
ATOM     16  C   UNL     1       5.061   2.983  16.355  0.00  0.00    +0.000 C 
BRANCH  16  21
ATOM     17  C   UNL     1       7.997   5.504  13.061  0.00  0.00    +0.000 C 
ATOM     18  N   UNL     1       7.249   5.036  14.202  0.00  0.00    +0.000 N 
ATOM     19  N   UNL     1       7.462   5.662  15.377  0.00  0.00    +0.000 NA
ATOM     20  C   UNL     1       6.690   5.004  16.237  0.00  0.00    +0.000 A 
ATOM     21  C   UNL     1       5.978   3.937  15.641  0.00  0.00    +0.000 A 
ATOM     22  C   UNL     1       6.319   4.026  14.292  0.00  0.00    +0.000 A 
BRANCH  22  23
ATOM     23  C   UNL     1       5.725   3.113  13.219  0.00  0.00    +0.000 C 
ATOM     24  C   UNL     1       4.992   3.665  12.020  0.00  0.00    +0.000 C 
ATOM     25  C   UNL     1       6.340   3.053  11.841  0.00  0.00    +0.000 C 
ENDBRANCH  22  23
ENDBRANCH  16  21
ENDBRANCH   1  16
TORSDOF 6
ENDMDL
