MODEL 1
REMARK VINA RESULT:      -6.7      0.000      0.000
REMARK  Name = 
REMARK  6 active torsions:
REMARK  status: ('A' for Active; 'I' for Inactive)
REMARK    1  A    between atoms: C_1  and  C_2
REMARK    2  A    between atoms: C_2  and  C_3
REMARK    3  A    between atoms: C_2  and  C_4
REMARK    4  A    between atoms: C_4  and  C_5
REMARK    5  A    between atoms: C_4  and  C_12
REMARK    6  A    between atoms: C_5  and  N_6
REMARK                            x       y       z     vdW  Elec       q    Type
REMARK                         _______ _______ _______ _____ _____    ______ ____
ROOT
ATOM      1  C   UNL     1       6.187   5.714  17.800  0.00  0.00    +0.000 C 
ENDROOT
BRANCH   1   2
ATOM      2  C   UNL     1       6.134   5.045  16.415  0.00  0.00    +0.000 A 
ATOM      3  C   UNL     1       5.035   4.282  15.981  0.00  0.00    +0.000 A 
ATOM      4  C   UNL     1       4.978   3.757  14.685  0.00  0.00    +0.000 A 
ATOM      5  C   UNL     1       6.028   3.971  13.802  0.00  0.00    +0.000 A 
ATOM      6 CL   UNL     1       5.950   3.341  12.204  0.00  0.00    +0.000 Cl
ATOM      7  C   UNL     1       7.137   4.706  14.206  0.00  0.00    +0.000 A 
ATOM      8  C   UNL     1       7.183   5.248  15.496  0.00  0.00    +0.000 A 
ENDBRANCH   1   2
BRANCH   1  10
ATOM      9  C   UNL     1       8.033   5.803  19.620  0.00  0.00    +0.000 C 
ATOM     10  C   UNL     1       7.631   6.188  18.193  0.00  0.00    +0.000 C 
ATOM     11  C   UNL     1       7.823   7.700  17.990  0.00  0.00    +0.000 C 
ENDBRANCH   1  10
BRANCH   1  12
ATOM     12  C   UNL     1       5.517   4.916  18.957  0.00  0.00    +0.000 C 
BRANCH  12  13
ATOM     13  N   UNL     1       4.242   5.511  19.349  0.00  0.00    +0.000 N 
ATOM     14  C   UNL     1       3.197   4.680  19.567  0.00  0.00    +0.000 A 
ATOM     15  N   UNL     1       3.083   3.466  19.077  0.00  0.00    +0.000 NA
ATOM     16  C   UNL     1       1.910   2.885  19.513  0.00  0.00    +0.000 A 
ATOM     17  C   UNL     1       1.138   3.661  20.348  0.00  0.00    +0.000 A 
ATOM     18  S   UNL     1       1.889   5.183  20.571  0.00  0.00    +0.000 S 
ATOM     19  H   UNL     1       4.302   6.323  19.953  0.00  0.00    +0.000 HD
ENDBRANCH  12  13
ENDBRANCH   1  12
TORSDOF 4
ENDMDL
MODEL 2
REMARK VINA RESULT:      -6.4      1.301      1.376
REMARK  Name = 
REMARK  6 active torsions:
REMARK  status: ('A' for Active; 'I' for Inactive)
REMARK    1  A    between atoms: C_1  and  C_2
REMARK    2  A    between atoms: C_2  and  C_3
REMARK    3  A    between atoms: C_2  and  C_4
REMARK    4  A    between atoms: C_4  and  C_5
REMARK    5  A    between atoms: C_4  and  C_12
REMARK    6  A    between atoms: C_5  and  N_6
REMARK                            x       y       z     vdW  Elec       q    Type
REMARK                         _______ _______ _______ _____ _____    ______ ____
ROOT
ATOM      1  C   UNL     1       6.163   5.993  17.541  0.00  0.00    +0.000 C 
ENDROOT
BRANCH   1   2
ATOM      2  C   UNL     1       6.119   5.244  16.197  0.00  0.00    +0.000 A 
ATOM      3  C   UNL     1       4.919   4.797  15.614  0.00  0.00    +0.000 A 
ATOM      4  C   UNL     1       4.902   4.196  14.350  0.00  0.00    +0.000 A 
ATOM      5  C   UNL     1       6.089   4.013  13.652  0.00  0.00    +0.000 A 
ATOM      6 CL   UNL     1       6.065   3.290  12.092  0.00  0.00    +0.000 Cl
ATOM      7  C   UNL     1       7.293   4.428  14.208  0.00  0.00    +0.000 A 
ATOM      8  C   UNL     1       7.306   5.049  15.463  0.00  0.00    +0.000 A 
ENDBRANCH   1   2
BRANCH   1  10
ATOM      9  C   UNL     1       8.027   5.927  19.343  0.00  0.00    +0.000 C 
ATOM     10  C   UNL     1       7.615   6.422  17.953  0.00  0.00    +0.000 C 
ATOM     11  C   UNL     1       7.821   7.943  17.862  0.00  0.00    +0.000 C 
ENDBRANCH   1  10
BRANCH   1  12
ATOM     12  C   UNL     1       5.420   5.298  18.720  0.00  0.00    +0.000 C 
BRANCH  12  13
ATOM     13  N   UNL     1       5.181   3.884  18.442  0.00  0.00    +0.000 N 
ATOM     14  C   UNL     1       4.042   3.330  18.915  0.00  0.00    +0.000 A 
ATOM     15  N   UNL     1       3.340   3.793  19.924  0.00  0.00    +0.000 NA
ATOM     16  C   UNL     1       2.225   3.006  20.130  0.00  0.00    +0.000 A 
ATOM     17  C   UNL     1       2.077   1.948  19.262  0.00  0.00    +0.000 A 
ATOM     18  S   UNL     1       3.395   1.916  18.170  0.00  0.00    +0.000 S 
ATOM     19  H   UNL     1       5.497   3.553  17.537  0.00  0.00    +0.000 HD
ENDBRANCH  12  13
ENDBRANCH   1  12
TORSDOF 4
ENDMDL
MODEL 3
REMARK VINA RESULT:      -6.4      1.106      1.250
REMARK  Name = 
REMARK  6 active torsions:
REMARK  status: ('A' for Active; 'I' for Inactive)
REMARK    1  A    between atoms: C_1  and  C_2
REMARK    2  A    between atoms: C_2  and  C_3
REMARK    3  A    between atoms: C_2  and  C_4
REMARK    4  A    between atoms: C_4  and  C_5
REMARK    5  A    between atoms: C_4  and  C_12
REMARK    6  A    between atoms: C_5  and  N_6
REMARK                            x       y       z     vdW  Elec       q    Type
REMARK                         _______ _______ _______ _____ _____    ______ ____
ROOT
ATOM      1  C   UNL     1       6.112   6.059  17.919  0.00  0.00    +0.000 C 
ENDROOT
BRANCH   1   2
ATOM      2  C   UNL     1       5.938   5.396  16.541  0.00  0.00    +0.000 A 
ATOM      3  C   UNL     1       5.320   6.046  15.457  0.00  0.00    +0.000 A 
ATOM      4  C   UNL     1       5.252   5.451  14.192  0.00  0.00    +0.000 A 
ATOM      5  C   UNL     1       5.786   4.185  13.991  0.00  0.00    +0.000 A 
ATOM      6 CL   UNL     1       5.718   3.461  12.433  0.00  0.00    +0.000 Cl
ATOM      7  C   UNL     1       6.388   3.509  15.046  0.00  0.00    +0.000 A 
ATOM      8  C   UNL     1       6.473   4.114  16.305  0.00  0.00    +0.000 A 
ENDBRANCH   1   2
BRANCH   1  10
ATOM      9  C   UNL     1       7.967   5.775  19.709  0.00  0.00    +0.000 C 
ATOM     10  C   UNL     1       7.618   6.278  18.305  0.00  0.00    +0.000 C 
ATOM     11  C   UNL     1       8.049   7.746  18.157  0.00  0.00    +0.000 C 
ENDBRANCH   1  10
BRANCH   1  12
ATOM     12  C   UNL     1       5.317   5.400  19.085  0.00  0.00    +0.000 C 
BRANCH  12  13
ATOM     13  N   UNL     1       3.894   5.296  18.770  0.00  0.00    +0.000 N 
ATOM     14  C   UNL     1       3.339   4.062  18.754  0.00  0.00    +0.000 A 
ATOM     15  N   UNL     1       4.000   2.940  18.583  0.00  0.00    +0.000 NA
ATOM     16  C   UNL     1       3.137   1.865  18.644  0.00  0.00    +0.000 A 
ATOM     17  C   UNL     1       1.816   2.177  18.876  0.00  0.00    +0.000 A 
ATOM     18  S   UNL     1       1.642   3.876  18.989  0.00  0.00    +0.000 S 
ATOM     19  H   UNL     1       3.309   6.045  19.122  0.00  0.00    +0.000 HD
ENDBRANCH  12  13
ENDBRANCH   1  12
TORSDOF 4
ENDMDL
MODEL 4
REMARK VINA RESULT:      -6.3      3.705      5.312
REMARK  Name = 
REMARK  6 active torsions:
REMARK  status: ('A' for Active; 'I' for Inactive)
REMARK    1  A    between atoms: C_1  and  C_2
REMARK    2  A    between atoms: C_2  and  C_3
REMARK    3  A    between atoms: C_2  and  C_4
REMARK    4  A    between atoms: C_4  and  C_5
REMARK    5  A    between atoms: C_4  and  C_12
REMARK    6  A    between atoms: C_5  and  N_6
REMARK                            x       y       z     vdW  Elec       q    Type
REMARK                         _______ _______ _______ _____ _____    ______ ____
ROOT
ATOM      1  C   UNL     1       2.745   5.914  20.016  0.00  0.00    +0.000 C 
ENDROOT
BRANCH   1   2
ATOM      2  C   UNL     1       3.792   5.593  18.933  0.00  0.00    +0.000 A 
ATOM      3  C   UNL     1       3.747   6.151  17.643  0.00  0.00    +0.000 A 
ATOM      4  C   UNL     1       4.759   5.907  16.707  0.00  0.00    +0.000 A 
ATOM      5  C   UNL     1       5.828   5.085  17.039  0.00  0.00    +0.000 A 
ATOM      6 CL   UNL     1       7.080   4.799  15.896  0.00  0.00    +0.000 Cl
ATOM      7  C   UNL     1       5.893   4.504  18.301  0.00  0.00    +0.000 A 
ATOM      8  C   UNL     1       4.890   4.766  19.242  0.00  0.00    +0.000 A 
ENDBRANCH   1   2
BRANCH   1  10
ATOM      9  C   UNL     1       1.989   3.814  21.335  0.00  0.00    +0.000 C 
ATOM     10  C   UNL     1       1.676   4.778  20.187  0.00  0.00    +0.000 C 
ATOM     11  C   UNL     1       1.456   3.985  18.888  0.00  0.00    +0.000 C 
ENDBRANCH   1  10
BRANCH   1  12
ATOM     12  C   UNL     1       2.073   7.314  19.904  0.00  0.00    +0.000 C 
BRANCH  12  13
ATOM     13  N   UNL     1       1.771   7.869  21.221  0.00  0.00    +0.000 N 
ATOM     14  C   UNL     1       0.998   8.977  21.279  0.00  0.00    +0.000 A 
ATOM     15  N   UNL     1       0.833   9.833  20.297  0.00  0.00    +0.000 NA
ATOM     16  C   UNL     1      -0.037  10.835  20.679  0.00  0.00    +0.000 A 
ATOM     17  C   UNL     1      -0.542  10.726  21.955  0.00  0.00    +0.000 A 
ATOM     18  S   UNL     1       0.117   9.342  22.715  0.00  0.00    +0.000 S 
ATOM     19  H   UNL     1       1.639   7.192  21.965  0.00  0.00    +0.000 HD
ENDBRANCH  12  13
ENDBRANCH   1  12
TORSDOF 4
ENDMDL
MODEL 5
REMARK VINA RESULT:      -6.3      3.878      5.259
REMARK  Name = 
REMARK  6 active torsions:
REMARK  status: ('A' for Active; 'I' for Inactive)
REMARK    1  A    between atoms: C_1  and  C_2
REMARK    2  A    between atoms: C_2  and  C_3
REMARK    3  A    between atoms: C_2  and  C_4
REMARK    4  A    between atoms: C_4  and  C_5
REMARK    5  A    between atoms: C_4  and  C_12
REMARK    6  A    between atoms: C_5  and  N_6
REMARK                            x       y       z     vdW  Elec       q    Type
REMARK                         _______ _______ _______ _____ _____    ______ ____
ROOT
ATOM      1  C   UNL     1       3.984   6.165  18.048  0.00  0.00    +0.000 C 
ENDROOT
BRANCH   1   2
ATOM      2  C   UNL     1       2.940   7.219  18.461  0.00  0.00    +0.000 A 
ATOM      3  C   UNL     1       2.393   7.280  19.756  0.00  0.00    +0.000 A 
ATOM      4  C   UNL     1       1.510   8.300  20.127  0.00  0.00    +0.000 A 
ATOM      5  C   UNL     1       1.143   9.271  19.204  0.00  0.00    +0.000 A 
ATOM      6 CL   UNL     1       0.072  10.534  19.665  0.00  0.00    +0.000 Cl
ATOM      7  C   UNL     1       1.652   9.229  17.911  0.00  0.00    +0.000 A 
ATOM      8  C   UNL     1       2.552   8.219  17.548  0.00  0.00    +0.000 A 
ENDBRANCH   1   2
BRANCH   1  10
ATOM      9  C   UNL     1       5.157   6.166  15.735  0.00  0.00    +0.000 C 
ATOM     10  C   UNL     1       5.124   6.758  17.148  0.00  0.00    +0.000 C 
ATOM     11  C   UNL     1       6.510   6.624  17.800  0.00  0.00    +0.000 C 
ENDBRANCH   1  10
BRANCH   1  12
ATOM     12  C   UNL     1       3.407   4.851  17.443  0.00  0.00    +0.000 C 
BRANCH  12  13
ATOM     13  N   UNL     1       2.185   4.438  18.129  0.00  0.00    +0.000 N 
ATOM     14  C   UNL     1       2.311   3.747  19.284  0.00  0.00    +0.000 A 
ATOM     15  N   UNL     1       3.372   3.058  19.639  0.00  0.00    +0.000 NA
ATOM     16  C   UNL     1       3.179   2.495  20.885  0.00  0.00    +0.000 A 
ATOM     17  C   UNL     1       1.969   2.771  21.479  0.00  0.00    +0.000 A 
ATOM     18  S   UNL     1       1.025   3.742  20.432  0.00  0.00    +0.000 S 
ATOM     19  H   UNL     1       1.410   5.091  18.080  0.00  0.00    +0.000 HD
ENDBRANCH  12  13
ENDBRANCH   1  12
TORSDOF 4
ENDMDL
MODEL 6
REMARK VINA RESULT:      -6.3      3.662      6.417
REMARK  Name = 
REMARK  6 active torsions:
REMARK  status: ('A' for Active; 'I' for Inactive)
REMARK    1  A    between atoms: C_1  and  C_2
REMARK    2  A    between atoms: C_2  and  C_3
REMARK    3  A    between atoms: C_2  and  C_4
REMARK    4  A    between atoms: C_4  and  C_5
REMARK    5  A    between atoms: C_4  and  C_12
REMARK    6  A    between atoms: C_5  and  N_6
REMARK                            x       y       z     vdW  Elec       q    Type
REMARK                         _______ _______ _______ _____ _____    ______ ____
ROOT
ATOM      1  C   UNL     1       2.554   4.652  19.251  0.00  0.00    +0.000 C 
ENDROOT
BRANCH   1   2
ATOM      2  C   UNL     1       2.290   6.168  19.212  0.00  0.00    +0.000 A 
ATOM      3  C   UNL     1       2.400   6.929  18.034  0.00  0.00    +0.000 A 
ATOM      4  C   UNL     1       2.072   8.289  18.012  0.00  0.00    +0.000 A 
ATOM      5  C   UNL     1       1.643   8.920  19.173  0.00  0.00    +0.000 A 
ATOM      6 CL   UNL     1       1.224  10.587  19.140  0.00  0.00    +0.000 Cl
ATOM      7  C   UNL     1       1.541   8.200  20.357  0.00  0.00    +0.000 A 
ATOM      8  C   UNL     1       1.850   6.834  20.373  0.00  0.00    +0.000 A 
ENDBRANCH   1   2
BRANCH   1  10
ATOM      9  C   UNL     1       2.042   3.338  21.428  0.00  0.00    +0.000 C 
ATOM     10  C   UNL     1       1.491   3.870  20.101  0.00  0.00    +0.000 C 
ATOM     11  C   UNL     1       0.843   2.722  19.310  0.00  0.00    +0.000 C 
ENDBRANCH   1  10
BRANCH   1  12
ATOM     12  C   UNL     1       4.005   4.233  19.631  0.00  0.00    +0.000 C 
BRANCH  12  13
ATOM     13  N   UNL     1       4.963   5.294  19.333  0.00  0.00    +0.000 N 
ATOM     14  C   UNL     1       5.672   5.202  18.185  0.00  0.00    +0.000 A 
ATOM     15  N   UNL     1       5.897   4.089  17.525  0.00  0.00    +0.000 NA
ATOM     16  C   UNL     1       6.632   4.351  16.386  0.00  0.00    +0.000 A 
ATOM     17  C   UNL     1       6.952   5.673  16.178  0.00  0.00    +0.000 A 
ATOM     18  S   UNL     1       6.342   6.619  17.468  0.00  0.00    +0.000 S 
ATOM     19  H   UNL     1       4.688   6.228  19.615  0.00  0.00    +0.000 HD
ENDBRANCH  12  13
ENDBRANCH   1  12
TORSDOF 4
ENDMDL
MODEL 7
REMARK VINA RESULT:      -6.3      3.121      4.989
REMARK  Name = 
REMARK  6 active torsions:
REMARK  status: ('A' for Active; 'I' for Inactive)
REMARK    1  A    between atoms: C_1  and  C_2
REMARK    2  A    between atoms: C_2  and  C_3
REMARK    3  A    between atoms: C_2  and  C_4
REMARK    4  A    between atoms: C_4  and  C_5
REMARK    5  A    between atoms: C_4  and  C_12
REMARK    6  A    between atoms: C_5  and  N_6
REMARK                            x       y       z     vdW  Elec       q    Type
REMARK                         _______ _______ _______ _____ _____    ______ ____
ROOT
ATOM      1  C   UNL     1       2.792   4.896  19.811  0.00  0.00    +0.000 C 
ENDROOT
BRANCH   1   2
ATOM      2  C   UNL     1       3.591   5.019  18.501  0.00  0.00    +0.000 A 
ATOM      3  C   UNL     1       4.068   6.250  18.014  0.00  0.00    +0.000 A 
ATOM      4  C   UNL     1       4.865   6.320  16.865  0.00  0.00    +0.000 A 
ATOM      5  C   UNL     1       5.185   5.161  16.170  0.00  0.00    +0.000 A 
ATOM      6 CL   UNL     1       6.177   5.246  14.769  0.00  0.00    +0.000 Cl
ATOM      7  C   UNL     1       4.714   3.931  16.616  0.00  0.00    +0.000 A 
ATOM      8  C   UNL     1       3.935   3.861  17.777  0.00  0.00    +0.000 A 
ENDBRANCH   1   2
BRANCH   1  10
ATOM      9  C   UNL     1       0.890   3.137  19.699  0.00  0.00    +0.000 C 
ATOM     10  C   UNL     1       2.337   3.424  20.112  0.00  0.00    +0.000 C 
ATOM     11  C   UNL     1       2.542   3.041  21.586  0.00  0.00    +0.000 C 
ENDBRANCH   1  10
BRANCH   1  12
ATOM     12  C   UNL     1       1.613   5.900  19.974  0.00  0.00    +0.000 C 
BRANCH  12  13
ATOM     13  N   UNL     1       1.879   6.869  21.034  0.00  0.00    +0.000 N 
ATOM     14  C   UNL     1       1.499   8.151  20.829  0.00  0.00    +0.000 A 
ATOM     15  N   UNL     1       1.300   8.700  19.653  0.00  0.00    +0.000 NA
ATOM     16  C   UNL     1       0.898  10.012  19.800  0.00  0.00    +0.000 A 
ATOM     17  C   UNL     1       0.780  10.453  21.099  0.00  0.00    +0.000 A 
ATOM     18  S   UNL     1       1.218   9.194  22.173  0.00  0.00    +0.000 S 
ATOM     19  H   UNL     1       1.787   6.522  21.983  0.00  0.00    +0.000 HD
ENDBRANCH  12  13
ENDBRANCH   1  12
TORSDOF 4
ENDMDL
MODEL 8
REMARK VINA RESULT:      -6.3      1.337      1.773
REMARK  Name = 
REMARK  6 active torsions:
REMARK  status: ('A' for Active; 'I' for Inactive)
REMARK    1  A    between atoms: C_1  and  C_2
REMARK    2  A    between atoms: C_2  and  C_3
REMARK    3  A    between atoms: C_2  and  C_4
REMARK    4  A    between atoms: C_4  and  C_5
REMARK    5  A    between atoms: C_4  and  C_12
REMARK    6  A    between atoms: C_5  and  N_6
REMARK                            x       y       z     vdW  Elec       q    Type
REMARK                         _______ _______ _______ _____ _____    ______ ____
ROOT
ATOM      1  C   UNL     1       6.238   6.048  17.682  0.00  0.00    +0.000 C 
ENDROOT
BRANCH   1   2
ATOM      2  C   UNL     1       6.158   5.393  16.291  0.00  0.00    +0.000 A 
ATOM      3  C   UNL     1       7.299   5.003  15.567  0.00  0.00    +0.000 A 
ATOM      4  C   UNL     1       7.192   4.333  14.343  0.00  0.00    +0.000 A 
ATOM      5  C   UNL     1       5.939   4.056  13.809  0.00  0.00    +0.000 A 
ATOM      6 CL   UNL     1       5.808   3.218  12.314  0.00  0.00    +0.000 Cl
ATOM      7  C   UNL     1       4.792   4.444  14.492  0.00  0.00    +0.000 A 
ATOM      8  C   UNL     1       4.901   5.096  15.726  0.00  0.00    +0.000 A 
ENDBRANCH   1   2
BRANCH   1  10
ATOM      9  C   UNL     1       8.130   6.069  19.456  0.00  0.00    +0.000 C 
ATOM     10  C   UNL     1       7.692   6.509  18.055  0.00  0.00    +0.000 C 
ATOM     11  C   UNL     1       7.877   8.027  17.906  0.00  0.00    +0.000 C 
ENDBRANCH   1  10
BRANCH   1  12
ATOM     12  C   UNL     1       5.583   5.241  18.841  0.00  0.00    +0.000 C 
BRANCH  12  13
ATOM     13  N   UNL     1       5.291   3.867  18.439  0.00  0.00    +0.000 N 
ATOM     14  C   UNL     1       4.132   3.316  18.864  0.00  0.00    +0.000 A 
ATOM     15  N   UNL     1       3.447   3.714  19.912  0.00  0.00    +0.000 NA
ATOM     16  C   UNL     1       2.303   2.954  20.051  0.00  0.00    +0.000 A 
ATOM     17  C   UNL     1       2.116   1.984  19.092  0.00  0.00    +0.000 A 
ATOM     18  S   UNL     1       3.433   2.000  17.998  0.00  0.00    +0.000 S 
ATOM     19  H   UNL     1       5.595   3.607  17.507  0.00  0.00    +0.000 HD
ENDBRANCH  12  13
ENDBRANCH   1  12
TORSDOF 4
ENDMDL
MODEL 9
REMARK VINA RESULT:      -6.3      3.831      5.890
REMARK  Name = 
REMARK  6 active torsions:
REMARK  status: ('A' for Active; 'I' for Inactive)
REMARK    1  A    between atoms: C_1  and  C_2
REMARK    2  A    between atoms: C_2  and  C_3
REMARK    3  A    between atoms: C_2  and  C_4
REMARK    4  A    between atoms: C_4  and  C_5
REMARK    5  A    between atoms: C_4  and  C_12
REMARK    6  A    between atoms: C_5  and  N_6
REMARK                            x       y       z     vdW  Elec       q    Type
REMARK                         _______ _______ _______ _____ _____    ______ ____
ROOT
ATOM      1  C   UNL     1       6.057   5.385  17.478  0.00  0.00    +0.000 C 
ENDROOT
BRANCH   1   2
ATOM      2  C   UNL     1       4.752   4.932  18.157  0.00  0.00    +0.000 A 
ATOM      3  C   UNL     1       4.372   5.367  19.440  0.00  0.00    +0.000 A 
ATOM      4  C   UNL     1       3.139   5.006  19.996  0.00  0.00    +0.000 A 
ATOM      5  C   UNL     1       2.269   4.189  19.286  0.00  0.00    +0.000 A 
ATOM      6 CL   UNL     1       0.748   3.760  19.963  0.00  0.00    +0.000 Cl
ATOM      7  C   UNL     1       2.623   3.728  18.023  0.00  0.00    +0.000 A 
ATOM      8  C   UNL     1       3.847   4.107  17.459  0.00  0.00    +0.000 A 
ENDBRANCH   1   2
BRANCH   1  10
ATOM      9  C   UNL     1       7.519   7.522  17.628  0.00  0.00    +0.000 C 
ATOM     10  C   UNL     1       6.919   6.333  18.385  0.00  0.00    +0.000 C 
ATOM     11  C   UNL     1       8.032   5.575  19.127  0.00  0.00    +0.000 C 
ENDBRANCH   1  10
BRANCH   1  12
ATOM     12  C   UNL     1       5.900   5.962  16.040  0.00  0.00    +0.000 C 
BRANCH  12  13
ATOM     13  N   UNL     1       7.045   5.621  15.199  0.00  0.00    +0.000 N 
ATOM     14  C   UNL     1       6.823   4.849  14.111  0.00  0.00    +0.000 A 
ATOM     15  N   UNL     1       5.796   4.044  13.955  0.00  0.00    +0.000 NA
ATOM     16  C   UNL     1       5.861   3.423  12.723  0.00  0.00    +0.000 A 
ATOM     17  C   UNL     1       6.938   3.772  11.940  0.00  0.00    +0.000 A 
ATOM     18  S   UNL     1       7.922   4.890  12.784  0.00  0.00    +0.000 S 
ATOM     19  H   UNL     1       7.749   6.344  15.098  0.00  0.00    +0.000 HD
ENDBRANCH  12  13
ENDBRANCH   1  12
TORSDOF 4
ENDMDL
