MODEL 1
REMARK VINA RESULT:      -6.8      0.000      0.000
REMARK  Name = 
REMARK  6 active torsions:
REMARK  status: ('A' for Active; 'I' for Inactive)
REMARK    1  A    between atoms: C_1  and  C_2
REMARK    2  A    between atoms: C_2  and  C_3
REMARK    3  A    between atoms: C_2  and  C_4
REMARK    4  A    between atoms: C_2  and  C_5
REMARK    5  A    between atoms: C_7  and  N_8
REMARK    6  A    between atoms: N_11  and  C_12
REMARK                            x       y       z     vdW  Elec       q    Type
REMARK                         _______ _______ _______ _____ _____    ______ ____
ROOT
ATOM      1  N   UNL     1       2.490   7.700  17.664  0.00  0.00    +0.000 N 
ATOM      2  C   UNL     1       1.856   8.626  18.475  0.00  0.00    +0.000 C 
ATOM      3  O   UNL     1       1.717   8.513  19.692  0.00  0.00    +0.000 OA
ATOM      4  N   UNL     1       1.336   9.691  17.760  0.00  0.00    +0.000 N 
ATOM      5  H   UNL     1       2.718   7.966  16.719  0.00  0.00    +0.000 HD
ATOM      6  H   UNL     1       0.950   9.417  16.863  0.00  0.00    +0.000 HD
ENDROOT
BRANCH   4   7
ATOM      7  C   UNL     1       0.564  10.660  18.463  0.00  0.00    +0.000 A 
ATOM      8  C   UNL     1      -0.736  10.346  18.888  0.00  0.00    +0.000 A 
ATOM      9  C   UNL     1      -1.551  11.321  19.454  0.00  0.00    +0.000 A 
ATOM     10  C   UNL     1      -1.071  12.622  19.601  0.00  0.00    +0.000 A 
ATOM     11  C   UNL     1       0.235  12.938  19.212  0.00  0.00    +0.000 A 
ATOM     12 CL   UNL     1       0.741  14.582  19.397  0.00  0.00    +0.000 Cl
ATOM     13  C   UNL     1       1.068  11.954  18.665  0.00  0.00    +0.000 A 
ATOM     14 CL   UNL     1       2.681  12.324  18.133  0.00  0.00    +0.000 Cl
ENDBRANCH   4   7
BRANCH   1  17
ATOM     15  C   UNL     1       2.915   4.232  18.875  0.00  0.00    +0.000 A 
ATOM     16  C   UNL     1       2.192   5.307  18.391  0.00  0.00    +0.000 A 
ATOM     17  C   UNL     1       2.966   6.474  18.127  0.00  0.00    +0.000 A 
ATOM     18  C   UNL     1       4.298   6.234  18.376  0.00  0.00    +0.000 A 
ATOM     19  S   UNL     1       4.584   4.634  18.925  0.00  0.00    +0.000 S 
BRANCH  15  21
ATOM     20  C   UNL     1       2.419   2.699  20.789  0.00  0.00    +0.000 C 
ATOM     21  C   UNL     1       2.360   2.854  19.258  0.00  0.00    +0.000 C 
ATOM     22  C   UNL     1       3.220   1.734  18.623  0.00  0.00    +0.000 C 
ATOM     23  C   UNL     1       0.914   2.639  18.777  0.00  0.00    +0.000 C 
ENDBRANCH  15  21
ENDBRANCH   1  17
TORSDOF 3
ENDMDL
MODEL 2
REMARK VINA RESULT:      -6.8      1.614      2.077
REMARK  Name = 
REMARK  6 active torsions:
REMARK  status: ('A' for Active; 'I' for Inactive)
REMARK    1  A    between atoms: C_1  and  C_2
REMARK    2  A    between atoms: C_2  and  C_3
REMARK    3  A    between atoms: C_2  and  C_4
REMARK    4  A    between atoms: C_2  and  C_5
REMARK    5  A    between atoms: C_7  and  N_8
REMARK    6  A    between atoms: N_11  and  C_12
REMARK                            x       y       z     vdW  Elec       q    Type
REMARK                         _______ _______ _______ _____ _____    ______ ____
ROOT
ATOM      1  N   UNL     1       2.438   7.738  17.758  0.00  0.00    +0.000 N 
ATOM      2  C   UNL     1       1.790   8.659  18.563  0.00  0.00    +0.000 C 
ATOM      3  O   UNL     1       1.614   8.531  19.774  0.00  0.00    +0.000 OA
ATOM      4  N   UNL     1       1.301   9.738  17.848  0.00  0.00    +0.000 N 
ATOM      5  H   UNL     1       2.697   8.015  16.824  0.00  0.00    +0.000 HD
ATOM      6  H   UNL     1       0.940   9.481  16.936  0.00  0.00    +0.000 HD
ENDROOT
BRANCH   4   7
ATOM      7  C   UNL     1       0.519  10.706  18.542  0.00  0.00    +0.000 A 
ATOM      8  C   UNL     1       1.116  11.520  19.516  0.00  0.00    +0.000 A 
ATOM      9  C   UNL     1       0.342  12.374  20.297  0.00  0.00    +0.000 A 
ATOM     10  C   UNL     1      -1.038  12.420  20.108  0.00  0.00    +0.000 A 
ATOM     11  C   UNL     1      -1.640  11.637  19.117  0.00  0.00    +0.000 A 
ATOM     12 CL   UNL     1      -3.361  11.729  18.971  0.00  0.00    +0.000 Cl
ATOM     13  C   UNL     1      -0.862  10.795  18.311  0.00  0.00    +0.000 A 
ATOM     14 CL   UNL     1      -1.583   9.779  17.099  0.00  0.00    +0.000 Cl
ENDBRANCH   4   7
BRANCH   1  17
ATOM     15  C   UNL     1       2.792   4.256  18.952  0.00  0.00    +0.000 A 
ATOM     16  C   UNL     1       2.093   5.346  18.468  0.00  0.00    +0.000 A 
ATOM     17  C   UNL     1       2.889   6.501  18.218  0.00  0.00    +0.000 A 
ATOM     18  C   UNL     1       4.214   6.236  18.477  0.00  0.00    +0.000 A 
ATOM     19  S   UNL     1       4.467   4.628  19.019  0.00  0.00    +0.000 S 
BRANCH  15  21
ATOM     20  C   UNL     1       3.100   1.783  18.718  0.00  0.00    +0.000 C 
ATOM     21  C   UNL     1       2.209   2.886  19.321  0.00  0.00    +0.000 C 
ATOM     22  C   UNL     1       0.785   2.733  18.734  0.00  0.00    +0.000 C 
ATOM     23  C   UNL     1       2.095   2.677  20.841  0.00  0.00    +0.000 C 
ENDBRANCH  15  21
ENDBRANCH   1  17
TORSDOF 3
ENDMDL
MODEL 3
REMARK VINA RESULT:      -6.8      6.538      9.747
REMARK  Name = 
REMARK  6 active torsions:
REMARK  status: ('A' for Active; 'I' for Inactive)
REMARK    1  A    between atoms: C_1  and  C_2
REMARK    2  A    between atoms: C_2  and  C_3
REMARK    3  A    between atoms: C_2  and  C_4
REMARK    4  A    between atoms: C_2  and  C_5
REMARK    5  A    between atoms: C_7  and  N_8
REMARK    6  A    between atoms: N_11  and  C_12
REMARK                            x       y       z     vdW  Elec       q    Type
REMARK                         _______ _______ _______ _____ _____    ______ ____
ROOT
ATOM      1  N   UNL     1       8.560   8.052  18.820  0.00  0.00    +0.000 N 
ATOM      2  C   UNL     1       7.802   7.336  17.908  0.00  0.00    +0.000 C 
ATOM      3  O   UNL     1       7.315   7.804  16.880  0.00  0.00    +0.000 OA
ATOM      4  N   UNL     1       7.600   6.024  18.300  0.00  0.00    +0.000 N 
ATOM      5  H   UNL     1       9.069   7.544  19.526  0.00  0.00    +0.000 HD
ATOM      6  H   UNL     1       7.463   5.925  19.300  0.00  0.00    +0.000 HD
ENDROOT
BRANCH   4   7
ATOM      7  C   UNL     1       6.746   5.209  17.503  0.00  0.00    +0.000 A 
ATOM      8  C   UNL     1       7.199   4.719  16.268  0.00  0.00    +0.000 A 
ATOM      9  C   UNL     1       6.336   4.036  15.417  0.00  0.00    +0.000 A 
ATOM     10  C   UNL     1       5.009   3.837  15.795  0.00  0.00    +0.000 A 
ATOM     11  C   UNL     1       4.555   4.292  17.038  0.00  0.00    +0.000 A 
ATOM     12 CL   UNL     1       2.886   4.034  17.415  0.00  0.00    +0.000 Cl
ATOM     13  C   UNL     1       5.427   4.957  17.909  0.00  0.00    +0.000 A 
ATOM     14 CL   UNL     1       4.884   5.572  19.442  0.00  0.00    +0.000 Cl
ENDBRANCH   4   7
BRANCH   1  17
ATOM     15  C   UNL     1       9.617  11.567  19.275  0.00  0.00    +0.000 A 
ATOM     16  C   UNL     1       9.602  10.217  19.576  0.00  0.00    +0.000 A 
ATOM     17  C   UNL     1       8.778   9.426  18.723  0.00  0.00    +0.000 A 
ATOM     18  C   UNL     1       8.215  10.206  17.740  0.00  0.00    +0.000 A 
ATOM     19  S   UNL     1       8.674  11.854  17.869  0.00  0.00    +0.000 S 
BRANCH  15  21
ATOM     20  C   UNL     1      10.256  13.986  19.243  0.00  0.00    +0.000 C 
ATOM     21  C   UNL     1      10.395  12.661  20.016  0.00  0.00    +0.000 C 
ATOM     22  C   UNL     1      11.898  12.296  20.087  0.00  0.00    +0.000 C 
ATOM     23  C   UNL     1       9.912  12.860  21.464  0.00  0.00    +0.000 C 
ENDBRANCH  15  21
ENDBRANCH   1  17
TORSDOF 3
ENDMDL
MODEL 4
REMARK VINA RESULT:      -6.8      2.476      2.816
REMARK  Name = 
REMARK  6 active torsions:
REMARK  status: ('A' for Active; 'I' for Inactive)
REMARK    1  A    between atoms: C_1  and  C_2
REMARK    2  A    between atoms: C_2  and  C_3
REMARK    3  A    between atoms: C_2  and  C_4
REMARK    4  A    between atoms: C_2  and  C_5
REMARK    5  A    between atoms: C_7  and  N_8
REMARK    6  A    between atoms: N_11  and  C_12
REMARK                            x       y       z     vdW  Elec       q    Type
REMARK                         _______ _______ _______ _____ _____    ______ ____
ROOT
ATOM      1  N   UNL     1       2.048   7.880  21.051  0.00  0.00    +0.000 N 
ATOM      2  C   UNL     1       0.908   8.651  21.207  0.00  0.00    +0.000 C 
ATOM      3  O   UNL     1      -0.188   8.390  20.714  0.00  0.00    +0.000 OA
ATOM      4  N   UNL     1       1.140   9.797  21.946  0.00  0.00    +0.000 N 
ATOM      5  H   UNL     1       2.841   8.071  21.641  0.00  0.00    +0.000 HD
ATOM      6  H   UNL     1       2.044  10.216  21.758  0.00  0.00    +0.000 HD
ENDROOT
BRANCH   4   7
ATOM      7  C   UNL     1       0.074  10.732  22.089  0.00  0.00    +0.000 A 
ATOM      8  C   UNL     1      -0.864  10.571  23.120  0.00  0.00    +0.000 A 
ATOM      9  C   UNL     1      -1.985  11.393  23.193  0.00  0.00    +0.000 A 
ATOM     10  C   UNL     1      -2.175  12.386  22.233  0.00  0.00    +0.000 A 
ATOM     11  C   UNL     1      -1.229  12.578  21.220  0.00  0.00    +0.000 A 
ATOM     12 CL   UNL     1      -1.558  13.809  20.050  0.00  0.00    +0.000 Cl
ATOM     13  C   UNL     1      -0.086  11.769  21.158  0.00  0.00    +0.000 A 
ATOM     14 CL   UNL     1       1.087  11.953  19.889  0.00  0.00    +0.000 Cl
ENDBRANCH   4   7
BRANCH   1  17
ATOM     15  C   UNL     1       2.013   4.477  19.602  0.00  0.00    +0.000 A 
ATOM     16  C   UNL     1       1.855   5.406  20.614  0.00  0.00    +0.000 A 
ATOM     17  C   UNL     1       2.105   6.755  20.228  0.00  0.00    +0.000 A 
ATOM     18  C   UNL     1       2.405   6.824  18.887  0.00  0.00    +0.000 A 
ATOM     19  S   UNL     1       2.391   5.283  18.133  0.00  0.00    +0.000 S 
BRANCH  15  21
ATOM     20  C   UNL     1       0.629   2.535  18.844  0.00  0.00    +0.000 C 
ATOM     21  C   UNL     1       1.826   2.959  19.717  0.00  0.00    +0.000 C 
ATOM     22  C   UNL     1       1.521   2.566  21.183  0.00  0.00    +0.000 C 
ATOM     23  C   UNL     1       3.076   2.170  19.289  0.00  0.00    +0.000 C 
ENDBRANCH  15  21
ENDBRANCH   1  17
TORSDOF 3
ENDMDL
MODEL 5
REMARK VINA RESULT:      -6.7      4.051      8.123
REMARK  Name = 
REMARK  6 active torsions:
REMARK  status: ('A' for Active; 'I' for Inactive)
REMARK    1  A    between atoms: C_1  and  C_2
REMARK    2  A    between atoms: C_2  and  C_3
REMARK    3  A    between atoms: C_2  and  C_4
REMARK    4  A    between atoms: C_2  and  C_5
REMARK    5  A    between atoms: C_7  and  N_8
REMARK    6  A    between atoms: N_11  and  C_12
REMARK                            x       y       z     vdW  Elec       q    Type
REMARK                         _______ _______ _______ _____ _____    ______ ____
ROOT
ATOM      1  N   UNL     1       1.284   8.082  21.211  0.00  0.00    +0.000 N 
ATOM      2  C   UNL     1       2.038   7.371  20.293  0.00  0.00    +0.000 C 
ATOM      3  O   UNL     1       2.340   7.774  19.170  0.00  0.00    +0.000 OA
ATOM      4  N   UNL     1       2.386   6.113  20.753  0.00  0.00    +0.000 N 
ATOM      5  H   UNL     1       1.250   7.753  22.162  0.00  0.00    +0.000 HD
ATOM      6  H   UNL     1       1.652   5.671  21.295  0.00  0.00    +0.000 HD
ENDROOT
BRANCH   4   7
ATOM      7  C   UNL     1       3.072   5.238  19.863  0.00  0.00    +0.000 A 
ATOM      8  C   UNL     1       4.366   5.558  19.424  0.00  0.00    +0.000 A 
ATOM      9  C   UNL     1       4.996   4.786  18.452  0.00  0.00    +0.000 A 
ATOM     10  C   UNL     1       4.335   3.686  17.910  0.00  0.00    +0.000 A 
ATOM     11  C   UNL     1       3.058   3.337  18.363  0.00  0.00    +0.000 A 
ATOM     12 CL   UNL     1       2.295   1.977  17.614  0.00  0.00    +0.000 Cl
ATOM     13  C   UNL     1       2.430   4.096  19.360  0.00  0.00    +0.000 A 
ATOM     14 CL   UNL     1       0.828   3.715  19.915  0.00  0.00    +0.000 Cl
ENDBRANCH   4   7
BRANCH   1  17
ATOM     15  C   UNL     1      -0.588  10.925  19.764  0.00  0.00    +0.000 A 
ATOM     16  C   UNL     1      -0.163   9.611  19.826  0.00  0.00    +0.000 A 
ATOM     17  C   UNL     1       0.692   9.313  20.927  0.00  0.00    +0.000 A 
ATOM     18  C   UNL     1       0.858  10.424  21.721  0.00  0.00    +0.000 A 
ATOM     19  S   UNL     1       0.002  11.787  21.127  0.00  0.00    +0.000 S 
BRANCH  15  21
ATOM     20  C   UNL     1      -0.810  12.787  18.107  0.00  0.00    +0.000 C 
ATOM     21  C   UNL     1      -1.499  11.542  18.696  0.00  0.00    +0.000 C 
ATOM     22  C   UNL     1      -2.842  11.984  19.327  0.00  0.00    +0.000 C 
ATOM     23  C   UNL     1      -1.838  10.560  17.561  0.00  0.00    +0.000 C 
ENDBRANCH  15  21
ENDBRANCH   1  17
TORSDOF 3
ENDMDL
MODEL 6
REMARK VINA RESULT:      -6.7      2.517      2.812
REMARK  Name = 
REMARK  6 active torsions:
REMARK  status: ('A' for Active; 'I' for Inactive)
REMARK    1  A    between atoms: C_1  and  C_2
REMARK    2  A    between atoms: C_2  and  C_3
REMARK    3  A    between atoms: C_2  and  C_4
REMARK    4  A    between atoms: C_2  and  C_5
REMARK    5  A    between atoms: C_7  and  N_8
REMARK    6  A    between atoms: N_11  and  C_12
REMARK                            x       y       z     vdW  Elec       q    Type
REMARK                         _______ _______ _______ _____ _____    ______ ____
ROOT
ATOM      1  N   UNL     1       1.880   7.989  21.324  0.00  0.00    +0.000 N 
ATOM      2  C   UNL     1       0.779   8.828  21.331  0.00  0.00    +0.000 C 
ATOM      3  O   UNL     1      -0.230   8.668  20.646  0.00  0.00    +0.000 OA
ATOM      4  N   UNL     1       0.948   9.919  22.166  0.00  0.00    +0.000 N 
ATOM      5  H   UNL     1       2.571   8.096  22.049  0.00  0.00    +0.000 HD
ATOM      6  H   UNL     1       1.895  10.283  22.157  0.00  0.00    +0.000 HD
ENDROOT
BRANCH   4   7
ATOM      7  C   UNL     1      -0.068  10.917  22.183  0.00  0.00    +0.000 A 
ATOM      8  C   UNL     1      -1.131  10.818  23.093  0.00  0.00    +0.000 A 
ATOM      9  C   UNL     1      -2.200  11.707  23.034  0.00  0.00    +0.000 A 
ATOM     10  C   UNL     1      -2.214  12.705  22.061  0.00  0.00    +0.000 A 
ATOM     11  C   UNL     1      -1.144  12.834  21.169  0.00  0.00    +0.000 A 
ATOM     12 CL   UNL     1      -1.256  14.077  19.972  0.00  0.00    +0.000 Cl
ATOM     13  C   UNL     1      -0.053  11.958  21.242  0.00  0.00    +0.000 A 
ATOM     14 CL   UNL     1       1.273  12.065  20.123  0.00  0.00    +0.000 Cl
ENDBRANCH   4   7
BRANCH   1  17
ATOM     15  C   UNL     1       2.000   4.656  19.725  0.00  0.00    +0.000 A 
ATOM     16  C   UNL     1       1.761   5.536  20.765  0.00  0.00    +0.000 A 
ATOM     17  C   UNL     1       2.011   6.905  20.457  0.00  0.00    +0.000 A 
ATOM     18  C   UNL     1       2.395   7.039  19.142  0.00  0.00    +0.000 A 
ATOM     19  S   UNL     1       2.457   5.534  18.321  0.00  0.00    +0.000 S 
BRANCH  15  21
ATOM     20  C   UNL     1       3.155   2.474  19.320  0.00  0.00    +0.000 C 
ATOM     21  C   UNL     1       1.833   3.132  19.759  0.00  0.00    +0.000 C 
ATOM     22  C   UNL     1       0.722   2.692  18.775  0.00  0.00    +0.000 C 
ATOM     23  C   UNL     1       1.437   2.607  21.150  0.00  0.00    +0.000 C 
ENDBRANCH  15  21
ENDBRANCH   1  17
TORSDOF 3
ENDMDL
MODEL 7
REMARK VINA RESULT:      -6.6      0.594      1.172
REMARK  Name = 
REMARK  6 active torsions:
REMARK  status: ('A' for Active; 'I' for Inactive)
REMARK    1  A    between atoms: C_1  and  C_2
REMARK    2  A    between atoms: C_2  and  C_3
REMARK    3  A    between atoms: C_2  and  C_4
REMARK    4  A    between atoms: C_2  and  C_5
REMARK    5  A    between atoms: C_7  and  N_8
REMARK    6  A    between atoms: N_11  and  C_12
REMARK                            x       y       z     vdW  Elec       q    Type
REMARK                         _______ _______ _______ _____ _____    ______ ____
ROOT
ATOM      1  N   UNL     1       2.365   8.007  17.678  0.00  0.00    +0.000 N 
ATOM      2  C   UNL     1       1.688   8.910  18.481  0.00  0.00    +0.000 C 
ATOM      3  O   UNL     1       1.524   8.786  19.693  0.00  0.00    +0.000 OA
ATOM      4  N   UNL     1       1.157   9.966  17.761  0.00  0.00    +0.000 N 
ATOM      5  H   UNL     1       2.608   8.285  16.741  0.00  0.00    +0.000 HD
ATOM      6  H   UNL     1       0.799   9.688  16.853  0.00  0.00    +0.000 HD
ENDROOT
BRANCH   4   7
ATOM      7  C   UNL     1       0.344  10.910  18.451  0.00  0.00    +0.000 A 
ATOM      8  C   UNL     1      -0.995  10.603  18.739  0.00  0.00    +0.000 A 
ATOM      9  C   UNL     1      -1.839  11.562  19.291  0.00  0.00    +0.000 A 
ATOM     10  C   UNL     1      -1.349  12.839  19.559  0.00  0.00    +0.000 A 
ATOM     11  C   UNL     1      -0.007  13.146  19.308  0.00  0.00    +0.000 A 
ATOM     12 CL   UNL     1       0.511  14.764  19.638  0.00  0.00    +0.000 Cl
ATOM     13  C   UNL     1       0.853  12.176  18.776  0.00  0.00    +0.000 A 
ATOM     14 CL   UNL     1       2.513  12.538  18.413  0.00  0.00    +0.000 Cl
ENDBRANCH   4   7
BRANCH   1  17
ATOM     15  C   UNL     1       2.848   4.612  19.064  0.00  0.00    +0.000 A 
ATOM     16  C   UNL     1       2.098   5.691  18.633  0.00  0.00    +0.000 A 
ATOM     17  C   UNL     1       2.862   6.791  18.145  0.00  0.00    +0.000 A 
ATOM     18  C   UNL     1       4.205   6.492  18.172  0.00  0.00    +0.000 A 
ATOM     19  S   UNL     1       4.515   4.920  18.787  0.00  0.00    +0.000 S 
BRANCH  15  21
ATOM     20  C   UNL     1       1.682   2.468  18.513  0.00  0.00    +0.000 C 
ATOM     21  C   UNL     1       2.311   3.299  19.647  0.00  0.00    +0.000 C 
ATOM     22  C   UNL     1       1.215   3.589  20.701  0.00  0.00    +0.000 C 
ATOM     23  C   UNL     1       3.400   2.467  20.347  0.00  0.00    +0.000 C 
ENDBRANCH  15  21
ENDBRANCH   1  17
TORSDOF 3
ENDMDL
MODEL 8
REMARK VINA RESULT:      -6.5      3.863      7.940
REMARK  Name = 
REMARK  6 active torsions:
REMARK  status: ('A' for Active; 'I' for Inactive)
REMARK    1  A    between atoms: C_1  and  C_2
REMARK    2  A    between atoms: C_2  and  C_3
REMARK    3  A    between atoms: C_2  and  C_4
REMARK    4  A    between atoms: C_2  and  C_5
REMARK    5  A    between atoms: C_7  and  N_8
REMARK    6  A    between atoms: N_11  and  C_12
REMARK                            x       y       z     vdW  Elec       q    Type
REMARK                         _______ _______ _______ _____ _____    ______ ____
ROOT
ATOM      1  N   UNL     1       1.470   8.901  19.730  0.00  0.00    +0.000 N 
ATOM      2  C   UNL     1       2.050   7.981  18.874  0.00  0.00    +0.000 C 
ATOM      3  O   UNL     1       1.910   7.974  17.652  0.00  0.00    +0.000 OA
ATOM      4  N   UNL     1       2.780   7.016  19.546  0.00  0.00    +0.000 N 
ATOM      5  H   UNL     1       1.792   8.939  20.684  0.00  0.00    +0.000 HD
ATOM      6  H   UNL     1       2.352   6.733  20.422  0.00  0.00    +0.000 HD
ENDROOT
BRANCH   4   7
ATOM      7  C   UNL     1       3.339   5.947  18.790  0.00  0.00    +0.000 A 
ATOM      8  C   UNL     1       4.460   6.176  17.977  0.00  0.00    +0.000 A 
ATOM      9  C   UNL     1       4.936   5.180  17.130  0.00  0.00    +0.000 A 
ATOM     10  C   UNL     1       4.293   3.944  17.088  0.00  0.00    +0.000 A 
ATOM     11  C   UNL     1       3.196   3.693  17.918  0.00  0.00    +0.000 A 
ATOM     12 CL   UNL     1       2.435   2.145  17.781  0.00  0.00    +0.000 Cl
ATOM     13  C   UNL     1       2.728   4.684  18.792  0.00  0.00    +0.000 A 
ATOM     14 CL   UNL     1       1.341   4.418  19.805  0.00  0.00    +0.000 Cl
ENDBRANCH   4   7
BRANCH   1  17
ATOM     15  C   UNL     1      -1.382  10.817  18.363  0.00  0.00    +0.000 A 
ATOM     16  C   UNL     1      -0.708   9.664  18.720  0.00  0.00    +0.000 A 
ATOM     17  C   UNL     1       0.573   9.881  19.307  0.00  0.00    +0.000 A 
ATOM     18  C   UNL     1       0.822  11.229  19.431  0.00  0.00    +0.000 A 
ATOM     19  S   UNL     1      -0.467  12.191  18.835  0.00  0.00    +0.000 S 
BRANCH  15  21
ATOM     20  C   UNL     1      -3.653  11.855  18.524  0.00  0.00    +0.000 C 
ATOM     21  C   UNL     1      -2.765  10.901  17.704  0.00  0.00    +0.000 C 
ATOM     22  C   UNL     1      -3.437   9.506  17.689  0.00  0.00    +0.000 C 
ATOM     23  C   UNL     1      -2.703  11.387  16.245  0.00  0.00    +0.000 C 
ENDBRANCH  15  21
ENDBRANCH   1  17
TORSDOF 3
ENDMDL
MODEL 9
REMARK VINA RESULT:      -6.5      3.882      8.003
REMARK  Name = 
REMARK  6 active torsions:
REMARK  status: ('A' for Active; 'I' for Inactive)
REMARK    1  A    between atoms: C_1  and  C_2
REMARK    2  A    between atoms: C_2  and  C_3
REMARK    3  A    between atoms: C_2  and  C_4
REMARK    4  A    between atoms: C_2  and  C_5
REMARK    5  A    between atoms: C_7  and  N_8
REMARK    6  A    between atoms: N_11  and  C_12
REMARK                            x       y       z     vdW  Elec       q    Type
REMARK                         _______ _______ _______ _____ _____    ______ ____
ROOT
ATOM      1  N   UNL     1       1.442   8.782  19.970  0.00  0.00    +0.000 N 
ATOM      2  C   UNL     1       2.043   7.816  19.180  0.00  0.00    +0.000 C 
ATOM      3  O   UNL     1       1.984   7.777  17.953  0.00  0.00    +0.000 OA
ATOM      4  N   UNL     1       2.690   6.847  19.927  0.00  0.00    +0.000 N 
ATOM      5  H   UNL     1       1.702   8.838  20.942  0.00  0.00    +0.000 HD
ATOM      6  H   UNL     1       2.195   6.606  20.780  0.00  0.00    +0.000 HD
ENDROOT
BRANCH   4   7
ATOM      7  C   UNL     1       3.258   5.736  19.240  0.00  0.00    +0.000 A 
ATOM      8  C   UNL     1       4.447   5.897  18.513  0.00  0.00    +0.000 A 
ATOM      9  C   UNL     1       4.942   4.861  17.727  0.00  0.00    +0.000 A 
ATOM     10  C   UNL     1       4.250   3.652  17.663  0.00  0.00    +0.000 A 
ATOM     11  C   UNL     1       3.082   3.469  18.410  0.00  0.00    +0.000 A 
ATOM     12 CL   UNL     1       2.267   1.952  18.247  0.00  0.00    +0.000 Cl
ATOM     13  C   UNL     1       2.593   4.501  19.222  0.00  0.00    +0.000 A 
ATOM     14 CL   UNL     1       1.122   4.320  20.130  0.00  0.00    +0.000 Cl
ENDBRANCH   4   7
BRANCH   1  17
ATOM     15  C   UNL     1      -1.289  10.762  18.455  0.00  0.00    +0.000 A 
ATOM     16  C   UNL     1      -0.696   9.603  18.920  0.00  0.00    +0.000 A 
ATOM     17  C   UNL     1       0.611   9.780  19.461  0.00  0.00    +0.000 A 
ATOM     18  C   UNL     1       0.965  11.109  19.437  0.00  0.00    +0.000 A 
ATOM     19  S   UNL     1      -0.261  12.102  18.764  0.00  0.00    +0.000 S 
BRANCH  15  21
ATOM     20  C   UNL     1      -2.520  11.416  16.377  0.00  0.00    +0.000 C 
ATOM     21  C   UNL     1      -2.677  10.885  17.814  0.00  0.00    +0.000 C 
ATOM     22  C   UNL     1      -3.549  11.887  18.609  0.00  0.00    +0.000 C 
ATOM     23  C   UNL     1      -3.441   9.549  17.784  0.00  0.00    +0.000 C 
ENDBRANCH  15  21
ENDBRANCH   1  17
TORSDOF 3
ENDMDL
