MODEL 1
REMARK VINA RESULT:      -9.1      0.000      0.000
REMARK  Name = 
REMARK  5 active torsions:
REMARK  status: ('A' for Active; 'I' for Inactive)
REMARK    1  A    between atoms: C_1  and  C_2
REMARK    2  A    between atoms: C_3  and  C_4
REMARK    3  A    between atoms: N_6  and  C_7
REMARK    4  A    between atoms: C_11  and  C_12
REMARK    5  A    between atoms: C_20  and  C_21
REMARK                            x       y       z     vdW  Elec       q    Type
REMARK                         _______ _______ _______ _____ _____    ______ ____
ROOT
ATOM      1  C   UNL     1       4.473   7.145  17.506  0.00  0.00    +0.000 C 
ATOM      2  C   UNL     1       3.631   6.002  18.026  0.00  0.00    +0.000 A 
ATOM      3  C   UNL     1       3.885   4.671  17.585  0.00  0.00    +0.000 A 
ATOM      4  C   UNL     1       3.032   3.622  17.965  0.00  0.00    +0.000 A 
ATOM      5  C   UNL     1       1.954   3.846  18.803  0.00  0.00    +0.000 A 
ATOM      6  C   UNL     1       1.729   5.129  19.282  0.00  0.00    +0.000 A 
ATOM      7  C   UNL     1       2.527   6.240  18.912  0.00  0.00    +0.000 A 
ENDROOT
BRANCH   7   8
ATOM      8  C   UNL     1       2.072   7.592  19.360  0.00  0.00    +0.000 A 
ATOM      9  C   UNL     1       1.810   8.660  18.495  0.00  0.00    +0.000 A 
ATOM     10  C   UNL     1       1.109   9.800  18.932  0.00  0.00    +0.000 A 
ATOM     11  C   UNL     1       0.715   9.949  20.261  0.00  0.00    +0.000 A 
ATOM     12  N   UNL     1      -0.129  10.914  20.635  0.00  0.00    +0.000 NA
ATOM     13  C   UNL     1      -0.441  10.979  21.935  0.00  0.00    +0.000 A 
ATOM     14  N   UNL     1      -1.621  11.610  22.293  0.00  0.00    +0.000 N 
ATOM     15  N   UNL     1       0.121  10.258  22.904  0.00  0.00    +0.000 NA
ATOM     16  C   UNL     1       0.935   9.275  22.494  0.00  0.00    +0.000 A 
ATOM     17  C   UNL     1       1.195   9.012  21.163  0.00  0.00    +0.000 A 
ATOM     18  C   UNL     1       1.825   7.835  20.724  0.00  0.00    +0.000 A 
ATOM     19  H   UNL     1      -2.320  11.274  21.640  0.00  0.00    +0.000 HD
ATOM     20  H   UNL     1      -1.805  11.316  23.246  0.00  0.00    +0.000 HD
ENDBRANCH   7   8
BRANCH   3  21
ATOM     21  C   UNL     1       4.950   4.257  16.627  0.00  0.00    +0.000 C 
ATOM     22  O   UNL     1       5.941   3.698  17.096  0.00  0.00    +0.000 OA
ATOM     23  N   UNL     1       4.780   4.617  15.297  0.00  0.00    +0.000 N 
ATOM     24  H   UNL     1       3.959   5.161  15.068  0.00  0.00    +0.000 HD
BRANCH  23  25
ATOM     25  C   UNL     1       5.706   4.398  14.244  0.00  0.00    +0.000 A 
ATOM     26  C   UNL     1       6.826   5.200  14.010  0.00  0.00    +0.000 A 
ATOM     27  C   UNL     1       7.654   4.974  12.906  0.00  0.00    +0.000 A 
ATOM     28  C   UNL     1       7.375   3.936  12.020  0.00  0.00    +0.000 A 
ATOM     29  C   UNL     1       6.274   3.103  12.245  0.00  0.00    +0.000 A 
ATOM     30  C   UNL     1       5.457   3.332  13.372  0.00  0.00    +0.000 A 
BRANCH  29  31
ATOM     31  C   UNL     1       5.942   1.984  11.294  0.00  0.00    +0.000 C 
ATOM     32  F   UNL     1       4.770   2.164  10.619  0.00  0.00    +0.000 F 
ATOM     33  F   UNL     1       6.898   1.807  10.342  0.00  0.00    +0.000 F 
ATOM     34  F   UNL     1       5.824   0.784  11.929  0.00  0.00    +0.000 F 
ENDBRANCH  29  31
ENDBRANCH  23  25
ENDBRANCH   3  21
TORSDOF 4
ENDMDL
MODEL 2
REMARK VINA RESULT:      -9.1      6.363     10.418
REMARK  Name = 
REMARK  5 active torsions:
REMARK  status: ('A' for Active; 'I' for Inactive)
REMARK    1  A    between atoms: C_1  and  C_2
REMARK    2  A    between atoms: C_3  and  C_4
REMARK    3  A    between atoms: N_6  and  C_7
REMARK    4  A    between atoms: C_11  and  C_12
REMARK    5  A    between atoms: C_20  and  C_21
REMARK                            x       y       z     vdW  Elec       q    Type
REMARK                         _______ _______ _______ _____ _____    ______ ____
ROOT
ATOM      1  C   UNL     1       1.328   9.487  18.078  0.00  0.00    +0.000 C 
ATOM      2  C   UNL     1       1.025   9.468  19.559  0.00  0.00    +0.000 A 
ATOM      3  C   UNL     1       0.522  10.637  20.199  0.00  0.00    +0.000 A 
ATOM      4  C   UNL     1       0.355  10.667  21.593  0.00  0.00    +0.000 A 
ATOM      5  C   UNL     1       0.636   9.559  22.370  0.00  0.00    +0.000 A 
ATOM      6  C   UNL     1       1.075   8.396  21.751  0.00  0.00    +0.000 A 
ATOM      7  C   UNL     1       1.300   8.306  20.355  0.00  0.00    +0.000 A 
ENDROOT
BRANCH   7   8
ATOM      8  C   UNL     1       1.938   7.054  19.842  0.00  0.00    +0.000 A 
ATOM      9  C   UNL     1       2.865   7.017  18.795  0.00  0.00    +0.000 A 
ATOM     10  C   UNL     1       3.648   5.873  18.551  0.00  0.00    +0.000 A 
ATOM     11  C   UNL     1       3.479   4.704  19.291  0.00  0.00    +0.000 A 
ATOM     12  N   UNL     1       4.353   3.697  19.215  0.00  0.00    +0.000 NA
ATOM     13  C   UNL     1       4.100   2.613  19.958  0.00  0.00    +0.000 A 
ATOM     14  N   UNL     1       5.159   1.780  20.282  0.00  0.00    +0.000 N 
ATOM     15  N   UNL     1       2.987   2.395  20.656  0.00  0.00    +0.000 NA
ATOM     16  C   UNL     1       2.147   3.436  20.744  0.00  0.00    +0.000 A 
ATOM     17  C   UNL     1       2.394   4.661  20.152  0.00  0.00    +0.000 A 
ATOM     18  C   UNL     1       1.660   5.820  20.456  0.00  0.00    +0.000 A 
ATOM     19  H   UNL     1       5.916   2.396  20.559  0.00  0.00    +0.000 HD
ATOM     20  H   UNL     1       4.825   1.205  21.048  0.00  0.00    +0.000 HD
ENDBRANCH   7   8
BRANCH   3  21
ATOM     21  C   UNL     1       0.235  11.941  19.535  0.00  0.00    +0.000 C 
ATOM     22  O   UNL     1      -0.479  11.917  18.534  0.00  0.00    +0.000 OA
ATOM     23  N   UNL     1       0.873  13.065  20.046  0.00  0.00    +0.000 N 
ATOM     24  H   UNL     1       1.512  12.922  20.817  0.00  0.00    +0.000 HD
BRANCH  23  25
ATOM     25  C   UNL     1       0.807  14.380  19.516  0.00  0.00    +0.000 A 
ATOM     26  C   UNL     1      -0.317  15.205  19.613  0.00  0.00    +0.000 A 
ATOM     27  C   UNL     1      -0.342  16.461  18.999  0.00  0.00    +0.000 A 
ATOM     28  C   UNL     1       0.761  16.913  18.281  0.00  0.00    +0.000 A 
ATOM     29  C   UNL     1       1.908  16.117  18.188  0.00  0.00    +0.000 A 
ATOM     30  C   UNL     1       1.926  14.859  18.827  0.00  0.00    +0.000 A 
BRANCH  29  31
ATOM     31  C   UNL     1       3.109  16.577  17.404  0.00  0.00    +0.000 C 
ATOM     32  F   UNL     1       3.736  15.576  16.719  0.00  0.00    +0.000 F 
ATOM     33  F   UNL     1       2.797  17.524  16.479  0.00  0.00    +0.000 F 
ATOM     34  F   UNL     1       4.063  17.135  18.201  0.00  0.00    +0.000 F 
ENDBRANCH  29  31
ENDBRANCH  23  25
ENDBRANCH   3  21
TORSDOF 4
ENDMDL
MODEL 3
REMARK VINA RESULT:      -9.0      6.117     10.349
REMARK  Name = 
REMARK  5 active torsions:
REMARK  status: ('A' for Active; 'I' for Inactive)
REMARK    1  A    between atoms: C_1  and  C_2
REMARK    2  A    between atoms: C_3  and  C_4
REMARK    3  A    between atoms: N_6  and  C_7
REMARK    4  A    between atoms: C_11  and  C_12
REMARK    5  A    between atoms: C_20  and  C_21
REMARK                            x       y       z     vdW  Elec       q    Type
REMARK                         _______ _______ _______ _____ _____    ______ ____
ROOT
ATOM      1  C   UNL     1       1.886   9.354  17.714  0.00  0.00    +0.000 C 
ATOM      2  C   UNL     1       1.453   9.117  19.143  0.00  0.00    +0.000 A 
ATOM      3  C   UNL     1       0.816  10.158  19.877  0.00  0.00    +0.000 A 
ATOM      4  C   UNL     1       0.523   9.989  21.240  0.00  0.00    +0.000 A 
ATOM      5  C   UNL     1       0.807   8.802  21.890  0.00  0.00    +0.000 A 
ATOM      6  C   UNL     1       1.378   7.761  21.171  0.00  0.00    +0.000 A 
ATOM      7  C   UNL     1       1.733   7.874  19.804  0.00  0.00    +0.000 A 
ENDROOT
BRANCH   7   8
ATOM      8  C   UNL     1       2.497   6.741  19.196  0.00  0.00    +0.000 A 
ATOM      9  C   UNL     1       3.892   6.634  19.215  0.00  0.00    +0.000 A 
ATOM     10  C   UNL     1       4.537   5.424  18.900  0.00  0.00    +0.000 A 
ATOM     11  C   UNL     1       3.821   4.303  18.482  0.00  0.00    +0.000 A 
ATOM     12  N   UNL     1       4.396   3.101  18.391  0.00  0.00    +0.000 NA
ATOM     13  C   UNL     1       3.627   2.089  17.974  0.00  0.00    +0.000 A 
ATOM     14  N   UNL     1       4.007   0.798  18.306  0.00  0.00    +0.000 N 
ATOM     15  N   UNL     1       2.383   2.201  17.510  0.00  0.00    +0.000 NA
ATOM     16  C   UNL     1       1.822   3.410  17.649  0.00  0.00    +0.000 A 
ATOM     17  C   UNL     1       2.472   4.485  18.223  0.00  0.00    +0.000 A 
ATOM     18  C   UNL     1       1.809   5.664  18.608  0.00  0.00    +0.000 A 
ATOM     19  H   UNL     1       4.276   0.836  19.283  0.00  0.00    +0.000 HD
ATOM     20  H   UNL     1       3.184   0.227  18.150  0.00  0.00    +0.000 HD
ENDBRANCH   7   8
BRANCH   3  21
ATOM     21  C   UNL     1       0.503  11.523  19.364  0.00  0.00    +0.000 C 
ATOM     22  O   UNL     1      -0.305  11.604  18.440  0.00  0.00    +0.000 OA
ATOM     23  N   UNL     1       1.217  12.583  19.909  0.00  0.00    +0.000 N 
ATOM     24  H   UNL     1       1.922  12.358  20.597  0.00  0.00    +0.000 HD
BRANCH  23  25
ATOM     25  C   UNL     1       1.136  13.942  19.507  0.00  0.00    +0.000 A 
ATOM     26  C   UNL     1       0.024  14.758  19.735  0.00  0.00    +0.000 A 
ATOM     27  C   UNL     1      -0.020  16.066  19.243  0.00  0.00    +0.000 A 
ATOM     28  C   UNL     1       1.052  16.580  18.518  0.00  0.00    +0.000 A 
ATOM     29  C   UNL     1       2.187  15.792  18.297  0.00  0.00    +0.000 A 
ATOM     30  C   UNL     1       2.225  14.480  18.813  0.00  0.00    +0.000 A 
BRANCH  29  31
ATOM     31  C   UNL     1       3.353  16.319  17.502  0.00  0.00    +0.000 C 
ATOM     32  F   UNL     1       4.208  17.096  18.229  0.00  0.00    +0.000 F 
ATOM     33  F   UNL     1       4.113  15.325  16.969  0.00  0.00    +0.000 F 
ATOM     34  F   UNL     1       2.956  17.089  16.450  0.00  0.00    +0.000 F 
ENDBRANCH  29  31
ENDBRANCH  23  25
ENDBRANCH   3  21
TORSDOF 4
ENDMDL
MODEL 4
REMARK VINA RESULT:      -9.0      1.080      1.272
REMARK  Name = 
REMARK  5 active torsions:
REMARK  status: ('A' for Active; 'I' for Inactive)
REMARK    1  A    between atoms: C_1  and  C_2
REMARK    2  A    between atoms: C_3  and  C_4
REMARK    3  A    between atoms: N_6  and  C_7
REMARK    4  A    between atoms: C_11  and  C_12
REMARK    5  A    between atoms: C_20  and  C_21
REMARK                            x       y       z     vdW  Elec       q    Type
REMARK                         _______ _______ _______ _____ _____    ______ ____
ROOT
ATOM      1  C   UNL     1       3.556   7.075  17.778  0.00  0.00    +0.000 C 
ATOM      2  C   UNL     1       3.032   6.016  18.721  0.00  0.00    +0.000 A 
ATOM      3  C   UNL     1       3.305   4.640  18.471  0.00  0.00    +0.000 A 
ATOM      4  C   UNL     1       2.720   3.644  19.270  0.00  0.00    +0.000 A 
ATOM      5  C   UNL     1       1.903   3.971  20.336  0.00  0.00    +0.000 A 
ATOM      6  C   UNL     1       1.675   5.310  20.623  0.00  0.00    +0.000 A 
ATOM      7  C   UNL     1       2.202   6.366  19.838  0.00  0.00    +0.000 A 
ENDROOT
BRANCH   7   8
ATOM      8  C   UNL     1       1.738   7.753  20.152  0.00  0.00    +0.000 A 
ATOM      9  C   UNL     1       1.610   8.772  19.202  0.00  0.00    +0.000 A 
ATOM     10  C   UNL     1       0.898   9.952  19.487  0.00  0.00    +0.000 A 
ATOM     11  C   UNL     1       0.355  10.189  20.749  0.00  0.00    +0.000 A 
ATOM     12  N   UNL     1      -0.498  11.194  20.965  0.00  0.00    +0.000 NA
ATOM     13  C   UNL     1      -0.958  11.344  22.213  0.00  0.00    +0.000 A 
ATOM     14  N   UNL     1      -2.153  12.022  22.392  0.00  0.00    +0.000 N 
ATOM     15  N   UNL     1      -0.535  10.670  23.281  0.00  0.00    +0.000 NA
ATOM     16  C   UNL     1       0.292   9.646  23.028  0.00  0.00    +0.000 A 
ATOM     17  C   UNL     1       0.698   9.298  21.754  0.00  0.00    +0.000 A 
ATOM     18  C   UNL     1       1.340   8.083  21.460  0.00  0.00    +0.000 A 
ATOM     19  H   UNL     1      -2.780  11.663  21.681  0.00  0.00    +0.000 HD
ATOM     20  H   UNL     1      -2.456  11.790  23.332  0.00  0.00    +0.000 HD
ENDBRANCH   7   8
BRANCH   3  21
ATOM     21  C   UNL     1       4.098   4.100  17.329  0.00  0.00    +0.000 C 
ATOM     22  O   UNL     1       4.322   2.891  17.323  0.00  0.00    +0.000 OA
ATOM     23  N   UNL     1       4.598   5.019  16.416  0.00  0.00    +0.000 N 
ATOM     24  H   UNL     1       4.416   5.997  16.599  0.00  0.00    +0.000 HD
BRANCH  23  25
ATOM     25  C   UNL     1       5.442   4.730  15.312  0.00  0.00    +0.000 A 
ATOM     26  C   UNL     1       6.798   5.066  15.256  0.00  0.00    +0.000 A 
ATOM     27  C   UNL     1       7.552   4.821  14.104  0.00  0.00    +0.000 A 
ATOM     28  C   UNL     1       6.961   4.230  12.991  0.00  0.00    +0.000 A 
ATOM     29  C   UNL     1       5.612   3.861  13.029  0.00  0.00    +0.000 A 
ATOM     30  C   UNL     1       4.867   4.099  14.203  0.00  0.00    +0.000 A 
BRANCH  29  31
ATOM     31  C   UNL     1       4.945   3.235  11.832  0.00  0.00    +0.000 C 
ATOM     32  F   UNL     1       4.956   4.025  10.720  0.00  0.00    +0.000 F 
ATOM     33  F   UNL     1       5.529   2.063  11.464  0.00  0.00    +0.000 F 
ATOM     34  F   UNL     1       3.635   2.940  12.066  0.00  0.00    +0.000 F 
ENDBRANCH  29  31
ENDBRANCH  23  25
ENDBRANCH   3  21
TORSDOF 4
ENDMDL
MODEL 5
REMARK VINA RESULT:      -9.0      5.909     10.308
REMARK  Name = 
REMARK  5 active torsions:
REMARK  status: ('A' for Active; 'I' for Inactive)
REMARK    1  A    between atoms: C_1  and  C_2
REMARK    2  A    between atoms: C_3  and  C_4
REMARK    3  A    between atoms: N_6  and  C_7
REMARK    4  A    between atoms: C_11  and  C_12
REMARK    5  A    between atoms: C_20  and  C_21
REMARK                            x       y       z     vdW  Elec       q    Type
REMARK                         _______ _______ _______ _____ _____    ______ ____
ROOT
ATOM      1  C   UNL     1       2.228   9.201  17.396  0.00  0.00    +0.000 C 
ATOM      2  C   UNL     1       1.773   8.746  18.764  0.00  0.00    +0.000 A 
ATOM      3  C   UNL     1       1.015   9.623  19.592  0.00  0.00    +0.000 A 
ATOM      4  C   UNL     1       0.695   9.256  20.909  0.00  0.00    +0.000 A 
ATOM      5  C   UNL     1       1.070   8.027  21.420  0.00  0.00    +0.000 A 
ATOM      6  C   UNL     1       1.762   7.142  20.604  0.00  0.00    +0.000 A 
ATOM      7  C   UNL     1       2.149   7.459  19.278  0.00  0.00    +0.000 A 
ENDROOT
BRANCH   7   8
ATOM      8  C   UNL     1       3.039   6.487  18.571  0.00  0.00    +0.000 A 
ATOM      9  C   UNL     1       2.638   5.211  18.159  0.00  0.00    +0.000 A 
ATOM     10  C   UNL     1       3.406   4.462  17.249  0.00  0.00    +0.000 A 
ATOM     11  C   UNL     1       4.634   4.924  16.778  0.00  0.00    +0.000 A 
ATOM     12  N   UNL     1       5.261   4.329  15.760  0.00  0.00    +0.000 NA
ATOM     13  C   UNL     1       6.439   4.842  15.386  0.00  0.00    +0.000 A 
ATOM     14  N   UNL     1       6.883   4.590  14.098  0.00  0.00    +0.000 N 
ATOM     15  N   UNL     1       7.103   5.803  16.026  0.00  0.00    +0.000 NA
ATOM     16  C   UNL     1       6.434   6.405  17.018  0.00  0.00    +0.000 A 
ATOM     17  C   UNL     1       5.144   6.065  17.378  0.00  0.00    +0.000 A 
ATOM     18  C   UNL     1       4.352   6.857  18.226  0.00  0.00    +0.000 A 
ATOM     19  H   UNL     1       6.076   4.731  13.498  0.00  0.00    +0.000 HD
ATOM     20  H   UNL     1       7.617   5.269  13.928  0.00  0.00    +0.000 HD
ENDBRANCH   7   8
BRANCH   3  21
ATOM     21  C   UNL     1       0.589  11.007  19.238  0.00  0.00    +0.000 C 
ATOM     22  O   UNL     1      -0.387  11.123  18.499  0.00  0.00    +0.000 OA
ATOM     23  N   UNL     1       1.384  12.050  19.695  0.00  0.00    +0.000 N 
ATOM     24  H   UNL     1       2.216  11.803  20.214  0.00  0.00    +0.000 HD
BRANCH  23  25
ATOM     25  C   UNL     1       1.208  13.428  19.404  0.00  0.00    +0.000 A 
ATOM     26  C   UNL     1       0.028  14.134  19.652  0.00  0.00    +0.000 A 
ATOM     27  C   UNL     1      -0.105  15.472  19.267  0.00  0.00    +0.000 A 
ATOM     28  C   UNL     1       0.947  16.126  18.631  0.00  0.00    +0.000 A 
ATOM     29  C   UNL     1       2.148  15.451  18.393  0.00  0.00    +0.000 A 
ATOM     30  C   UNL     1       2.274  14.107  18.801  0.00  0.00    +0.000 A 
BRANCH  29  31
ATOM     31  C   UNL     1       3.295  16.132  17.693  0.00  0.00    +0.000 C 
ATOM     32  F   UNL     1       4.168  15.268  17.098  0.00  0.00    +0.000 F 
ATOM     33  F   UNL     1       2.879  16.977  16.711  0.00  0.00    +0.000 F 
ATOM     34  F   UNL     1       4.043  16.889  18.544  0.00  0.00    +0.000 F 
ENDBRANCH  29  31
ENDBRANCH  23  25
ENDBRANCH   3  21
TORSDOF 4
ENDMDL
MODEL 6
REMARK VINA RESULT:      -8.9      7.032     10.550
REMARK  Name = 
REMARK  5 active torsions:
REMARK  status: ('A' for Active; 'I' for Inactive)
REMARK    1  A    between atoms: C_1  and  C_2
REMARK    2  A    between atoms: C_3  and  C_4
REMARK    3  A    between atoms: N_6  and  C_7
REMARK    4  A    between atoms: C_11  and  C_12
REMARK    5  A    between atoms: C_20  and  C_21
REMARK                            x       y       z     vdW  Elec       q    Type
REMARK                         _______ _______ _______ _____ _____    ______ ____
ROOT
ATOM      1  C   UNL     1       1.935   9.439  17.880  0.00  0.00    +0.000 C 
ATOM      2  C   UNL     1       1.420   9.485  19.300  0.00  0.00    +0.000 A 
ATOM      3  C   UNL     1       0.989  10.721  19.864  0.00  0.00    +0.000 A 
ATOM      4  C   UNL     1       0.627  10.796  21.219  0.00  0.00    +0.000 A 
ATOM      5  C   UNL     1       0.640   9.672  22.025  0.00  0.00    +0.000 A 
ATOM      6  C   UNL     1       1.005   8.452  21.472  0.00  0.00    +0.000 A 
ATOM      7  C   UNL     1       1.417   8.309  20.124  0.00  0.00    +0.000 A 
ENDROOT
BRANCH   7   8
ATOM      8  C   UNL     1       1.949   6.976  19.705  0.00  0.00    +0.000 A 
ATOM      9  C   UNL     1       2.680   6.755  18.533  0.00  0.00    +0.000 A 
ATOM     10  C   UNL     1       3.403   5.563  18.337  0.00  0.00    +0.000 A 
ATOM     11  C   UNL     1       3.359   4.522  19.263  0.00  0.00    +0.000 A 
ATOM     12  N   UNL     1       4.202   3.488  19.193  0.00  0.00    +0.000 NA
ATOM     13  C   UNL     1       4.076   2.536  20.124  0.00  0.00    +0.000 A 
ATOM     14  N   UNL     1       5.170   1.728  20.385  0.00  0.00    +0.000 N 
ATOM     15  N   UNL     1       3.100   2.460  21.027  0.00  0.00    +0.000 NA
ATOM     16  C   UNL     1       2.294   3.528  21.098  0.00  0.00    +0.000 A 
ATOM     17  C   UNL     1       2.440   4.642  20.294  0.00  0.00    +0.000 A 
ATOM     18  C   UNL     1       1.776   5.856  20.539  0.00  0.00    +0.000 A 
ATOM     19  H   UNL     1       5.967   2.354  20.432  0.00  0.00    +0.000 HD
ATOM     20  H   UNL     1       4.971   1.284  21.275  0.00  0.00    +0.000 HD
ENDBRANCH   7   8
BRANCH   3  21
ATOM     21  C   UNL     1       0.980  12.041  19.170  0.00  0.00    +0.000 C 
ATOM     22  O   UNL     1       0.041  12.269  18.408  0.00  0.00    +0.000 OA
ATOM     23  N   UNL     1       2.079  12.867  19.367  0.00  0.00    +0.000 N 
ATOM     24  H   UNL     1       2.827  12.509  19.946  0.00  0.00    +0.000 HD
BRANCH  23  25
ATOM     25  C   UNL     1       2.309  14.119  18.740  0.00  0.00    +0.000 A 
ATOM     26  C   UNL     1       3.484  14.445  18.055  0.00  0.00    +0.000 A 
ATOM     27  C   UNL     1       3.676  15.726  17.528  0.00  0.00    +0.000 A 
ATOM     28  C   UNL     1       2.693  16.700  17.675  0.00  0.00    +0.000 A 
ATOM     29  C   UNL     1       1.498  16.394  18.335  0.00  0.00    +0.000 A 
ATOM     30  C   UNL     1       1.310  15.093  18.847  0.00  0.00    +0.000 A 
BRANCH  29  31
ATOM     31  C   UNL     1       0.426  17.435  18.520  0.00  0.00    +0.000 C 
ATOM     32  F   UNL     1      -0.830  16.991  18.223  0.00  0.00    +0.000 F 
ATOM     33  F   UNL     1       0.365  17.899  19.797  0.00  0.00    +0.000 F 
ATOM     34  F   UNL     1       0.628  18.530  17.735  0.00  0.00    +0.000 F 
ENDBRANCH  29  31
ENDBRANCH  23  25
ENDBRANCH   3  21
TORSDOF 4
ENDMDL
MODEL 7
REMARK VINA RESULT:      -8.8      7.243     11.735
REMARK  Name = 
REMARK  5 active torsions:
REMARK  status: ('A' for Active; 'I' for Inactive)
REMARK    1  A    between atoms: C_1  and  C_2
REMARK    2  A    between atoms: C_3  and  C_4
REMARK    3  A    between atoms: N_6  and  C_7
REMARK    4  A    between atoms: C_11  and  C_12
REMARK    5  A    between atoms: C_20  and  C_21
REMARK                            x       y       z     vdW  Elec       q    Type
REMARK                         _______ _______ _______ _____ _____    ______ ____
ROOT
ATOM      1  C   UNL     1       0.880   8.599  21.888  0.00  0.00    +0.000 C 
ATOM      2  C   UNL     1       1.230   9.005  20.474  0.00  0.00    +0.000 A 
ATOM      3  C   UNL     1       0.896  10.307  20.002  0.00  0.00    +0.000 A 
ATOM      4  C   UNL     1       1.104  10.650  18.656  0.00  0.00    +0.000 A 
ATOM      5  C   UNL     1       1.673   9.753  17.771  0.00  0.00    +0.000 A 
ATOM      6  C   UNL     1       2.053   8.500  18.233  0.00  0.00    +0.000 A 
ATOM      7  C   UNL     1       1.839   8.074  19.567  0.00  0.00    +0.000 A 
ENDROOT
BRANCH   7   8
ATOM      8  C   UNL     1       2.136   6.644  19.888  0.00  0.00    +0.000 A 
ATOM      9  C   UNL     1       1.224   5.768  20.487  0.00  0.00    +0.000 A 
ATOM     10  C   UNL     1       1.444   4.377  20.495  0.00  0.00    +0.000 A 
ATOM     11  C   UNL     1       2.612   3.821  19.976  0.00  0.00    +0.000 A 
ATOM     12  N   UNL     1       2.732   2.504  19.784  0.00  0.00    +0.000 NA
ATOM     13  C   UNL     1       3.895   2.066  19.288  0.00  0.00    +0.000 A 
ATOM     14  N   UNL     1       3.910   0.840  18.642  0.00  0.00    +0.000 N 
ATOM     15  N   UNL     1       4.986   2.806  19.101  0.00  0.00    +0.000 NA
ATOM     16  C   UNL     1       4.823   4.126  19.266  0.00  0.00    +0.000 A 
ATOM     17  C   UNL     1       3.617   4.703  19.615  0.00  0.00    +0.000 A 
ATOM     18  C   UNL     1       3.377   6.085  19.531  0.00  0.00    +0.000 A 
ATOM     19  H   UNL     1       3.092   0.836  18.043  0.00  0.00    +0.000 HD
ATOM     20  H   UNL     1       4.777   0.822  18.117  0.00  0.00    +0.000 HD
ENDBRANCH   7   8
BRANCH   3  21
ATOM     21  C   UNL     1       0.213  11.373  20.790  0.00  0.00    +0.000 C 
ATOM     22  O   UNL     1       0.729  11.700  21.858  0.00  0.00    +0.000 OA
ATOM     23  N   UNL     1      -0.999  11.844  20.301  0.00  0.00    +0.000 N 
ATOM     24  H   UNL     1      -1.353  11.415  19.457  0.00  0.00    +0.000 HD
BRANCH  23  25
ATOM     25  C   UNL     1      -1.848  12.789  20.934  0.00  0.00    +0.000 A 
ATOM     26  C   UNL     1      -2.000  14.111  20.506  0.00  0.00    +0.000 A 
ATOM     27  C   UNL     1      -2.793  15.012  21.224  0.00  0.00    +0.000 A 
ATOM     28  C   UNL     1      -3.451  14.601  22.380  0.00  0.00    +0.000 A 
ATOM     29  C   UNL     1      -3.336  13.276  22.816  0.00  0.00    +0.000 A 
ATOM     30  C   UNL     1      -2.546  12.374  22.074  0.00  0.00    +0.000 A 
BRANCH  29  31
ATOM     31  C   UNL     1      -4.025  12.811  24.072  0.00  0.00    +0.000 C 
ATOM     32  F   UNL     1      -3.689  11.543  24.447  0.00  0.00    +0.000 F 
ATOM     33  F   UNL     1      -3.749  13.603  25.143  0.00  0.00    +0.000 F 
ATOM     34  F   UNL     1      -5.382  12.814  23.947  0.00  0.00    +0.000 F 
ENDBRANCH  29  31
ENDBRANCH  23  25
ENDBRANCH   3  21
TORSDOF 4
ENDMDL
MODEL 8
REMARK VINA RESULT:      -8.8      7.368     12.007
REMARK  Name = 
REMARK  5 active torsions:
REMARK  status: ('A' for Active; 'I' for Inactive)
REMARK    1  A    between atoms: C_1  and  C_2
REMARK    2  A    between atoms: C_3  and  C_4
REMARK    3  A    between atoms: N_6  and  C_7
REMARK    4  A    between atoms: C_11  and  C_12
REMARK    5  A    between atoms: C_20  and  C_21
REMARK                            x       y       z     vdW  Elec       q    Type
REMARK                         _______ _______ _______ _____ _____    ______ ____
ROOT
ATOM      1  C   UNL     1       1.352   9.023  22.161  0.00  0.00    +0.000 C 
ATOM      2  C   UNL     1       1.256   9.322  20.682  0.00  0.00    +0.000 A 
ATOM      3  C   UNL     1       0.737  10.573  20.239  0.00  0.00    +0.000 A 
ATOM      4  C   UNL     1       0.528  10.810  18.871  0.00  0.00    +0.000 A 
ATOM      5  C   UNL     1       0.856   9.858  17.923  0.00  0.00    +0.000 A 
ATOM      6  C   UNL     1       1.414   8.657  18.339  0.00  0.00    +0.000 A 
ATOM      7  C   UNL     1       1.618   8.336  19.704  0.00  0.00    +0.000 A 
ENDROOT
BRANCH   7   8
ATOM      8  C   UNL     1       2.063   6.944  20.023  0.00  0.00    +0.000 A 
ATOM      9  C   UNL     1       1.289   6.013  20.725  0.00  0.00    +0.000 A 
ATOM     10  C   UNL     1       1.624   4.646  20.739  0.00  0.00    +0.000 A 
ATOM     11  C   UNL     1       2.781   4.173  20.121  0.00  0.00    +0.000 A 
ATOM     12  N   UNL     1       2.993   2.866  19.944  0.00  0.00    +0.000 NA
ATOM     13  C   UNL     1       4.137   2.511  19.348  0.00  0.00    +0.000 A 
ATOM     14  N   UNL     1       4.195   1.273  18.729  0.00  0.00    +0.000 N 
ATOM     15  N   UNL     1       5.140   3.333  19.042  0.00  0.00    +0.000 NA
ATOM     16  C   UNL     1       4.883   4.639  19.196  0.00  0.00    +0.000 A 
ATOM     17  C   UNL     1       3.670   5.125  19.647  0.00  0.00    +0.000 A 
ATOM     18  C   UNL     1       3.307   6.480  19.560  0.00  0.00    +0.000 A 
ATOM     19  H   UNL     1       3.327   1.186  18.211  0.00  0.00    +0.000 HD
ATOM     20  H   UNL     1       5.007   1.312  18.123  0.00  0.00    +0.000 HD
ENDBRANCH   7   8
BRANCH   3  21
ATOM     21  C   UNL     1       0.263  11.681  21.116  0.00  0.00    +0.000 C 
ATOM     22  O   UNL     1       1.100  12.505  21.482  0.00  0.00    +0.000 OA
ATOM     23  N   UNL     1      -1.064  11.642  21.525  0.00  0.00    +0.000 N 
ATOM     24  H   UNL     1      -1.616  10.850  21.224  0.00  0.00    +0.000 HD
BRANCH  23  25
ATOM     25  C   UNL     1      -1.692  12.546  22.421  0.00  0.00    +0.000 A 
ATOM     26  C   UNL     1      -1.011  13.535  23.137  0.00  0.00    +0.000 A 
ATOM     27  C   UNL     1      -1.680  14.340  24.064  0.00  0.00    +0.000 A 
ATOM     28  C   UNL     1      -3.044  14.170  24.286  0.00  0.00    +0.000 A 
ATOM     29  C   UNL     1      -3.754  13.204  23.565  0.00  0.00    +0.000 A 
ATOM     30  C   UNL     1      -3.070  12.410  22.621  0.00  0.00    +0.000 A 
BRANCH  29  31
ATOM     31  C   UNL     1      -5.227  12.991  23.797  0.00  0.00    +0.000 C 
ATOM     32  F   UNL     1      -5.906  14.132  24.114  0.00  0.00    +0.000 F 
ATOM     33  F   UNL     1      -5.857  12.471  22.710  0.00  0.00    +0.000 F 
ATOM     34  F   UNL     1      -5.468  12.120  24.818  0.00  0.00    +0.000 F 
ENDBRANCH  29  31
ENDBRANCH  23  25
ENDBRANCH   3  21
TORSDOF 4
ENDMDL
MODEL 9
REMARK VINA RESULT:      -8.8      7.268     11.783
REMARK  Name = 
REMARK  5 active torsions:
REMARK  status: ('A' for Active; 'I' for Inactive)
REMARK    1  A    between atoms: C_1  and  C_2
REMARK    2  A    between atoms: C_3  and  C_4
REMARK    3  A    between atoms: N_6  and  C_7
REMARK    4  A    between atoms: C_11  and  C_12
REMARK    5  A    between atoms: C_20  and  C_21
REMARK                            x       y       z     vdW  Elec       q    Type
REMARK                         _______ _______ _______ _____ _____    ______ ____
ROOT
ATOM      1  C   UNL     1       0.279   8.392  21.557  0.00  0.00    +0.000 C 
ATOM      2  C   UNL     1       0.903   8.890  20.274  0.00  0.00    +0.000 A 
ATOM      3  C   UNL     1       0.538  10.164  19.751  0.00  0.00    +0.000 A 
ATOM      4  C   UNL     1       1.017  10.581  18.498  0.00  0.00    +0.000 A 
ATOM      5  C   UNL     1       1.880   9.788  17.763  0.00  0.00    +0.000 A 
ATOM      6  C   UNL     1       2.285   8.568  18.288  0.00  0.00    +0.000 A 
ATOM      7  C   UNL     1       1.814   8.069  19.528  0.00  0.00    +0.000 A 
ENDROOT
BRANCH   7   8
ATOM      8  C   UNL     1       2.192   6.669  19.893  0.00  0.00    +0.000 A 
ATOM      9  C   UNL     1       1.355   5.783  20.581  0.00  0.00    +0.000 A 
ATOM     10  C   UNL     1       1.638   4.405  20.637  0.00  0.00    +0.000 A 
ATOM     11  C   UNL     1       2.799   3.876  20.077  0.00  0.00    +0.000 A 
ATOM     12  N   UNL     1       2.968   2.558  19.936  0.00  0.00    +0.000 NA
ATOM     13  C   UNL     1       4.121   2.148  19.394  0.00  0.00    +0.000 A 
ATOM     14  N   UNL     1       4.156   0.895  18.803  0.00  0.00    +0.000 N 
ATOM     15  N   UNL     1       5.165   2.925  19.113  0.00  0.00    +0.000 NA
ATOM     16  C   UNL     1       4.952   4.242  19.230  0.00  0.00    +0.000 A 
ATOM     17  C   UNL     1       3.742   4.783  19.621  0.00  0.00    +0.000 A 
ATOM     18  C   UNL     1       3.435   6.148  19.491  0.00  0.00    +0.000 A 
ATOM     19  H   UNL     1       3.307   0.829  18.252  0.00  0.00    +0.000 HD
ATOM     20  H   UNL     1       4.993   0.890  18.230  0.00  0.00    +0.000 HD
ENDBRANCH   7   8
BRANCH   3  21
ATOM     21  C   UNL     1      -0.432  11.115  20.365  0.00  0.00    +0.000 C 
ATOM     22  O   UNL     1      -1.479  11.322  19.754  0.00  0.00    +0.000 OA
ATOM     23  N   UNL     1      -0.035  11.761  21.529  0.00  0.00    +0.000 N 
ATOM     24  H   UNL     1       0.897  11.565  21.870  0.00  0.00    +0.000 HD
BRANCH  23  25
ATOM     25  C   UNL     1      -0.765  12.759  22.225  0.00  0.00    +0.000 A 
ATOM     26  C   UNL     1      -0.249  14.015  22.557  0.00  0.00    +0.000 A 
ATOM     27  C   UNL     1      -0.997  14.922  23.314  0.00  0.00    +0.000 A 
ATOM     28  C   UNL     1      -2.278  14.588  23.745  0.00  0.00    +0.000 A 
ATOM     29  C   UNL     1      -2.828  13.347  23.406  0.00  0.00    +0.000 A 
ATOM     30  C   UNL     1      -2.068  12.448  22.628  0.00  0.00    +0.000 A 
BRANCH  29  31
ATOM     31  C   UNL     1      -4.205  12.955  23.874  0.00  0.00    +0.000 C 
ATOM     32  F   UNL     1      -4.204  12.003  24.852  0.00  0.00    +0.000 F 
ATOM     33  F   UNL     1      -4.904  14.007  24.378  0.00  0.00    +0.000 F 
ATOM     34  F   UNL     1      -4.969  12.450  22.865  0.00  0.00    +0.000 F 
ENDBRANCH  29  31
ENDBRANCH  23  25
ENDBRANCH   3  21
TORSDOF 4
ENDMDL
