MODEL 1
REMARK VINA RESULT:      -7.7      0.000      0.000
REMARK  Name = 
REMARK  9 active torsions:
REMARK  status: ('A' for Active; 'I' for Inactive)
REMARK    1  A    between atoms: C_1  and  N_2
REMARK    2  A    between atoms: N_2  and  C_3
REMARK    3  A    between atoms: N_6  and  C_7
REMARK    4  A    between atoms: C_10  and  S_11
REMARK    5  A    between atoms: S_11  and  N_14
REMARK    6  A    between atoms: N_14  and  C_15
REMARK    7  A    between atoms: C_18  and  C_19
REMARK    8  A    between atoms: C_19  and  N_20
REMARK    9  A    between atoms: C_19  and  C_21
REMARK                            x       y       z     vdW  Elec       q    Type
REMARK                         _______ _______ _______ _____ _____    ______ ____
ROOT
ATOM      1  N   UNL     1       2.175   5.993  21.047  0.00  0.00    +0.000 NA
ATOM      2  H   UNL     1       3.116   6.197  21.386  0.00  0.00    +0.000 HD
ENDROOT
BRANCH   1   3
ATOM      3  C   UNL     1       1.445   7.078  20.367  0.00  0.00    +0.000 C 
ATOM      4  C   UNL     1       1.098   8.231  21.310  0.00  0.00    +0.000 C 
ATOM      5  C   UNL     1       0.464   9.406  20.560  0.00  0.00    +0.000 C 
ATOM      6  C   UNL     1       1.374   9.914  19.426  0.00  0.00    +0.000 C 
ATOM      7  C   UNL     1       1.725   8.757  18.473  0.00  0.00    +0.000 C 
ATOM      8  C   UNL     1       2.341   7.579  19.223  0.00  0.00    +0.000 C 
BRANCH   6   9
ATOM      9  C   UNL     1       0.814  11.183  18.716  0.00  0.00    +0.000 C 
BRANCH   9  10
ATOM     10  C   UNL     1       0.827  12.483  19.576  0.00  0.00    +0.000 C 
ATOM     11  O   UNL     1       0.013  12.665  20.487  0.00  0.00    +0.000 OA
ATOM     12  N   UNL     1       1.842  13.402  19.352  0.00  0.00    +0.000 N 
ATOM     13  C   UNL     1       1.966  14.542  20.244  0.00  0.00    +0.000 C 
ATOM     14  C   UNL     1       3.255  15.302  19.959  0.00  0.00    +0.000 C 
ATOM     15  S   UNL     1       3.949  14.619  18.436  0.00  0.00    +0.000 S 
ATOM     16  C   UNL     1       2.505  13.596  18.083  0.00  0.00    +0.000 C 
ENDBRANCH   9  10
BRANCH   9  17
ATOM     17  N   UNL     1      -0.551  10.917  18.201  0.00  0.00    +0.000 NA
ATOM     18  H   UNL     1      -0.784   9.937  18.355  0.00  0.00    +0.000 HD
ATOM     19  H   UNL     1      -0.550  11.049  17.188  0.00  0.00    +0.000 HD
ENDBRANCH   9  17
ENDBRANCH   6   9
ENDBRANCH   1   3
BRANCH   1  20
ATOM     20  S   UNL     1       2.019   4.376  20.612  0.00  0.00    +0.000 S 
ATOM     21  O   UNL     1       0.637   4.126  20.275  0.00  0.00    +0.000 OA
ATOM     22  O   UNL     1       2.695   3.620  21.645  0.00  0.00    +0.000 OA
BRANCH  20  26
ATOM     23  C   UNL     1       4.500   3.974  16.790  0.00  0.00    +0.000 A 
ATOM     24  C   UNL     1       3.103   3.918  16.754  0.00  0.00    +0.000 A 
ATOM     25  C   UNL     1       2.348   4.069  17.920  0.00  0.00    +0.000 A 
ATOM     26  C   UNL     1       2.992   4.248  19.139  0.00  0.00    +0.000 A 
ATOM     27  C   UNL     1       4.388   4.303  19.201  0.00  0.00    +0.000 A 
ATOM     28  C   UNL     1       5.136   4.163  18.026  0.00  0.00    +0.000 A 
BRANCH  23  34
ATOM     29  C   UNL     1       7.699   5.439  13.392  0.00  0.00    +0.000 C 
ATOM     30  N   UNL     1       6.780   4.442  13.925  0.00  0.00    +0.000 N 
ATOM     31  C   UNL     1       6.302   3.409  13.023  0.00  0.00    +0.000 C 
ATOM     32  C   UNL     1       6.230   4.735  15.170  0.00  0.00    +0.000 C 
ATOM     33  O   UNL     1       6.571   5.754  15.776  0.00  0.00    +0.000 OA
ATOM     34  N   UNL     1       5.308   3.826  15.638  0.00  0.00    +0.000 N 
ATOM     35  H   UNL     1       5.336   2.908  15.226  0.00  0.00    +0.000 HD
ENDBRANCH  23  34
ENDBRANCH  20  26
ENDBRANCH   1  20
TORSDOF 7
ENDMDL
MODEL 2
REMARK VINA RESULT:      -7.7      3.979     10.761
REMARK  Name = 
REMARK  9 active torsions:
REMARK  status: ('A' for Active; 'I' for Inactive)
REMARK    1  A    between atoms: C_1  and  N_2
REMARK    2  A    between atoms: N_2  and  C_3
REMARK    3  A    between atoms: N_6  and  C_7
REMARK    4  A    between atoms: C_10  and  S_11
REMARK    5  A    between atoms: S_11  and  N_14
REMARK    6  A    between atoms: N_14  and  C_15
REMARK    7  A    between atoms: C_18  and  C_19
REMARK    8  A    between atoms: C_19  and  N_20
REMARK    9  A    between atoms: C_19  and  C_21
REMARK                            x       y       z     vdW  Elec       q    Type
REMARK                         _______ _______ _______ _____ _____    ______ ____
ROOT
ATOM      1  N   UNL     1       0.796  11.165  18.392  0.00  0.00    +0.000 NA
ATOM      2  H   UNL     1       0.646  11.240  17.385  0.00  0.00    +0.000 HD
ENDROOT
BRANCH   1   3
ATOM      3  C   UNL     1       1.648  10.064  18.875  0.00  0.00    +0.000 C 
ATOM      4  C   UNL     1       0.962   9.222  19.952  0.00  0.00    +0.000 C 
ATOM      5  C   UNL     1       1.804   8.004  20.343  0.00  0.00    +0.000 C 
ATOM      6  C   UNL     1       2.132   7.125  19.121  0.00  0.00    +0.000 C 
ATOM      7  C   UNL     1       2.825   7.968  18.034  0.00  0.00    +0.000 C 
ATOM      8  C   UNL     1       1.993   9.191  17.658  0.00  0.00    +0.000 C 
BRANCH   6   9
ATOM      9  C   UNL     1       2.889   5.816  19.497  0.00  0.00    +0.000 C 
BRANCH   9  10
ATOM     10  C   UNL     1       3.316   4.927  18.289  0.00  0.00    +0.000 C 
ATOM     11  O   UNL     1       2.483   4.366  17.571  0.00  0.00    +0.000 OA
ATOM     12  N   UNL     1       4.668   4.854  17.981  0.00  0.00    +0.000 N 
ATOM     13  C   UNL     1       5.074   4.162  16.771  0.00  0.00    +0.000 C 
ATOM     14  C   UNL     1       6.559   4.378  16.508  0.00  0.00    +0.000 C 
ATOM     15  S   UNL     1       7.247   5.178  17.977  0.00  0.00    +0.000 S 
ATOM     16  C   UNL     1       5.734   4.994  18.945  0.00  0.00    +0.000 C 
ENDBRANCH   9  10
BRANCH   9  17
ATOM     17  N   UNL     1       2.088   5.025  20.463  0.00  0.00    +0.000 NA
ATOM     18  H   UNL     1       1.456   5.647  20.965  0.00  0.00    +0.000 HD
ATOM     19  H   UNL     1       2.716   4.635  21.167  0.00  0.00    +0.000 HD
ENDBRANCH   9  17
ENDBRANCH   6   9
ENDBRANCH   1   3
BRANCH   1  20
ATOM     20  S   UNL     1       0.752  12.676  19.130  0.00  0.00    +0.000 S 
ATOM     21  O   UNL     1       1.020  13.682  18.127  0.00  0.00    +0.000 OA
ATOM     22  O   UNL     1       1.565  12.560  20.321  0.00  0.00    +0.000 OA
BRANCH  20  26
ATOM     23  C   UNL     1      -3.623  13.097  20.400  0.00  0.00    +0.000 A 
ATOM     24  C   UNL     1      -3.231  12.133  19.464  0.00  0.00    +0.000 A 
ATOM     25  C   UNL     1      -1.890  11.990  19.100  0.00  0.00    +0.000 A 
ATOM     26  C   UNL     1      -0.933  12.834  19.651  0.00  0.00    +0.000 A 
ATOM     27  C   UNL     1      -1.301  13.808  20.584  0.00  0.00    +0.000 A 
ATOM     28  C   UNL     1      -2.645  13.937  20.953  0.00  0.00    +0.000 A 
BRANCH  23  34
ATOM     29  C   UNL     1      -7.542  12.414  23.247  0.00  0.00    +0.000 C 
ATOM     30  N   UNL     1      -6.920  12.975  22.054  0.00  0.00    +0.000 N 
ATOM     31  C   UNL     1      -7.789  13.379  20.963  0.00  0.00    +0.000 C 
ATOM     32  C   UNL     1      -5.541  12.813  21.960  0.00  0.00    +0.000 C 
ATOM     33  O   UNL     1      -4.915  12.277  22.878  0.00  0.00    +0.000 OA
ATOM     34  N   UNL     1      -4.968  13.281  20.799  0.00  0.00    +0.000 N 
ATOM     35  H   UNL     1      -5.502  13.956  20.277  0.00  0.00    +0.000 HD
ENDBRANCH  23  34
ENDBRANCH  20  26
ENDBRANCH   1  20
TORSDOF 7
ENDMDL
MODEL 3
REMARK VINA RESULT:      -7.6      4.143     11.003
REMARK  Name = 
REMARK  9 active torsions:
REMARK  status: ('A' for Active; 'I' for Inactive)
REMARK    1  A    between atoms: C_1  and  N_2
REMARK    2  A    between atoms: N_2  and  C_3
REMARK    3  A    between atoms: N_6  and  C_7
REMARK    4  A    between atoms: C_10  and  S_11
REMARK    5  A    between atoms: S_11  and  N_14
REMARK    6  A    between atoms: N_14  and  C_15
REMARK    7  A    between atoms: C_18  and  C_19
REMARK    8  A    between atoms: C_19  and  N_20
REMARK    9  A    between atoms: C_19  and  C_21
REMARK                            x       y       z     vdW  Elec       q    Type
REMARK                         _______ _______ _______ _____ _____    ______ ____
ROOT
ATOM      1  N   UNL     1       0.487  11.153  18.608  0.00  0.00    +0.000 NA
ATOM      2  H   UNL     1       0.227  11.195  17.622  0.00  0.00    +0.000 HD
ENDROOT
BRANCH   1   3
ATOM      3  C   UNL     1       1.454  10.118  19.015  0.00  0.00    +0.000 C 
ATOM      4  C   UNL     1       0.920   9.229  20.139  0.00  0.00    +0.000 C 
ATOM      5  C   UNL     1       1.879   8.076  20.455  0.00  0.00    +0.000 C 
ATOM      6  C   UNL     1       2.171   7.222  19.206  0.00  0.00    +0.000 C 
ATOM      7  C   UNL     1       2.710   8.113  18.072  0.00  0.00    +0.000 C 
ATOM      8  C   UNL     1       1.763   9.272  17.769  0.00  0.00    +0.000 C 
BRANCH   6   9
ATOM      9  C   UNL     1       3.049   5.973  19.513  0.00  0.00    +0.000 C 
BRANCH   9  10
ATOM     10  C   UNL     1       3.270   5.006  18.310  0.00  0.00    +0.000 C 
ATOM     11  O   UNL     1       2.322   4.483  17.717  0.00  0.00    +0.000 OA
ATOM     12  N   UNL     1       4.568   4.815  17.858  0.00  0.00    +0.000 N 
ATOM     13  C   UNL     1       4.782   4.046  16.645  0.00  0.00    +0.000 C 
ATOM     14  C   UNL     1       6.239   4.134  16.210  0.00  0.00    +0.000 C 
ATOM     15  S   UNL     1       7.147   4.937  17.552  0.00  0.00    +0.000 S 
ATOM     16  C   UNL     1       5.745   4.910  18.690  0.00  0.00    +0.000 C 
ENDBRANCH   9  10
BRANCH   9  17
ATOM     17  N   UNL     1       2.495   5.235  20.674  0.00  0.00    +0.000 NA
ATOM     18  H   UNL     1       1.658   4.731  20.385  0.00  0.00    +0.000 HD
ATOM     19  H   UNL     1       2.187   5.911  21.375  0.00  0.00    +0.000 HD
ENDBRANCH   9  17
ENDBRANCH   6   9
ENDBRANCH   1   3
BRANCH   1  20
ATOM     20  S   UNL     1       0.426  12.676  19.321  0.00  0.00    +0.000 S 
ATOM     21  O   UNL     1       0.388  13.669  18.272  0.00  0.00    +0.000 OA
ATOM     22  O   UNL     1       1.461  12.682  20.332  0.00  0.00    +0.000 OA
BRANCH  20  26
ATOM     23  C   UNL     1      -3.588  12.611  21.515  0.00  0.00    +0.000 A 
ATOM     24  C   UNL     1      -2.379  12.540  22.216  0.00  0.00    +0.000 A 
ATOM     25  C   UNL     1      -1.155  12.587  21.544  0.00  0.00    +0.000 A 
ATOM     26  C   UNL     1      -1.134  12.678  20.157  0.00  0.00    +0.000 A 
ATOM     27  C   UNL     1      -2.329  12.746  19.434  0.00  0.00    +0.000 A 
ATOM     28  C   UNL     1      -3.551  12.710  20.116  0.00  0.00    +0.000 A 
BRANCH  23  34
ATOM     29  C   UNL     1      -7.381  14.456  23.991  0.00  0.00    +0.000 C 
ATOM     30  N   UNL     1      -6.687  13.326  23.387  0.00  0.00    +0.000 N 
ATOM     31  C   UNL     1      -7.060  11.991  23.820  0.00  0.00    +0.000 C 
ATOM     32  C   UNL     1      -5.543  13.641  22.659  0.00  0.00    +0.000 C 
ATOM     33  O   UNL     1      -5.207  14.819  22.510  0.00  0.00    +0.000 OA
ATOM     34  N   UNL     1      -4.851  12.566  22.150  0.00  0.00    +0.000 N 
ATOM     35  H   UNL     1      -5.363  11.703  22.067  0.00  0.00    +0.000 HD
ENDBRANCH  23  34
ENDBRANCH  20  26
ENDBRANCH   1  20
TORSDOF 7
ENDMDL
MODEL 4
REMARK VINA RESULT:      -7.5      4.090     10.812
REMARK  Name = 
REMARK  9 active torsions:
REMARK  status: ('A' for Active; 'I' for Inactive)
REMARK    1  A    between atoms: C_1  and  N_2
REMARK    2  A    between atoms: N_2  and  C_3
REMARK    3  A    between atoms: N_6  and  C_7
REMARK    4  A    between atoms: C_10  and  S_11
REMARK    5  A    between atoms: S_11  and  N_14
REMARK    6  A    between atoms: N_14  and  C_15
REMARK    7  A    between atoms: C_18  and  C_19
REMARK    8  A    between atoms: C_19  and  N_20
REMARK    9  A    between atoms: C_19  and  C_21
REMARK                            x       y       z     vdW  Elec       q    Type
REMARK                         _______ _______ _______ _____ _____    ______ ____
ROOT
ATOM      1  N   UNL     1       1.098   9.768  19.958  0.00  0.00    +0.000 NA
ATOM      2  H   UNL     1       0.990  10.002  20.946  0.00  0.00    +0.000 HD
ENDROOT
BRANCH   1   3
ATOM      3  C   UNL     1       1.202   8.342  19.603  0.00  0.00    +0.000 C 
ATOM      4  C   UNL     1       2.279   8.078  18.550  0.00  0.00    +0.000 C 
ATOM      5  C   UNL     1       2.467   6.580  18.293  0.00  0.00    +0.000 C 
ATOM      6  C   UNL     1       2.805   5.819  19.590  0.00  0.00    +0.000 C 
ATOM      7  C   UNL     1       1.722   6.081  20.653  0.00  0.00    +0.000 C 
ATOM      8  C   UNL     1       1.522   7.575  20.895  0.00  0.00    +0.000 C 
BRANCH   6   9
ATOM      9  C   UNL     1       3.118   4.312  19.350  0.00  0.00    +0.000 C 
BRANCH   9  10
ATOM     10  C   UNL     1       3.620   3.960  17.917  0.00  0.00    +0.000 C 
ATOM     11  O   UNL     1       2.873   3.454  17.075  0.00  0.00    +0.000 OA
ATOM     12  N   UNL     1       4.917   4.317  17.575  0.00  0.00    +0.000 N 
ATOM     13  C   UNL     1       5.354   4.142  16.201  0.00  0.00    +0.000 C 
ATOM     14  C   UNL     1       6.719   4.785  15.991  0.00  0.00    +0.000 C 
ATOM     15  S   UNL     1       7.343   5.251  17.623  0.00  0.00    +0.000 S 
ATOM     16  C   UNL     1       6.011   4.420  18.513  0.00  0.00    +0.000 C 
ENDBRANCH   9  10
BRANCH   9  17
ATOM     17  N   UNL     1       1.939   3.485  19.702  0.00  0.00    +0.000 NA
ATOM     18  H   UNL     1       1.540   3.089  18.852  0.00  0.00    +0.000 HD
ATOM     19  H   UNL     1       1.217   4.094  20.093  0.00  0.00    +0.000 HD
ENDBRANCH   9  17
ENDBRANCH   6   9
ENDBRANCH   1   3
BRANCH   1  20
ATOM     20  S   UNL     1       0.336  10.901  18.975  0.00  0.00    +0.000 S 
ATOM     21  O   UNL     1      -0.386  10.195  17.942  0.00  0.00    +0.000 OA
ATOM     22  O   UNL     1       1.342  11.890  18.655  0.00  0.00    +0.000 OA
BRANCH  20  26
ATOM     23  C   UNL     1      -2.666  12.953  21.752  0.00  0.00    +0.000 A 
ATOM     24  C   UNL     1      -2.674  13.194  20.374  0.00  0.00    +0.000 A 
ATOM     25  C   UNL     1      -1.773  12.544  19.526  0.00  0.00    +0.000 A 
ATOM     26  C   UNL     1      -0.836  11.667  20.059  0.00  0.00    +0.000 A 
ATOM     27  C   UNL     1      -0.805  11.413  21.434  0.00  0.00    +0.000 A 
ATOM     28  C   UNL     1      -1.719  12.059  22.275  0.00  0.00    +0.000 A 
BRANCH  23  34
ATOM     29  C   UNL     1      -6.996  13.775  23.873  0.00  0.00    +0.000 C 
ATOM     30  N   UNL     1      -5.590  14.107  23.686  0.00  0.00    +0.000 N 
ATOM     31  C   UNL     1      -5.146  15.429  24.090  0.00  0.00    +0.000 C 
ATOM     32  C   UNL     1      -4.865  13.231  22.883  0.00  0.00    +0.000 C 
ATOM     33  O   UNL     1      -5.402  12.217  22.428  0.00  0.00    +0.000 OA
ATOM     34  N   UNL     1      -3.556  13.587  22.651  0.00  0.00    +0.000 N 
ATOM     35  H   UNL     1      -3.148  14.239  23.299  0.00  0.00    +0.000 HD
ENDBRANCH  23  34
ENDBRANCH  20  26
ENDBRANCH   1  20
TORSDOF 7
ENDMDL
MODEL 5
REMARK VINA RESULT:      -7.5      4.350     11.238
REMARK  Name = 
REMARK  9 active torsions:
REMARK  status: ('A' for Active; 'I' for Inactive)
REMARK    1  A    between atoms: C_1  and  N_2
REMARK    2  A    between atoms: N_2  and  C_3
REMARK    3  A    between atoms: N_6  and  C_7
REMARK    4  A    between atoms: C_10  and  S_11
REMARK    5  A    between atoms: S_11  and  N_14
REMARK    6  A    between atoms: N_14  and  C_15
REMARK    7  A    between atoms: C_18  and  C_19
REMARK    8  A    between atoms: C_19  and  N_20
REMARK    9  A    between atoms: C_19  and  C_21
REMARK                            x       y       z     vdW  Elec       q    Type
REMARK                         _______ _______ _______ _____ _____    ______ ____
ROOT
ATOM      1  N   UNL     1       0.278  10.364  19.619  0.00  0.00    +0.000 NA
ATOM      2  H   UNL     1      -0.498  10.300  18.960  0.00  0.00    +0.000 HD
ENDROOT
BRANCH   1   3
ATOM      3  C   UNL     1       1.458   9.518  19.368  0.00  0.00    +0.000 C 
ATOM      4  C   UNL     1       1.356   8.152  20.050  0.00  0.00    +0.000 C 
ATOM      5  C   UNL     1       2.523   7.238  19.666  0.00  0.00    +0.000 C 
ATOM      6  C   UNL     1       2.624   7.054  18.140  0.00  0.00    +0.000 C 
ATOM      7  C   UNL     1       2.729   8.427  17.449  0.00  0.00    +0.000 C 
ATOM      8  C   UNL     1       1.575   9.344  17.845  0.00  0.00    +0.000 C 
BRANCH   6   9
ATOM      9  C   UNL     1       3.727   6.038  17.719  0.00  0.00    +0.000 C 
BRANCH   9  10
ATOM     10  C   UNL     1       4.031   4.921  18.762  0.00  0.00    +0.000 C 
ATOM     11  O   UNL     1       5.064   4.930  19.439  0.00  0.00    +0.000 OA
ATOM     12  N   UNL     1       3.061   3.953  18.981  0.00  0.00    +0.000 N 
ATOM     13  C   UNL     1       3.255   2.996  20.057  0.00  0.00    +0.000 C 
ATOM     14  C   UNL     1       1.994   2.167  20.265  0.00  0.00    +0.000 C 
ATOM     15  S   UNL     1       0.882   2.538  18.889  0.00  0.00    +0.000 S 
ATOM     16  C   UNL     1       2.108   3.512  17.990  0.00  0.00    +0.000 C 
ENDBRANCH   9  10
BRANCH   9  17
ATOM     17  N   UNL     1       4.971   6.759  17.356  0.00  0.00    +0.000 NA
ATOM     18  H   UNL     1       5.140   6.657  16.356  0.00  0.00    +0.000 HD
ATOM     19  H   UNL     1       5.759   6.306  17.821  0.00  0.00    +0.000 HD
ENDBRANCH   9  17
ENDBRANCH   6   9
ENDBRANCH   1   3
BRANCH   1  20
ATOM     20  S   UNL     1       0.384  11.903  20.290  0.00  0.00    +0.000 S 
ATOM     21  O   UNL     1       0.656  12.845  19.228  0.00  0.00    +0.000 OA
ATOM     22  O   UNL     1       1.262  11.778  21.433  0.00  0.00    +0.000 OA
BRANCH  20  26
ATOM     23  C   UNL     1      -3.838  12.599  21.907  0.00  0.00    +0.000 A 
ATOM     24  C   UNL     1      -2.778  12.283  22.764  0.00  0.00    +0.000 A 
ATOM     25  C   UNL     1      -1.485  12.098  22.269  0.00  0.00    +0.000 A 
ATOM     26  C   UNL     1      -1.250  12.201  20.903  0.00  0.00    +0.000 A 
ATOM     27  C   UNL     1      -2.293  12.512  20.026  0.00  0.00    +0.000 A 
ATOM     28  C   UNL     1      -3.583  12.707  20.532  0.00  0.00    +0.000 A 
BRANCH  23  34
ATOM     29  C   UNL     1      -7.568  15.174  23.747  0.00  0.00    +0.000 C 
ATOM     30  N   UNL     1      -6.996  13.913  23.294  0.00  0.00    +0.000 N 
ATOM     31  C   UNL     1      -7.638  12.684  23.726  0.00  0.00    +0.000 C 
ATOM     32  C   UNL     1      -5.730  13.996  22.721  0.00  0.00    +0.000 C 
ATOM     33  O   UNL     1      -5.187  15.094  22.571  0.00  0.00    +0.000 OA
ATOM     34  N   UNL     1      -5.164  12.794  22.360  0.00  0.00    +0.000 N 
ATOM     35  H   UNL     1      -5.796  12.020  22.242  0.00  0.00    +0.000 HD
ENDBRANCH  23  34
ENDBRANCH  20  26
ENDBRANCH   1  20
TORSDOF 7
ENDMDL
MODEL 6
REMARK VINA RESULT:      -7.5      2.910      9.245
REMARK  Name = 
REMARK  9 active torsions:
REMARK  status: ('A' for Active; 'I' for Inactive)
REMARK    1  A    between atoms: C_1  and  N_2
REMARK    2  A    between atoms: N_2  and  C_3
REMARK    3  A    between atoms: N_6  and  C_7
REMARK    4  A    between atoms: C_10  and  S_11
REMARK    5  A    between atoms: S_11  and  N_14
REMARK    6  A    between atoms: N_14  and  C_15
REMARK    7  A    between atoms: C_18  and  C_19
REMARK    8  A    between atoms: C_19  and  N_20
REMARK    9  A    between atoms: C_19  and  C_21
REMARK                            x       y       z     vdW  Elec       q    Type
REMARK                         _______ _______ _______ _____ _____    ______ ____
ROOT
ATOM      1  N   UNL     1       0.170  11.088  18.460  0.00  0.00    +0.000 NA
ATOM      2  H   UNL     1      -0.003  11.149  17.457  0.00  0.00    +0.000 HD
ENDROOT
BRANCH   1   3
ATOM      3  C   UNL     1       1.206  10.146  18.919  0.00  0.00    +0.000 C 
ATOM      4  C   UNL     1       0.710   9.233  20.042  0.00  0.00    +0.000 C 
ATOM      5  C   UNL     1       1.752   8.171  20.410  0.00  0.00    +0.000 C 
ATOM      6  C   UNL     1       2.158   7.325  19.188  0.00  0.00    +0.000 C 
ATOM      7  C   UNL     1       2.659   8.241  18.056  0.00  0.00    +0.000 C 
ATOM      8  C   UNL     1       1.628   9.310  17.701  0.00  0.00    +0.000 C 
BRANCH   6   9
ATOM      9  C   UNL     1       3.128   6.160  19.548  0.00  0.00    +0.000 C 
BRANCH   9  10
ATOM     10  C   UNL     1       3.488   5.209  18.367  0.00  0.00    +0.000 C 
ATOM     11  O   UNL     1       2.616   4.686  17.667  0.00  0.00    +0.000 OA
ATOM     12  N   UNL     1       4.830   5.034  18.058  0.00  0.00    +0.000 N 
ATOM     13  C   UNL     1       5.183   4.280  16.868  0.00  0.00    +0.000 C 
ATOM     14  C   UNL     1       6.678   4.385  16.596  0.00  0.00    +0.000 C 
ATOM     15  S   UNL     1       7.425   5.179  18.038  0.00  0.00    +0.000 S 
ATOM     16  C   UNL     1       5.908   5.129  19.015  0.00  0.00    +0.000 C 
ENDBRANCH   9  10
BRANCH   9  17
ATOM     17  N   UNL     1       2.588   5.384  20.691  0.00  0.00    +0.000 NA
ATOM     18  H   UNL     1       1.965   4.657  20.340  0.00  0.00    +0.000 HD
ATOM     19  H   UNL     1       2.006   6.001  21.259  0.00  0.00    +0.000 HD
ENDBRANCH   9  17
ENDBRANCH   6   9
ENDBRANCH   1   3
BRANCH   1  20
ATOM     20  S   UNL     1      -0.127  12.559  19.221  0.00  0.00    +0.000 S 
ATOM     21  O   UNL     1      -0.621  12.292  20.553  0.00  0.00    +0.000 OA
ATOM     22  O   UNL     1      -0.888  13.348  18.277  0.00  0.00    +0.000 OA
BRANCH  20  26
ATOM     23  C   UNL     1       4.057  14.386  19.515  0.00  0.00    +0.000 A 
ATOM     24  C   UNL     1       3.461  14.139  18.273  0.00  0.00    +0.000 A 
ATOM     25  C   UNL     1       2.172  13.606  18.188  0.00  0.00    +0.000 A 
ATOM     26  C   UNL     1       1.480  13.290  19.351  0.00  0.00    +0.000 A 
ATOM     27  C   UNL     1       2.056  13.523  20.604  0.00  0.00    +0.000 A 
ATOM     28  C   UNL     1       3.343  14.068  20.680  0.00  0.00    +0.000 A 
BRANCH  23  34
ATOM     29  C   UNL     1       7.593  17.692  18.815  0.00  0.00    +0.000 C 
ATOM     30  N   UNL     1       7.141  16.404  19.326  0.00  0.00    +0.000 N 
ATOM     31  C   UNL     1       8.146  15.395  19.607  0.00  0.00    +0.000 C 
ATOM     32  C   UNL     1       5.773  16.166  19.234  0.00  0.00    +0.000 C 
ATOM     33  O   UNL     1       5.018  17.040  18.796  0.00  0.00    +0.000 OA
ATOM     34  N   UNL     1       5.359  14.922  19.652  0.00  0.00    +0.000 N 
ATOM     35  H   UNL     1       5.987  14.423  20.259  0.00  0.00    +0.000 HD
ENDBRANCH  23  34
ENDBRANCH  20  26
ENDBRANCH   1  20
TORSDOF 7
ENDMDL
MODEL 7
REMARK VINA RESULT:      -7.5      2.499      3.147
REMARK  Name = 
REMARK  9 active torsions:
REMARK  status: ('A' for Active; 'I' for Inactive)
REMARK    1  A    between atoms: C_1  and  N_2
REMARK    2  A    between atoms: N_2  and  C_3
REMARK    3  A    between atoms: N_6  and  C_7
REMARK    4  A    between atoms: C_10  and  S_11
REMARK    5  A    between atoms: S_11  and  N_14
REMARK    6  A    between atoms: N_14  and  C_15
REMARK    7  A    between atoms: C_18  and  C_19
REMARK    8  A    between atoms: C_19  and  N_20
REMARK    9  A    between atoms: C_19  and  C_21
REMARK                            x       y       z     vdW  Elec       q    Type
REMARK                         _______ _______ _______ _____ _____    ______ ____
ROOT
ATOM      1  N   UNL     1       2.238   6.665  20.707  0.00  0.00    +0.000 NA
ATOM      2  H   UNL     1       3.226   6.919  20.750  0.00  0.00    +0.000 HD
ENDROOT
BRANCH   1   3
ATOM      3  C   UNL     1       1.293   7.682  20.211  0.00  0.00    +0.000 C 
ATOM      4  C   UNL     1       0.817   8.626  21.315  0.00  0.00    +0.000 C 
ATOM      5  C   UNL     1      -0.054   9.757  20.759  0.00  0.00    +0.000 C 
ATOM      6  C   UNL     1       0.683  10.557  19.667  0.00  0.00    +0.000 C 
ATOM      7  C   UNL     1       1.163   9.609  18.552  0.00  0.00    +0.000 C 
ATOM      8  C   UNL     1       2.016   8.473  19.109  0.00  0.00    +0.000 C 
BRANCH   6   9
ATOM      9  C   UNL     1      -0.128  11.786  19.160  0.00  0.00    +0.000 C 
BRANCH   9  10
ATOM     10  C   UNL     1      -1.498  11.449  18.497  0.00  0.00    +0.000 C 
ATOM     11  O   UNL     1      -1.573  10.728  17.498  0.00  0.00    +0.000 OA
ATOM     12  N   UNL     1      -2.652  11.909  19.116  0.00  0.00    +0.000 N 
ATOM     13  C   UNL     1      -3.941  11.476  18.606  0.00  0.00    +0.000 C 
ATOM     14  C   UNL     1      -5.058  11.915  19.544  0.00  0.00    +0.000 C 
ATOM     15  S   UNL     1      -4.323  13.037  20.757  0.00  0.00    +0.000 S 
ATOM     16  C   UNL     1      -2.728  13.109  19.916  0.00  0.00    +0.000 C 
ENDBRANCH   9  10
BRANCH   9  17
ATOM     17  N   UNL     1       0.704  12.601  18.242  0.00  0.00    +0.000 NA
ATOM     18  H   UNL     1       1.557  12.885  18.723  0.00  0.00    +0.000 HD
ATOM     19  H   UNL     1       0.203  13.464  18.026  0.00  0.00    +0.000 HD
ENDBRANCH   9  17
ENDBRANCH   6   9
ENDBRANCH   1   3
BRANCH   1  20
ATOM     20  S   UNL     1       2.043   5.019  20.418  0.00  0.00    +0.000 S 
ATOM     21  O   UNL     1       0.658   4.776  20.085  0.00  0.00    +0.000 OA
ATOM     22  O   UNL     1       2.685   4.343  21.524  0.00  0.00    +0.000 OA
BRANCH  20  26
ATOM     23  C   UNL     1       4.539   4.322  16.648  0.00  0.00    +0.000 A 
ATOM     24  C   UNL     1       4.275   5.616  17.111  0.00  0.00    +0.000 A 
ATOM     25  C   UNL     1       3.535   5.823  18.278  0.00  0.00    +0.000 A 
ATOM     26  C   UNL     1       3.029   4.733  18.975  0.00  0.00    +0.000 A 
ATOM     27  C   UNL     1       3.275   3.430  18.530  0.00  0.00    +0.000 A 
ATOM     28  C   UNL     1       4.027   3.231  17.366  0.00  0.00    +0.000 A 
BRANCH  23  34
ATOM     29  C   UNL     1       7.894   5.262  13.214  0.00  0.00    +0.000 C 
ATOM     30  N   UNL     1       6.811   4.442  13.741  0.00  0.00    +0.000 N 
ATOM     31  C   UNL     1       6.127   3.550  12.822  0.00  0.00    +0.000 C 
ATOM     32  C   UNL     1       6.350   4.792  15.007  0.00  0.00    +0.000 C 
ATOM     33  O   UNL     1       6.892   5.707  15.634  0.00  0.00    +0.000 OA
ATOM     34  N   UNL     1       5.281   4.061  15.472  0.00  0.00    +0.000 N 
ATOM     35  H   UNL     1       5.125   3.169  15.032  0.00  0.00    +0.000 HD
ENDBRANCH  23  34
ENDBRANCH  20  26
ENDBRANCH   1  20
TORSDOF 7
ENDMDL
MODEL 8
REMARK VINA RESULT:      -7.4      3.164      5.939
REMARK  Name = 
REMARK  9 active torsions:
REMARK  status: ('A' for Active; 'I' for Inactive)
REMARK    1  A    between atoms: C_1  and  N_2
REMARK    2  A    between atoms: N_2  and  C_3
REMARK    3  A    between atoms: N_6  and  C_7
REMARK    4  A    between atoms: C_10  and  S_11
REMARK    5  A    between atoms: S_11  and  N_14
REMARK    6  A    between atoms: N_14  and  C_15
REMARK    7  A    between atoms: C_18  and  C_19
REMARK    8  A    between atoms: C_19  and  N_20
REMARK    9  A    between atoms: C_19  and  C_21
REMARK                            x       y       z     vdW  Elec       q    Type
REMARK                         _______ _______ _______ _____ _____    ______ ____
ROOT
ATOM      1  N   UNL     1       1.281  11.898  20.694  0.00  0.00    +0.000 NA
ATOM      2  H   UNL     1       2.030  11.388  21.163  0.00  0.00    +0.000 HD
ENDROOT
BRANCH   1   3
ATOM      3  C   UNL     1       1.628  13.176  20.046  0.00  0.00    +0.000 C 
ATOM      4  C   UNL     1       2.441  14.093  20.961  0.00  0.00    +0.000 C 
ATOM      5  C   UNL     1       2.909  15.355  20.229  0.00  0.00    +0.000 C 
ATOM      6  C   UNL     1       3.728  15.010  18.970  0.00  0.00    +0.000 C 
ATOM      7  C   UNL     1       2.912  14.088  18.046  0.00  0.00    +0.000 C 
ATOM      8  C   UNL     1       2.431  12.839  18.780  0.00  0.00    +0.000 C 
BRANCH   6   9
ATOM      9  C   UNL     1       4.319  16.267  18.264  0.00  0.00    +0.000 C 
BRANCH   9  10
ATOM     10  C   UNL     1       5.577  16.882  18.950  0.00  0.00    +0.000 C 
ATOM     11  O   UNL     1       5.515  17.934  19.593  0.00  0.00    +0.000 OA
ATOM     12  N   UNL     1       6.764  16.164  18.896  0.00  0.00    +0.000 N 
ATOM     13  C   UNL     1       7.905  16.639  19.658  0.00  0.00    +0.000 C 
ATOM     14  C   UNL     1       9.026  15.608  19.634  0.00  0.00    +0.000 C 
ATOM     15  S   UNL     1       8.560  14.345  18.427  0.00  0.00    +0.000 S 
ATOM     16  C   UNL     1       7.125  15.261  17.828  0.00  0.00    +0.000 C 
ENDBRANCH   9  10
BRANCH   9  17
ATOM     17  N   UNL     1       3.266  17.298  18.096  0.00  0.00    +0.000 NA
ATOM     18  H   UNL     1       3.654  18.215  18.316  0.00  0.00    +0.000 HD
ATOM     19  H   UNL     1       2.532  17.132  18.787  0.00  0.00    +0.000 HD
ENDBRANCH   9  17
ENDBRANCH   6   9
ENDBRANCH   1   3
BRANCH   1  20
ATOM     20  S   UNL     1       0.120  10.848  20.077  0.00  0.00    +0.000 S 
ATOM     21  O   UNL     1      -0.374  11.394  18.834  0.00  0.00    +0.000 OA
ATOM     22  O   UNL     1      -0.769  10.549  21.178  0.00  0.00    +0.000 OA
BRANCH  20  26
ATOM     23  C   UNL     1       2.444   7.030  19.100  0.00  0.00    +0.000 A 
ATOM     24  C   UNL     1       2.245   8.023  18.134  0.00  0.00    +0.000 A 
ATOM     25  C   UNL     1       1.558   9.199  18.445  0.00  0.00    +0.000 A 
ATOM     26  C   UNL     1       1.040   9.377  19.722  0.00  0.00    +0.000 A 
ATOM     27  C   UNL     1       1.221   8.398  20.703  0.00  0.00    +0.000 A 
ATOM     28  C   UNL     1       1.921   7.227  20.387  0.00  0.00    +0.000 A 
BRANCH  23  34
ATOM     29  C   UNL     1       2.826   2.348  17.736  0.00  0.00    +0.000 C 
ATOM     30  N   UNL     1       3.419   3.570  18.263  0.00  0.00    +0.000 N 
ATOM     31  C   UNL     1       4.676   3.458  18.983  0.00  0.00    +0.000 C 
ATOM     32  C   UNL     1       2.590   4.688  18.270  0.00  0.00    +0.000 C 
ATOM     33  O   UNL     1       1.453   4.621  17.796  0.00  0.00    +0.000 OA
ATOM     34  N   UNL     1       3.130   5.822  18.834  0.00  0.00    +0.000 N 
ATOM     35  H   UNL     1       4.134   5.853  18.902  0.00  0.00    +0.000 HD
ENDBRANCH  23  34
ENDBRANCH  20  26
ENDBRANCH   1  20
TORSDOF 7
ENDMDL
MODEL 9
REMARK VINA RESULT:      -7.4      2.862      9.176
REMARK  Name = 
REMARK  9 active torsions:
REMARK  status: ('A' for Active; 'I' for Inactive)
REMARK    1  A    between atoms: C_1  and  N_2
REMARK    2  A    between atoms: N_2  and  C_3
REMARK    3  A    between atoms: N_6  and  C_7
REMARK    4  A    between atoms: C_10  and  S_11
REMARK    5  A    between atoms: S_11  and  N_14
REMARK    6  A    between atoms: N_14  and  C_15
REMARK    7  A    between atoms: C_18  and  C_19
REMARK    8  A    between atoms: C_19  and  N_20
REMARK    9  A    between atoms: C_19  and  C_21
REMARK                            x       y       z     vdW  Elec       q    Type
REMARK                         _______ _______ _______ _____ _____    ______ ____
ROOT
ATOM      1  N   UNL     1       0.307  10.823  18.659  0.00  0.00    +0.000 NA
ATOM      2  H   UNL     1       0.206  11.007  17.660  0.00  0.00    +0.000 HD
ENDROOT
BRANCH   1   3
ATOM      3  C   UNL     1       1.317   9.832  19.072  0.00  0.00    +0.000 C 
ATOM      4  C   UNL     1       0.805   8.897  20.169  0.00  0.00    +0.000 C 
ATOM      5  C   UNL     1       1.816   7.791  20.489  0.00  0.00    +0.000 C 
ATOM      6  C   UNL     1       2.182   6.976  19.233  0.00  0.00    +0.000 C 
ATOM      7  C   UNL     1       2.699   7.914  18.127  0.00  0.00    +0.000 C 
ATOM      8  C   UNL     1       1.700   9.027  17.821  0.00  0.00    +0.000 C 
BRANCH   6   9
ATOM      9  C   UNL     1       3.118   5.769  19.541  0.00  0.00    +0.000 C 
BRANCH   9  10
ATOM     10  C   UNL     1       3.362   4.798  18.347  0.00  0.00    +0.000 C 
ATOM     11  O   UNL     1       2.434   4.182  17.814  0.00  0.00    +0.000 OA
ATOM     12  N   UNL     1       4.647   4.709  17.831  0.00  0.00    +0.000 N 
ATOM     13  C   UNL     1       4.866   3.933  16.623  0.00  0.00    +0.000 C 
ATOM     14  C   UNL     1       6.286   4.137  16.110  0.00  0.00    +0.000 C 
ATOM     15  S   UNL     1       7.187   5.045  17.388  0.00  0.00    +0.000 S 
ATOM     16  C   UNL     1       5.852   4.925  18.598  0.00  0.00    +0.000 C 
ENDBRANCH   9  10
BRANCH   9  17
ATOM     17  N   UNL     1       2.615   5.023  20.720  0.00  0.00    +0.000 NA
ATOM     18  H   UNL     1       2.004   5.630  21.267  0.00  0.00    +0.000 HD
ATOM     19  H   UNL     1       3.405   4.800  21.327  0.00  0.00    +0.000 HD
ENDBRANCH   9  17
ENDBRANCH   6   9
ENDBRANCH   1   3
BRANCH   1  20
ATOM     20  S   UNL     1      -0.060  12.188  19.571  0.00  0.00    +0.000 S 
ATOM     21  O   UNL     1      -0.209  11.787  20.952  0.00  0.00    +0.000 OA
ATOM     22  O   UNL     1      -1.123  12.866  18.861  0.00  0.00    +0.000 OA
BRANCH  20  26
ATOM     23  C   UNL     1       3.670  14.816  19.253  0.00  0.00    +0.000 A 
ATOM     24  C   UNL     1       3.265  14.282  20.481  0.00  0.00    +0.000 A 
ATOM     25  C   UNL     1       2.140  13.458  20.569  0.00  0.00    +0.000 A 
ATOM     26  C   UNL     1       1.396  13.185  19.428  0.00  0.00    +0.000 A 
ATOM     27  C   UNL     1       1.778  13.711  18.190  0.00  0.00    +0.000 A 
ATOM     28  C   UNL     1       2.913  14.526  18.108  0.00  0.00    +0.000 A 
BRANCH  23  34
ATOM     29  C   UNL     1       8.232  15.932  17.884  0.00  0.00    +0.000 C 
ATOM     30  N   UNL     1       6.989  16.277  18.561  0.00  0.00    +0.000 N 
ATOM     31  C   UNL     1       7.023  17.353  19.535  0.00  0.00    +0.000 C 
ATOM     32  C   UNL     1       5.949  15.363  18.414  0.00  0.00    +0.000 C 
ATOM     33  O   UNL     1       6.094  14.367  17.700  0.00  0.00    +0.000 OA
ATOM     34  N   UNL     1       4.799  15.657  19.113  0.00  0.00    +0.000 N 
ATOM     35  H   UNL     1       4.684  16.614  19.400  0.00  0.00    +0.000 HD
ENDBRANCH  23  34
ENDBRANCH  20  26
ENDBRANCH   1  20
TORSDOF 7
ENDMDL
