MODEL 1
REMARK VINA RESULT:      -8.6      0.000      0.000
REMARK  Name = 
REMARK  10 active torsions:
REMARK  status: ('A' for Active; 'I' for Inactive)
REMARK    1  A    between atoms: C_1  and  C_2
REMARK    2  A    between atoms: C_2  and  C_3
REMARK    3  A    between atoms: C_10  and  S_11
REMARK    4  A    between atoms: S_11  and  N_14
REMARK    5  A    between atoms: N_14  and  C_15
REMARK    6  A    between atoms: C_15  and  C_16
REMARK    7  A    between atoms: C_15  and  C_23
REMARK    8  A    between atoms: C_16  and  C_17
REMARK    9  A    between atoms: N_25  and  C_26
REMARK   10  A    between atoms: C_31  and  C_32
REMARK                            x       y       z     vdW  Elec       q    Type
REMARK                         _______ _______ _______ _____ _____    ______ ____
ROOT
ATOM      1  C   UNL     1      -0.431  11.556  19.070  0.00  0.00    +0.000 C 
ENDROOT
BRANCH   1   2
ATOM      2  C   UNL     1      -1.059  12.861  19.641  0.00  0.00    +0.000 C 
ATOM      3  O   UNL     1      -0.767  13.968  19.185  0.00  0.00    +0.000 OA
ATOM      4  N   UNL     1      -1.998  12.687  20.639  0.00  0.00    +0.000 N 
ATOM      5  H   UNL     1      -2.349  11.763  20.832  0.00  0.00    +0.000 HD
BRANCH   4   6
ATOM      6  C   UNL     1      -2.692  13.824  21.265  0.00  0.00    +0.000 C 
ATOM      7  C   UNL     1      -4.141  13.916  20.762  0.00  0.00    +0.000 C 
ATOM      8  C   UNL     1      -5.028  12.803  21.319  0.00  0.00    +0.000 C 
ATOM      9  C   UNL     1      -4.983  12.752  22.843  0.00  0.00    +0.000 C 
ATOM     10  C   UNL     1      -3.553  12.635  23.364  0.00  0.00    +0.000 C 
ATOM     11  C   UNL     1      -2.658  13.755  22.810  0.00  0.00    +0.000 C 
ATOM     12  C   UNL     1      -1.235  13.631  23.356  0.00  0.00    +0.000 C 
ENDBRANCH   4   6
ENDBRANCH   1   2
BRANCH   1  13
ATOM     13  N   UNL     1       0.768  11.228  19.888  0.00  0.00    +0.000 NA
ATOM     14  H   UNL     1       1.649  11.271  19.361  0.00  0.00    +0.000 HD
BRANCH  13  15
ATOM     15  S   UNL     1       0.732   9.971  20.977  0.00  0.00    +0.000 S 
ATOM     16  O   UNL     1      -0.674   9.759  21.282  0.00  0.00    +0.000 OA
ATOM     17  O   UNL     1       1.677  10.264  22.028  0.00  0.00    +0.000 OA
BRANCH  15  25
ATOM     18  C   UNL     1       4.392   4.978  17.642  0.00  0.00    +0.000 C 
ATOM     19  O   UNL     1       4.919   3.863  17.559  0.00  0.00    +0.000 OA
ATOM     20  N   UNL     1       3.526   5.279  18.676  0.00  0.00    +0.000 N 
ATOM     21  C   UNL     1       3.364   4.319  19.781  0.00  0.00    +0.000 C 
ATOM     22  C   UNL     1       2.342   4.901  20.761  0.00  0.00    +0.000 C 
ATOM     23  C   UNL     1       2.095   6.263  20.186  0.00  0.00    +0.000 A 
ATOM     24  C   UNL     1       1.344   7.286  20.760  0.00  0.00    +0.000 A 
ATOM     25  C   UNL     1       1.292   8.518  20.102  0.00  0.00    +0.000 A 
ATOM     26  C   UNL     1       1.927   8.683  18.867  0.00  0.00    +0.000 A 
ATOM     27  C   UNL     1       2.649   7.628  18.284  0.00  0.00    +0.000 A 
ATOM     28  C   UNL     1       2.770   6.432  18.971  0.00  0.00    +0.000 A 
BRANCH  18  30
ATOM     29  C   UNL     1       5.482   5.545  15.418  0.00  0.00    +0.000 C 
ATOM     30  C   UNL     1       4.709   6.055  16.622  0.00  0.00    +0.000 C 
ENDBRANCH  18  30
ENDBRANCH  15  25
ENDBRANCH  13  15
ENDBRANCH   1  13
BRANCH   1  31
ATOM     31  C   UNL     1      -1.438  10.394  18.999  0.00  0.00    +0.000 C 
BRANCH  31  32
ATOM     32  C   UNL     1      -2.422  10.411  17.848  0.00  0.00    +0.000 A 
ATOM     33  C   UNL     1      -2.031   9.865  16.617  0.00  0.00    +0.000 A 
ATOM     34  C   UNL     1      -2.771  10.132  15.466  0.00  0.00    +0.000 A 
ATOM     35  C   UNL     1      -3.927  10.907  15.540  0.00  0.00    +0.000 A 
ATOM     36  C   UNL     1      -4.398  11.325  16.778  0.00  0.00    +0.000 A 
ATOM     37  C   UNL     1      -3.667  11.046  17.927  0.00  0.00    +0.000 A 
ENDBRANCH  31  32
ENDBRANCH   1  31
TORSDOF 8
ENDMDL
MODEL 2
REMARK VINA RESULT:      -8.5      2.297     10.005
REMARK  Name = 
REMARK  10 active torsions:
REMARK  status: ('A' for Active; 'I' for Inactive)
REMARK    1  A    between atoms: C_1  and  C_2
REMARK    2  A    between atoms: C_2  and  C_3
REMARK    3  A    between atoms: C_10  and  S_11
REMARK    4  A    between atoms: S_11  and  N_14
REMARK    5  A    between atoms: N_14  and  C_15
REMARK    6  A    between atoms: C_15  and  C_16
REMARK    7  A    between atoms: C_15  and  C_23
REMARK    8  A    between atoms: C_16  and  C_17
REMARK    9  A    between atoms: N_25  and  C_26
REMARK   10  A    between atoms: C_31  and  C_32
REMARK                            x       y       z     vdW  Elec       q    Type
REMARK                         _______ _______ _______ _____ _____    ______ ____
ROOT
ATOM      1  C   UNL     1       2.532   7.178  18.276  0.00  0.00    +0.000 C 
ENDROOT
BRANCH   1   2
ATOM      2  C   UNL     1       3.786   7.377  17.377  0.00  0.00    +0.000 C 
ATOM      3  O   UNL     1       3.820   8.245  16.503  0.00  0.00    +0.000 OA
ATOM      4  N   UNL     1       4.864   6.562  17.663  0.00  0.00    +0.000 N 
ATOM      5  H   UNL     1       4.861   6.017  18.509  0.00  0.00    +0.000 HD
BRANCH   4   6
ATOM      6  C   UNL     1       6.127   6.644  16.911  0.00  0.00    +0.000 C 
ATOM      7  C   UNL     1       7.288   7.021  17.844  0.00  0.00    +0.000 C 
ATOM      8  C   UNL     1       7.682   5.880  18.782  0.00  0.00    +0.000 C 
ATOM      9  C   UNL     1       7.994   4.599  18.015  0.00  0.00    +0.000 C 
ATOM     10  C   UNL     1       6.842   4.192  17.100  0.00  0.00    +0.000 C 
ATOM     11  C   UNL     1       6.445   5.334  16.152  0.00  0.00    +0.000 C 
ATOM     12  C   UNL     1       5.303   4.903  15.231  0.00  0.00    +0.000 C 
ENDBRANCH   4   6
ENDBRANCH   1   2
BRANCH   1  13
ATOM     13  N   UNL     1       1.518   8.191  17.879  0.00  0.00    +0.000 NA
ATOM     14  H   UNL     1       1.506   8.389  16.871  0.00  0.00    +0.000 HD
BRANCH  13  15
ATOM     15  S   UNL     1       1.276   9.555  18.802  0.00  0.00    +0.000 S 
ATOM     16  O   UNL     1       1.966  10.627  18.100  0.00  0.00    +0.000 OA
ATOM     17  O   UNL     1       1.611   9.235  20.169  0.00  0.00    +0.000 OA
BRANCH  15  25
ATOM     18  C   UNL     1      -5.072  12.568  18.529  0.00  0.00    +0.000 C 
ATOM     19  O   UNL     1      -6.111  12.906  17.951  0.00  0.00    +0.000 OA
ATOM     20  N   UNL     1      -4.184  11.690  17.938  0.00  0.00    +0.000 N 
ATOM     21  C   UNL     1      -4.396  11.287  16.537  0.00  0.00    +0.000 C 
ATOM     22  C   UNL     1      -3.284  10.306  16.158  0.00  0.00    +0.000 C 
ATOM     23  C   UNL     1      -2.411  10.335  17.377  0.00  0.00    +0.000 A 
ATOM     24  C   UNL     1      -1.168   9.724  17.525  0.00  0.00    +0.000 A 
ATOM     25  C   UNL     1      -0.469   9.928  18.718  0.00  0.00    +0.000 A 
ATOM     26  C   UNL     1      -1.045  10.673  19.752  0.00  0.00    +0.000 A 
ATOM     27  C   UNL     1      -2.317  11.250  19.600  0.00  0.00    +0.000 A 
ATOM     28  C   UNL     1      -2.978  11.117  18.390  0.00  0.00    +0.000 A 
BRANCH  18  30
ATOM     29  C   UNL     1      -5.624  12.617  21.009  0.00  0.00    +0.000 C 
ATOM     30  C   UNL     1      -4.732  13.137  19.894  0.00  0.00    +0.000 C 
ENDBRANCH  18  30
ENDBRANCH  15  25
ENDBRANCH  13  15
ENDBRANCH   1  13
BRANCH   1  31
ATOM     31  C   UNL     1       1.987   5.740  18.225  0.00  0.00    +0.000 C 
BRANCH  31  32
ATOM     32  C   UNL     1       2.407   4.809  19.343  0.00  0.00    +0.000 A 
ATOM     33  C   UNL     1       3.441   3.892  19.107  0.00  0.00    +0.000 A 
ATOM     34  C   UNL     1       3.648   2.828  19.983  0.00  0.00    +0.000 A 
ATOM     35  C   UNL     1       2.855   2.694  21.121  0.00  0.00    +0.000 A 
ATOM     36  C   UNL     1       1.929   3.680  21.437  0.00  0.00    +0.000 A 
ATOM     37  C   UNL     1       1.734   4.749  20.570  0.00  0.00    +0.000 A 
ENDBRANCH  31  32
ENDBRANCH   1  31
TORSDOF 8
ENDMDL
MODEL 3
REMARK VINA RESULT:      -8.5      2.553      9.934
REMARK  Name = 
REMARK  10 active torsions:
REMARK  status: ('A' for Active; 'I' for Inactive)
REMARK    1  A    between atoms: C_1  and  C_2
REMARK    2  A    between atoms: C_2  and  C_3
REMARK    3  A    between atoms: C_10  and  S_11
REMARK    4  A    between atoms: S_11  and  N_14
REMARK    5  A    between atoms: N_14  and  C_15
REMARK    6  A    between atoms: C_15  and  C_16
REMARK    7  A    between atoms: C_15  and  C_23
REMARK    8  A    between atoms: C_16  and  C_17
REMARK    9  A    between atoms: N_25  and  C_26
REMARK   10  A    between atoms: C_31  and  C_32
REMARK                            x       y       z     vdW  Elec       q    Type
REMARK                         _______ _______ _______ _____ _____    ______ ____
ROOT
ATOM      1  C   UNL     1       2.692   7.506  17.963  0.00  0.00    +0.000 C 
ENDROOT
BRANCH   1   2
ATOM      2  C   UNL     1       3.926   7.345  17.028  0.00  0.00    +0.000 C 
ATOM      3  O   UNL     1       3.874   7.655  15.835  0.00  0.00    +0.000 OA
ATOM      4  N   UNL     1       5.083   6.895  17.633  0.00  0.00    +0.000 N 
ATOM      5  H   UNL     1       5.131   6.852  18.638  0.00  0.00    +0.000 HD
BRANCH   4   6
ATOM      6  C   UNL     1       6.336   6.710  16.884  0.00  0.00    +0.000 C 
ATOM      7  C   UNL     1       7.533   7.232  17.694  0.00  0.00    +0.000 C 
ATOM      8  C   UNL     1       7.872   6.336  18.885  0.00  0.00    +0.000 C 
ATOM      9  C   UNL     1       8.094   4.888  18.459  0.00  0.00    +0.000 C 
ATOM     10  C   UNL     1       6.905   4.341  17.673  0.00  0.00    +0.000 C 
ATOM     11  C   UNL     1       6.562   5.236  16.472  0.00  0.00    +0.000 C 
ATOM     12  C   UNL     1       5.381   4.663  15.687  0.00  0.00    +0.000 C 
ENDBRANCH   4   6
ENDBRANCH   1   2
BRANCH   1  13
ATOM     13  N   UNL     1       2.016   8.784  17.615  0.00  0.00    +0.000 NA
ATOM     14  H   UNL     1       2.478   9.300  16.856  0.00  0.00    +0.000 HD
BRANCH  13  15
ATOM     15  S   UNL     1       1.431   9.785  18.808  0.00  0.00    +0.000 S 
ATOM     16  O   UNL     1       2.029  11.087  18.552  0.00  0.00    +0.000 OA
ATOM     17  O   UNL     1       1.621   9.125  20.078  0.00  0.00    +0.000 OA
BRANCH  15  25
ATOM     18  C   UNL     1      -5.141  12.068  17.782  0.00  0.00    +0.000 C 
ATOM     19  O   UNL     1      -6.135  12.294  17.084  0.00  0.00    +0.000 OA
ATOM     20  N   UNL     1      -4.095  11.303  17.300  0.00  0.00    +0.000 N 
ATOM     21  C   UNL     1      -4.092  10.898  15.884  0.00  0.00    +0.000 C 
ATOM     22  C   UNL     1      -2.839  10.055  15.640  0.00  0.00    +0.000 C 
ATOM     23  C   UNL     1      -2.125  10.164  16.954  0.00  0.00    +0.000 A 
ATOM     24  C   UNL     1      -0.847   9.695  17.250  0.00  0.00    +0.000 A 
ATOM     25  C   UNL     1      -0.322   9.960  18.517  0.00  0.00    +0.000 A 
ATOM     26  C   UNL     1      -1.098  10.621  19.475  0.00  0.00    +0.000 A 
ATOM     27  C   UNL     1      -2.400  11.053  19.173  0.00  0.00    +0.000 A 
ATOM     28  C   UNL     1      -2.893  10.863  17.893  0.00  0.00    +0.000 A 
BRANCH  18  30
ATOM     29  C   UNL     1      -6.370  12.802  19.881  0.00  0.00    +0.000 C 
ATOM     30  C   UNL     1      -5.032  12.651  19.178  0.00  0.00    +0.000 C 
ENDBRANCH  18  30
ENDBRANCH  15  25
ENDBRANCH  13  15
ENDBRANCH   1  13
BRANCH   1  31
ATOM     31  C   UNL     1       1.743   6.296  17.904  0.00  0.00    +0.000 C 
BRANCH  31  32
ATOM     32  C   UNL     1       2.319   4.954  18.307  0.00  0.00    +0.000 A 
ATOM     33  C   UNL     1       3.034   4.859  19.509  0.00  0.00    +0.000 A 
ATOM     34  C   UNL     1       3.831   3.744  19.764  0.00  0.00    +0.000 A 
ATOM     35  C   UNL     1       3.888   2.699  18.844  0.00  0.00    +0.000 A 
ATOM     36  C   UNL     1       3.068   2.721  17.723  0.00  0.00    +0.000 A 
ATOM     37  C   UNL     1       2.263   3.827  17.477  0.00  0.00    +0.000 A 
ENDBRANCH  31  32
ENDBRANCH   1  31
TORSDOF 8
ENDMDL
MODEL 4
REMARK VINA RESULT:      -8.4      2.710      4.446
REMARK  Name = 
REMARK  10 active torsions:
REMARK  status: ('A' for Active; 'I' for Inactive)
REMARK    1  A    between atoms: C_1  and  C_2
REMARK    2  A    between atoms: C_2  and  C_3
REMARK    3  A    between atoms: C_10  and  S_11
REMARK    4  A    between atoms: S_11  and  N_14
REMARK    5  A    between atoms: N_14  and  C_15
REMARK    6  A    between atoms: C_15  and  C_16
REMARK    7  A    between atoms: C_15  and  C_23
REMARK    8  A    between atoms: C_16  and  C_17
REMARK    9  A    between atoms: N_25  and  C_26
REMARK   10  A    between atoms: C_31  and  C_32
REMARK                            x       y       z     vdW  Elec       q    Type
REMARK                         _______ _______ _______ _____ _____    ______ ____
ROOT
ATOM      1  C   UNL     1       0.081  11.356  19.337  0.00  0.00    +0.000 C 
ENDROOT
BRANCH   1   2
ATOM      2  C   UNL     1       0.853  12.457  20.122  0.00  0.00    +0.000 C 
ATOM      3  O   UNL     1       1.134  12.318  21.314  0.00  0.00    +0.000 OA
ATOM      4  N   UNL     1       1.244  13.556  19.384  0.00  0.00    +0.000 N 
ATOM      5  H   UNL     1       1.171  13.530  18.380  0.00  0.00    +0.000 HD
BRANCH   4   6
ATOM      6  C   UNL     1       1.997  14.671  19.982  0.00  0.00    +0.000 C 
ATOM      7  C   UNL     1       3.506  14.387  19.943  0.00  0.00    +0.000 C 
ATOM      8  C   UNL     1       4.086  14.483  18.531  0.00  0.00    +0.000 C 
ATOM      9  C   UNL     1       3.767  15.825  17.879  0.00  0.00    +0.000 C 
ATOM     10  C   UNL     1       2.269  16.116  17.886  0.00  0.00    +0.000 C 
ATOM     11  C   UNL     1       1.682  16.024  19.303  0.00  0.00    +0.000 C 
ATOM     12  C   UNL     1       0.185  16.336  19.292  0.00  0.00    +0.000 C 
ENDBRANCH   4   6
ENDBRANCH   1   2
BRANCH   1  13
ATOM     13  N   UNL     1       0.867  10.097  19.420  0.00  0.00    +0.000 NA
ATOM     14  H   UNL     1       1.485  10.051  20.240  0.00  0.00    +0.000 HD
BRANCH  13  15
ATOM     15  S   UNL     1       1.560   9.438  18.058  0.00  0.00    +0.000 S 
ATOM     16  O   UNL     1       2.554  10.406  17.620  0.00  0.00    +0.000 OA
ATOM     17  O   UNL     1       0.497   9.022  17.173  0.00  0.00    +0.000 OA
BRANCH  15  25
ATOM     18  C   UNL     1       3.627   3.008  20.015  0.00  0.00    +0.000 C 
ATOM     19  O   UNL     1       4.207   1.932  19.836  0.00  0.00    +0.000 OA
ATOM     20  N   UNL     1       3.819   4.070  19.152  0.00  0.00    +0.000 N 
ATOM     21  C   UNL     1       4.588   3.861  17.914  0.00  0.00    +0.000 C 
ATOM     22  C   UNL     1       4.654   5.198  17.171  0.00  0.00    +0.000 C 
ATOM     23  C   UNL     1       3.765   6.067  18.009  0.00  0.00    +0.000 A 
ATOM     24  C   UNL     1       3.351   7.364  17.715  0.00  0.00    +0.000 A 
ATOM     25  C   UNL     1       2.456   7.987  18.588  0.00  0.00    +0.000 A 
ATOM     26  C   UNL     1       2.048   7.337  19.757  0.00  0.00    +0.000 A 
ATOM     27  C   UNL     1       2.505   6.044  20.058  0.00  0.00    +0.000 A 
ATOM     28  C   UNL     1       3.328   5.392  19.155  0.00  0.00    +0.000 A 
BRANCH  18  30
ATOM     29  C   UNL     1       1.239   2.768  20.848  0.00  0.00    +0.000 C 
ATOM     30  C   UNL     1       2.664   3.179  21.175  0.00  0.00    +0.000 C 
ENDBRANCH  18  30
ENDBRANCH  15  25
ENDBRANCH  13  15
ENDBRANCH   1  13
BRANCH   1  31
ATOM     31  C   UNL     1      -1.369  11.186  19.826  0.00  0.00    +0.000 C 
BRANCH  31  32
ATOM     32  C   UNL     1      -2.428  10.978  18.764  0.00  0.00    +0.000 A 
ATOM     33  C   UNL     1      -2.227   9.987  17.793  0.00  0.00    +0.000 A 
ATOM     34  C   UNL     1      -3.009   9.969  16.638  0.00  0.00    +0.000 A 
ATOM     35  C   UNL     1      -4.022  10.910  16.463  0.00  0.00    +0.000 A 
ATOM     36  C   UNL     1      -4.321  11.799  17.487  0.00  0.00    +0.000 A 
ATOM     37  C   UNL     1      -3.551  11.807  18.644  0.00  0.00    +0.000 A 
ENDBRANCH  31  32
ENDBRANCH   1  31
TORSDOF 8
ENDMDL
MODEL 5
REMARK VINA RESULT:      -8.4      1.963      3.017
REMARK  Name = 
REMARK  10 active torsions:
REMARK  status: ('A' for Active; 'I' for Inactive)
REMARK    1  A    between atoms: C_1  and  C_2
REMARK    2  A    between atoms: C_2  and  C_3
REMARK    3  A    between atoms: C_10  and  S_11
REMARK    4  A    between atoms: S_11  and  N_14
REMARK    5  A    between atoms: N_14  and  C_15
REMARK    6  A    between atoms: C_15  and  C_16
REMARK    7  A    between atoms: C_15  and  C_23
REMARK    8  A    between atoms: C_16  and  C_17
REMARK    9  A    between atoms: N_25  and  C_26
REMARK   10  A    between atoms: C_31  and  C_32
REMARK                            x       y       z     vdW  Elec       q    Type
REMARK                         _______ _______ _______ _____ _____    ______ ____
ROOT
ATOM      1  C   UNL     1       0.575  11.173  20.079  0.00  0.00    +0.000 C 
ENDROOT
BRANCH   1   2
ATOM      2  C   UNL     1       0.492  12.518  20.858  0.00  0.00    +0.000 C 
ATOM      3  O   UNL     1       0.231  12.549  22.062  0.00  0.00    +0.000 OA
ATOM      4  N   UNL     1       0.787  13.653  20.127  0.00  0.00    +0.000 N 
ATOM      5  H   UNL     1       1.190  13.559  19.210  0.00  0.00    +0.000 HD
BRANCH   4   6
ATOM      6  C   UNL     1       0.768  14.995  20.729  0.00  0.00    +0.000 C 
ATOM      7  C   UNL     1       2.054  15.762  20.382  0.00  0.00    +0.000 C 
ATOM      8  C   UNL     1       2.104  16.194  18.917  0.00  0.00    +0.000 C 
ATOM      9  C   UNL     1       0.868  16.998  18.523  0.00  0.00    +0.000 C 
ATOM     10  C   UNL     1      -0.422  16.245  18.836  0.00  0.00    +0.000 C 
ATOM     11  C   UNL     1      -0.478  15.811  20.309  0.00  0.00    +0.000 C 
ATOM     12  C   UNL     1      -1.784  15.074  20.608  0.00  0.00    +0.000 C 
ENDBRANCH   4   6
ENDBRANCH   1   2
BRANCH   1  13
ATOM     13  N   UNL     1      -0.243  10.169  20.811  0.00  0.00    +0.000 NA
ATOM     14  H   UNL     1      -1.083  10.564  21.249  0.00  0.00    +0.000 HD
BRANCH  13  15
ATOM     15  S   UNL     1       0.486   9.006  21.752  0.00  0.00    +0.000 S 
ATOM     16  O   UNL     1      -0.594   8.368  22.489  0.00  0.00    +0.000 OA
ATOM     17  O   UNL     1       1.589   9.623  22.449  0.00  0.00    +0.000 OA
BRANCH  15  25
ATOM     18  C   UNL     1       4.470   4.937  17.626  0.00  0.00    +0.000 C 
ATOM     19  O   UNL     1       5.062   3.889  17.349  0.00  0.00    +0.000 OA
ATOM     20  N   UNL     1       3.577   4.991  18.679  0.00  0.00    +0.000 N 
ATOM     21  C   UNL     1       3.459   3.834  19.582  0.00  0.00    +0.000 C 
ATOM     22  C   UNL     1       2.395   4.164  20.631  0.00  0.00    +0.000 C 
ATOM     23  C   UNL     1       2.074   5.594  20.314  0.00  0.00    +0.000 A 
ATOM     24  C   UNL     1       1.257   6.448  21.053  0.00  0.00    +0.000 A 
ATOM     25  C   UNL     1       1.140   7.776  20.634  0.00  0.00    +0.000 A 
ATOM     26  C   UNL     1       1.778   8.204  19.466  0.00  0.00    +0.000 A 
ATOM     27  C   UNL     1       2.566   7.319  18.712  0.00  0.00    +0.000 A 
ATOM     28  C   UNL     1       2.750   6.025  19.167  0.00  0.00    +0.000 A 
BRANCH  18  30
ATOM     29  C   UNL     1       5.392   5.950  15.485  0.00  0.00    +0.000 C 
ATOM     30  C   UNL     1       4.733   6.202  16.831  0.00  0.00    +0.000 C 
ENDBRANCH  18  30
ENDBRANCH  15  25
ENDBRANCH  13  15
ENDBRANCH   1  13
BRANCH   1  31
ATOM     31  C   UNL     1       0.161  11.316  18.604  0.00  0.00    +0.000 C 
BRANCH  31  32
ATOM     32  C   UNL     1      -1.274  10.976  18.260  0.00  0.00    +0.000 A 
ATOM     33  C   UNL     1      -1.526   9.901  17.396  0.00  0.00    +0.000 A 
ATOM     34  C   UNL     1      -2.785   9.749  16.816  0.00  0.00    +0.000 A 
ATOM     35  C   UNL     1      -3.811  10.639  17.126  0.00  0.00    +0.000 A 
ATOM     36  C   UNL     1      -3.609  11.615  18.094  0.00  0.00    +0.000 A 
ATOM     37  C   UNL     1      -2.358  11.757  18.682  0.00  0.00    +0.000 A 
ENDBRANCH  31  32
ENDBRANCH   1  31
TORSDOF 8
ENDMDL
MODEL 6
REMARK VINA RESULT:      -8.4      1.384      2.222
REMARK  Name = 
REMARK  10 active torsions:
REMARK  status: ('A' for Active; 'I' for Inactive)
REMARK    1  A    between atoms: C_1  and  C_2
REMARK    2  A    between atoms: C_2  and  C_3
REMARK    3  A    between atoms: C_10  and  S_11
REMARK    4  A    between atoms: S_11  and  N_14
REMARK    5  A    between atoms: N_14  and  C_15
REMARK    6  A    between atoms: C_15  and  C_16
REMARK    7  A    between atoms: C_15  and  C_23
REMARK    8  A    between atoms: C_16  and  C_17
REMARK    9  A    between atoms: N_25  and  C_26
REMARK   10  A    between atoms: C_31  and  C_32
REMARK                            x       y       z     vdW  Elec       q    Type
REMARK                         _______ _______ _______ _____ _____    ______ ____
ROOT
ATOM      1  C   UNL     1      -1.267  12.169  20.906  0.00  0.00    +0.000 C 
ENDROOT
BRANCH   1   2
ATOM      2  C   UNL     1      -2.473  12.438  21.852  0.00  0.00    +0.000 C 
ATOM      3  O   UNL     1      -2.557  11.898  22.957  0.00  0.00    +0.000 OA
ATOM      4  N   UNL     1      -3.398  13.357  21.397  0.00  0.00    +0.000 N 
ATOM      5  H   UNL     1      -3.182  13.917  20.589  0.00  0.00    +0.000 HD
BRANCH   4   6
ATOM      6  C   UNL     1      -4.583  13.729  22.186  0.00  0.00    +0.000 C 
ATOM      7  C   UNL     1      -4.449  15.163  22.720  0.00  0.00    +0.000 C 
ATOM      8  C   UNL     1      -4.596  16.216  21.621  0.00  0.00    +0.000 C 
ATOM      9  C   UNL     1      -5.898  16.044  20.844  0.00  0.00    +0.000 C 
ATOM     10  C   UNL     1      -6.041  14.632  20.283  0.00  0.00    +0.000 C 
ATOM     11  C   UNL     1      -5.897  13.570  21.385  0.00  0.00    +0.000 C 
ATOM     12  C   UNL     1      -6.061  12.163  20.808  0.00  0.00    +0.000 C 
ENDBRANCH   4   6
ENDBRANCH   1   2
BRANCH   1  13
ATOM     13  N   UNL     1      -0.886  10.737  21.044  0.00  0.00    +0.000 NA
ATOM     14  H   UNL     1      -1.608  10.162  21.495  0.00  0.00    +0.000 HD
BRANCH  13  15
ATOM     15  S   UNL     1       0.654  10.310  21.506  0.00  0.00    +0.000 S 
ATOM     16  O   UNL     1       0.535   9.845  22.879  0.00  0.00    +0.000 OA
ATOM     17  O   UNL     1       1.539  11.402  21.173  0.00  0.00    +0.000 OA
BRANCH  15  25
ATOM     18  C   UNL     1       3.951   5.345  17.773  0.00  0.00    +0.000 C 
ATOM     19  O   UNL     1       4.403   4.208  17.604  0.00  0.00    +0.000 OA
ATOM     20  N   UNL     1       3.116   5.626  18.838  0.00  0.00    +0.000 N 
ATOM     21  C   UNL     1       2.900   4.602  19.874  0.00  0.00    +0.000 C 
ATOM     22  C   UNL     1       1.927   5.176  20.906  0.00  0.00    +0.000 C 
ATOM     23  C   UNL     1       1.765   6.590  20.433  0.00  0.00    +0.000 A 
ATOM     24  C   UNL     1       1.087   7.615  21.089  0.00  0.00    +0.000 A 
ATOM     25  C   UNL     1       1.110   8.891  20.522  0.00  0.00    +0.000 A 
ATOM     26  C   UNL     1       1.745   9.103  19.293  0.00  0.00    +0.000 A 
ATOM     27  C   UNL     1       2.390   8.049  18.626  0.00  0.00    +0.000 A 
ATOM     28  C   UNL     1       2.438   6.802  19.224  0.00  0.00    +0.000 A 
BRANCH  18  30
ATOM     29  C   UNL     1       5.756   6.961  17.007  0.00  0.00    +0.000 C 
ATOM     30  C   UNL     1       4.329   6.471  16.829  0.00  0.00    +0.000 C 
ENDBRANCH  18  30
ENDBRANCH  15  25
ENDBRANCH  13  15
ENDBRANCH   1  13
BRANCH   1  31
ATOM     31  C   UNL     1      -1.555  12.569  19.449  0.00  0.00    +0.000 C 
BRANCH  31  32
ATOM     32  C   UNL     1      -2.193  11.519  18.564  0.00  0.00    +0.000 A 
ATOM     33  C   UNL     1      -1.367  10.598  17.904  0.00  0.00    +0.000 A 
ATOM     34  C   UNL     1      -1.873   9.828  16.858  0.00  0.00    +0.000 A 
ATOM     35  C   UNL     1      -3.213   9.937  16.492  0.00  0.00    +0.000 A 
ATOM     36  C   UNL     1      -4.069  10.736  17.239  0.00  0.00    +0.000 A 
ATOM     37  C   UNL     1      -3.567  11.493  18.290  0.00  0.00    +0.000 A 
ENDBRANCH  31  32
ENDBRANCH   1  31
TORSDOF 8
ENDMDL
MODEL 7
REMARK VINA RESULT:      -8.4      1.750      3.084
REMARK  Name = 
REMARK  10 active torsions:
REMARK  status: ('A' for Active; 'I' for Inactive)
REMARK    1  A    between atoms: C_1  and  C_2
REMARK    2  A    between atoms: C_2  and  C_3
REMARK    3  A    between atoms: C_10  and  S_11
REMARK    4  A    between atoms: S_11  and  N_14
REMARK    5  A    between atoms: N_14  and  C_15
REMARK    6  A    between atoms: C_15  and  C_16
REMARK    7  A    between atoms: C_15  and  C_23
REMARK    8  A    between atoms: C_16  and  C_17
REMARK    9  A    between atoms: N_25  and  C_26
REMARK   10  A    between atoms: C_31  and  C_32
REMARK                            x       y       z     vdW  Elec       q    Type
REMARK                         _______ _______ _______ _____ _____    ______ ____
ROOT
ATOM      1  C   UNL     1      -0.093  11.027  19.486  0.00  0.00    +0.000 C 
ENDROOT
BRANCH   1   2
ATOM      2  C   UNL     1       0.085  11.964  20.715  0.00  0.00    +0.000 C 
ATOM      3  O   UNL     1       1.202  12.218  21.173  0.00  0.00    +0.000 OA
ATOM      4  N   UNL     1      -1.073  12.529  21.212  0.00  0.00    +0.000 N 
ATOM      5  H   UNL     1      -1.926  12.453  20.683  0.00  0.00    +0.000 HD
BRANCH   4   6
ATOM      6  C   UNL     1      -1.063  13.450  22.360  0.00  0.00    +0.000 C 
ATOM      7  C   UNL     1      -0.611  14.852  21.924  0.00  0.00    +0.000 C 
ATOM      8  C   UNL     1      -1.666  15.577  21.089  0.00  0.00    +0.000 C 
ATOM      9  C   UNL     1      -3.012  15.637  21.806  0.00  0.00    +0.000 C 
ATOM     10  C   UNL     1      -3.492  14.251  22.227  0.00  0.00    +0.000 C 
ATOM     11  C   UNL     1      -2.435  13.519  23.070  0.00  0.00    +0.000 C 
ATOM     12  C   UNL     1      -2.941  12.141  23.496  0.00  0.00    +0.000 C 
ENDBRANCH   4   6
ENDBRANCH   1   2
BRANCH   1  13
ATOM     13  N   UNL     1       0.977   9.996  19.535  0.00  0.00    +0.000 NA
ATOM     14  H   UNL     1       1.683  10.170  20.262  0.00  0.00    +0.000 HD
BRANCH  13  15
ATOM     15  S   UNL     1       1.638   9.391  18.132  0.00  0.00    +0.000 S 
ATOM     16  O   UNL     1       2.635  10.367  17.719  0.00  0.00    +0.000 OA
ATOM     17  O   UNL     1       0.555   9.026  17.251  0.00  0.00    +0.000 OA
BRANCH  15  25
ATOM     18  C   UNL     1       3.659   2.871  19.824  0.00  0.00    +0.000 C 
ATOM     19  O   UNL     1       4.206   1.789  19.589  0.00  0.00    +0.000 OA
ATOM     20  N   UNL     1       3.831   3.952  18.979  0.00  0.00    +0.000 N 
ATOM     21  C   UNL     1       4.535   3.759  17.700  0.00  0.00    +0.000 C 
ATOM     22  C   UNL     1       4.594   5.114  16.989  0.00  0.00    +0.000 C 
ATOM     23  C   UNL     1       3.764   5.978  17.891  0.00  0.00    +0.000 A 
ATOM     24  C   UNL     1       3.366   7.291  17.650  0.00  0.00    +0.000 A 
ATOM     25  C   UNL     1       2.527   7.909  18.582  0.00  0.00    +0.000 A 
ATOM     26  C   UNL     1       2.162   7.237  19.753  0.00  0.00    +0.000 A 
ATOM     27  C   UNL     1       2.606   5.927  19.998  0.00  0.00    +0.000 A 
ATOM     28  C   UNL     1       3.370   5.283  19.040  0.00  0.00    +0.000 A 
BRANCH  18  30
ATOM     29  C   UNL     1       1.306   2.674  20.762  0.00  0.00    +0.000 C 
ATOM     30  C   UNL     1       2.758   3.031  21.033  0.00  0.00    +0.000 C 
ENDBRANCH  18  30
ENDBRANCH  15  25
ENDBRANCH  13  15
ENDBRANCH   1  13
BRANCH   1  31
ATOM     31  C   UNL     1      -1.504  10.415  19.406  0.00  0.00    +0.000 C 
BRANCH  31  32
ATOM     32  C   UNL     1      -2.384  10.873  18.262  0.00  0.00    +0.000 A 
ATOM     33  C   UNL     1      -3.573  11.556  18.554  0.00  0.00    +0.000 A 
ATOM     34  C   UNL     1      -4.547  11.718  17.571  0.00  0.00    +0.000 A 
ATOM     35  C   UNL     1      -4.327  11.241  16.281  0.00  0.00    +0.000 A 
ATOM     36  C   UNL     1      -3.093  10.696  15.948  0.00  0.00    +0.000 A 
ATOM     37  C   UNL     1      -2.117  10.548  16.926  0.00  0.00    +0.000 A 
ENDBRANCH  31  32
ENDBRANCH   1  31
TORSDOF 8
ENDMDL
MODEL 8
REMARK VINA RESULT:      -8.3      2.327      4.420
REMARK  Name = 
REMARK  10 active torsions:
REMARK  status: ('A' for Active; 'I' for Inactive)
REMARK    1  A    between atoms: C_1  and  C_2
REMARK    2  A    between atoms: C_2  and  C_3
REMARK    3  A    between atoms: C_10  and  S_11
REMARK    4  A    between atoms: S_11  and  N_14
REMARK    5  A    between atoms: N_14  and  C_15
REMARK    6  A    between atoms: C_15  and  C_16
REMARK    7  A    between atoms: C_15  and  C_23
REMARK    8  A    between atoms: C_16  and  C_17
REMARK    9  A    between atoms: N_25  and  C_26
REMARK   10  A    between atoms: C_31  and  C_32
REMARK                            x       y       z     vdW  Elec       q    Type
REMARK                         _______ _______ _______ _____ _____    ______ ____
ROOT
ATOM      1  C   UNL     1      -0.636  11.305  21.014  0.00  0.00    +0.000 C 
ENDROOT
BRANCH   1   2
ATOM      2  C   UNL     1      -0.726  12.399  19.911  0.00  0.00    +0.000 C 
ATOM      3  O   UNL     1      -1.625  12.389  19.068  0.00  0.00    +0.000 OA
ATOM      4  N   UNL     1       0.223  13.400  19.981  0.00  0.00    +0.000 N 
ATOM      5  H   UNL     1       0.803  13.476  20.800  0.00  0.00    +0.000 HD
BRANCH   4   6
ATOM      6  C   UNL     1       0.255  14.514  19.019  0.00  0.00    +0.000 C 
ATOM      7  C   UNL     1      -0.578  15.698  19.534  0.00  0.00    +0.000 C 
ATOM      8  C   UNL     1       0.087  16.420  20.705  0.00  0.00    +0.000 C 
ATOM      9  C   UNL     1       1.507  16.861  20.365  0.00  0.00    +0.000 C 
ATOM     10  C   UNL     1       2.361  15.695  19.875  0.00  0.00    +0.000 C 
ATOM     11  C   UNL     1       1.698  14.967  18.694  0.00  0.00    +0.000 C 
ATOM     12  C   UNL     1       2.575  13.814  18.206  0.00  0.00    +0.000 C 
ENDBRANCH   4   6
ENDBRANCH   1   2
BRANCH   1  13
ATOM     13  N   UNL     1       0.459  10.369  20.643  0.00  0.00    +0.000 NA
ATOM     14  H   UNL     1       0.534  10.205  19.631  0.00  0.00    +0.000 HD
BRANCH  13  15
ATOM     15  S   UNL     1       0.738   8.994  21.538  0.00  0.00    +0.000 S 
ATOM     16  O   UNL     1      -0.575   8.531  21.961  0.00  0.00    +0.000 OA
ATOM     17  O   UNL     1       1.762   9.294  22.510  0.00  0.00    +0.000 OA
BRANCH  15  25
ATOM     18  C   UNL     1       4.657   4.937  17.338  0.00  0.00    +0.000 C 
ATOM     19  O   UNL     1       5.246   3.889  17.050  0.00  0.00    +0.000 OA
ATOM     20  N   UNL     1       3.781   4.987  18.406  0.00  0.00    +0.000 N 
ATOM     21  C   UNL     1       3.680   3.829  19.310  0.00  0.00    +0.000 C 
ATOM     22  C   UNL     1       2.632   4.156  20.376  0.00  0.00    +0.000 C 
ATOM     23  C   UNL     1       2.305   5.586  20.067  0.00  0.00    +0.000 A 
ATOM     24  C   UNL     1       1.500   6.437  20.820  0.00  0.00    +0.000 A 
ATOM     25  C   UNL     1       1.374   7.766  20.407  0.00  0.00    +0.000 A 
ATOM     26  C   UNL     1       1.993   8.197  19.229  0.00  0.00    +0.000 A 
ATOM     27  C   UNL     1       2.769   7.314  18.460  0.00  0.00    +0.000 A 
ATOM     28  C   UNL     1       2.962   6.019  18.910  0.00  0.00    +0.000 A 
BRANCH  18  30
ATOM     29  C   UNL     1       6.123   6.985  17.007  0.00  0.00    +0.000 C 
ATOM     30  C   UNL     1       4.906   6.203  16.542  0.00  0.00    +0.000 C 
ENDBRANCH  18  30
ENDBRANCH  15  25
ENDBRANCH  13  15
ENDBRANCH   1  13
BRANCH   1  31
ATOM     31  C   UNL     1      -0.458  11.897  22.424  0.00  0.00    +0.000 C 
BRANCH  31  32
ATOM     32  C   UNL     1      -1.631  12.667  22.995  0.00  0.00    +0.000 A 
ATOM     33  C   UNL     1      -1.443  14.005  23.368  0.00  0.00    +0.000 A 
ATOM     34  C   UNL     1      -2.386  14.648  24.168  0.00  0.00    +0.000 A 
ATOM     35  C   UNL     1      -3.541  13.978  24.567  0.00  0.00    +0.000 A 
ATOM     36  C   UNL     1      -3.802  12.703  24.078  0.00  0.00    +0.000 A 
ATOM     37  C   UNL     1      -2.867  12.069  23.268  0.00  0.00    +0.000 A 
ENDBRANCH  31  32
ENDBRANCH   1  31
TORSDOF 8
ENDMDL
MODEL 9
REMARK VINA RESULT:      -8.3      1.256      4.335
REMARK  Name = 
REMARK  10 active torsions:
REMARK  status: ('A' for Active; 'I' for Inactive)
REMARK    1  A    between atoms: C_1  and  C_2
REMARK    2  A    between atoms: C_2  and  C_3
REMARK    3  A    between atoms: C_10  and  S_11
REMARK    4  A    between atoms: S_11  and  N_14
REMARK    5  A    between atoms: N_14  and  C_15
REMARK    6  A    between atoms: C_15  and  C_16
REMARK    7  A    between atoms: C_15  and  C_23
REMARK    8  A    between atoms: C_16  and  C_17
REMARK    9  A    between atoms: N_25  and  C_26
REMARK   10  A    between atoms: C_31  and  C_32
REMARK                            x       y       z     vdW  Elec       q    Type
REMARK                         _______ _______ _______ _____ _____    ______ ____
ROOT
ATOM      1  C   UNL     1      -0.743  11.192  21.255  0.00  0.00    +0.000 C 
ENDROOT
BRANCH   1   2
ATOM      2  C   UNL     1      -1.182  11.955  19.971  0.00  0.00    +0.000 C 
ATOM      3  O   UNL     1      -0.577  12.954  19.579  0.00  0.00    +0.000 OA
ATOM      4  N   UNL     1      -2.245  11.405  19.282  0.00  0.00    +0.000 N 
ATOM      5  H   UNL     1      -2.571  10.485  19.527  0.00  0.00    +0.000 HD
BRANCH   4   6
ATOM      6  C   UNL     1      -2.763  12.002  18.040  0.00  0.00    +0.000 C 
ATOM      7  C   UNL     1      -1.968  11.498  16.825  0.00  0.00    +0.000 C 
ATOM      8  C   UNL     1      -2.269  10.038  16.491  0.00  0.00    +0.000 C 
ATOM      9  C   UNL     1      -3.763   9.797  16.302  0.00  0.00    +0.000 C 
ATOM     10  C   UNL     1      -4.571  10.267  17.509  0.00  0.00    +0.000 C 
ATOM     11  C   UNL     1      -4.274  11.737  17.847  0.00  0.00    +0.000 C 
ATOM     12  C   UNL     1      -5.105  12.196  19.046  0.00  0.00    +0.000 C 
ENDBRANCH   4   6
ENDBRANCH   1   2
BRANCH   1  13
ATOM     13  N   UNL     1       0.460  10.385  20.921  0.00  0.00    +0.000 NA
ATOM     14  H   UNL     1       0.613  10.273  19.911  0.00  0.00    +0.000 HD
BRANCH  13  15
ATOM     15  S   UNL     1       0.822   9.006  21.780  0.00  0.00    +0.000 S 
ATOM     16  O   UNL     1      -0.450   8.527  22.301  0.00  0.00    +0.000 OA
ATOM     17  O   UNL     1       1.916   9.310  22.672  0.00  0.00    +0.000 OA
BRANCH  15  25
ATOM     18  C   UNL     1       4.463   4.946  17.341  0.00  0.00    +0.000 C 
ATOM     19  O   UNL     1       5.003   3.887  17.002  0.00  0.00    +0.000 OA
ATOM     20  N   UNL     1       3.621   4.994  18.436  0.00  0.00    +0.000 N 
ATOM     21  C   UNL     1       3.502   3.811  19.305  0.00  0.00    +0.000 C 
ATOM     22  C   UNL     1       2.498   4.142  20.412  0.00  0.00    +0.000 C 
ATOM     23  C   UNL     1       2.217   5.593  20.157  0.00  0.00    +0.000 A 
ATOM     24  C   UNL     1       1.466   6.448  20.961  0.00  0.00    +0.000 A 
ATOM     25  C   UNL     1       1.379   7.793  20.593  0.00  0.00    +0.000 A 
ATOM     26  C   UNL     1       1.979   8.239  19.411  0.00  0.00    +0.000 A 
ATOM     27  C   UNL     1       2.699   7.354  18.592  0.00  0.00    +0.000 A 
ATOM     28  C   UNL     1       2.856   6.038  18.995  0.00  0.00    +0.000 A 
BRANCH  18  30
ATOM     29  C   UNL     1       6.017   6.927  17.002  0.00  0.00    +0.000 C 
ATOM     30  C   UNL     1       4.737   6.227  16.577  0.00  0.00    +0.000 C 
ENDBRANCH  18  30
ENDBRANCH  15  25
ENDBRANCH  13  15
ENDBRANCH   1  13
BRANCH   1  31
ATOM     31  C   UNL     1      -0.515  12.131  22.453  0.00  0.00    +0.000 C 
BRANCH  31  32
ATOM     32  C   UNL     1      -1.741  12.796  23.044  0.00  0.00    +0.000 A 
ATOM     33  C   UNL     1      -1.667  14.148  23.408  0.00  0.00    +0.000 A 
ATOM     34  C   UNL     1      -2.648  14.708  24.225  0.00  0.00    +0.000 A 
ATOM     35  C   UNL     1      -3.730  13.939  24.648  0.00  0.00    +0.000 A 
ATOM     36  C   UNL     1      -3.885  12.644  24.169  0.00  0.00    +0.000 A 
ATOM     37  C   UNL     1      -2.913  12.092  23.344  0.00  0.00    +0.000 A 
ENDBRANCH  31  32
ENDBRANCH   1  31
TORSDOF 8
ENDMDL
