MODEL 1
REMARK VINA RESULT:      -5.9      0.000      0.000
REMARK  Name = 
REMARK  4 active torsions:
REMARK  status: ('A' for Active; 'I' for Inactive)
REMARK    1  A    between atoms: C_1  and  C_2
REMARK    2  A    between atoms: C_2  and  C_3
REMARK    3  A    between atoms: C_3  and  C_4
REMARK    4  A    between atoms: C_4  and  C_5
REMARK                            x       y       z     vdW  Elec       q    Type
REMARK                         _______ _______ _______ _____ _____    ______ ____
ROOT
ATOM      1  C   UNL     1       6.963   6.462  17.729  0.00  0.00    +0.000 C 
ATOM      2  C   UNL     1       6.743   5.195  18.568  0.00  0.00    +0.000 C 
ATOM      3  S   UNL     1       5.032   4.552  18.460  0.00  0.00    +0.000 S 
ATOM      4  C   UNL     1       4.792   4.601  16.659  0.00  0.00    +0.000 C 
ATOM      5  C   UNL     1       6.023   4.133  15.912  0.00  0.00    +0.000 C 
ATOM      6  C   UNL     1       6.970   5.263  15.565  0.00  0.00    +0.000 C 
ATOM      7  N   UNL     1       7.493   5.260  14.303  0.00  0.00    +0.000 N 
ATOM      8  N   UNL     1       7.356   6.211  16.342  0.00  0.00    +0.000 NA
ATOM      9  H   UNL     1       6.981   4.800  13.560  0.00  0.00    +0.000 HD
ATOM     10  H   UNL     1       7.913   6.147  14.041  0.00  0.00    +0.000 HD
ENDROOT
BRANCH   1  11
ATOM     11  C   UNL     1       8.101   7.298  18.374  0.00  0.00    +0.000 C 
BRANCH  11  12
ATOM     12  C   UNL     1       8.143   8.751  17.882  0.00  0.00    +0.000 C 
BRANCH  12  14
ATOM     13  C   UNL     1       9.226  11.002  18.191  0.00  0.00    +0.000 C 
ATOM     14  C   UNL     1       8.942   9.649  18.829  0.00  0.00    +0.000 C 
ENDBRANCH  12  14
ENDBRANCH  11  12
ENDBRANCH   1  11
TORSDOF 3
ENDMDL
MODEL 2
REMARK VINA RESULT:      -5.6      2.936      5.763
REMARK  Name = 
REMARK  4 active torsions:
REMARK  status: ('A' for Active; 'I' for Inactive)
REMARK    1  A    between atoms: C_1  and  C_2
REMARK    2  A    between atoms: C_2  and  C_3
REMARK    3  A    between atoms: C_3  and  C_4
REMARK    4  A    between atoms: C_4  and  C_5
REMARK                            x       y       z     vdW  Elec       q    Type
REMARK                         _______ _______ _______ _____ _____    ______ ____
ROOT
ATOM      1  C   UNL     1       4.981   4.615  18.489  0.00  0.00    +0.000 C 
ATOM      2  C   UNL     1       5.275   4.505  16.987  0.00  0.00    +0.000 C 
ATOM      3  S   UNL     1       5.274   6.127  16.136  0.00  0.00    +0.000 S 
ATOM      4  C   UNL     1       6.315   7.081  17.282  0.00  0.00    +0.000 C 
ATOM      5  C   UNL     1       7.499   6.275  17.774  0.00  0.00    +0.000 C 
ATOM      6  C   UNL     1       7.211   5.524  19.057  0.00  0.00    +0.000 C 
ATOM      7  N   UNL     1       8.177   5.562  20.021  0.00  0.00    +0.000 N 
ATOM      8  N   UNL     1       6.163   4.830  19.325  0.00  0.00    +0.000 NA
ATOM      9  H   UNL     1       8.820   6.346  20.041  0.00  0.00    +0.000 HD
ATOM     10  H   UNL     1       7.845   5.264  20.933  0.00  0.00    +0.000 HD
ENDROOT
BRANCH   1  11
ATOM     11  C   UNL     1       4.326   3.292  18.969  0.00  0.00    +0.000 C 
BRANCH  11  12
ATOM     12  C   UNL     1       3.624   2.517  17.846  0.00  0.00    +0.000 C 
BRANCH  12  14
ATOM     13  C   UNL     1       1.478   3.827  17.964  0.00  0.00    +0.000 C 
ATOM     14  C   UNL     1       2.111   2.446  18.063  0.00  0.00    +0.000 C 
ENDBRANCH  12  14
ENDBRANCH  11  12
ENDBRANCH   1  11
TORSDOF 3
ENDMDL
MODEL 3
REMARK VINA RESULT:      -5.6      2.383      5.558
REMARK  Name = 
REMARK  4 active torsions:
REMARK  status: ('A' for Active; 'I' for Inactive)
REMARK    1  A    between atoms: C_1  and  C_2
REMARK    2  A    between atoms: C_2  and  C_3
REMARK    3  A    between atoms: C_3  and  C_4
REMARK    4  A    between atoms: C_4  and  C_5
REMARK                            x       y       z     vdW  Elec       q    Type
REMARK                         _______ _______ _______ _____ _____    ______ ____
ROOT
ATOM      1  C   UNL     1       6.474   4.297  15.591  0.00  0.00    +0.000 C 
ATOM      2  C   UNL     1       4.980   4.307  15.940  0.00  0.00    +0.000 C 
ATOM      3  S   UNL     1       4.641   3.761  17.655  0.00  0.00    +0.000 S 
ATOM      4  C   UNL     1       5.873   4.755  18.549  0.00  0.00    +0.000 C 
ATOM      5  C   UNL     1       5.960   6.167  18.009  0.00  0.00    +0.000 C 
ATOM      6  C   UNL     1       6.997   6.320  16.916  0.00  0.00    +0.000 C 
ATOM      7  N   UNL     1       7.802   7.421  16.984  0.00  0.00    +0.000 N 
ATOM      8  N   UNL     1       7.182   5.537  15.914  0.00  0.00    +0.000 NA
ATOM      9  H   UNL     1       7.967   7.854  17.885  0.00  0.00    +0.000 HD
ATOM     10  H   UNL     1       8.624   7.353  16.390  0.00  0.00    +0.000 HD
ENDROOT
BRANCH   1  11
ATOM     11  C   UNL     1       6.630   4.077  14.063  0.00  0.00    +0.000 C 
BRANCH  11  12
ATOM     12  C   UNL     1       5.292   3.901  13.333  0.00  0.00    +0.000 C 
BRANCH  12  14
ATOM     13  C   UNL     1       4.154   3.150  11.217  0.00  0.00    +0.000 C 
ATOM     14  C   UNL     1       5.464   3.186  11.990  0.00  0.00    +0.000 C 
ENDBRANCH  12  14
ENDBRANCH  11  12
ENDBRANCH   1  11
TORSDOF 3
ENDMDL
MODEL 4
REMARK VINA RESULT:      -5.5      3.390      5.558
REMARK  Name = 
REMARK  4 active torsions:
REMARK  status: ('A' for Active; 'I' for Inactive)
REMARK    1  A    between atoms: C_1  and  C_2
REMARK    2  A    between atoms: C_2  and  C_3
REMARK    3  A    between atoms: C_3  and  C_4
REMARK    4  A    between atoms: C_4  and  C_5
REMARK                            x       y       z     vdW  Elec       q    Type
REMARK                         _______ _______ _______ _____ _____    ______ ____
ROOT
ATOM      1  C   UNL     1       6.255   4.783  16.180  0.00  0.00    +0.000 C 
ATOM      2  C   UNL     1       7.427   4.538  17.140  0.00  0.00    +0.000 C 
ATOM      3  S   UNL     1       7.415   5.661  18.586  0.00  0.00    +0.000 S 
ATOM      4  C   UNL     1       5.675   5.505  19.089  0.00  0.00    +0.000 C 
ATOM      5  C   UNL     1       5.188   4.074  19.003  0.00  0.00    +0.000 C 
ATOM      6  C   UNL     1       4.571   3.738  17.662  0.00  0.00    +0.000 C 
ATOM      7  N   UNL     1       3.408   3.023  17.683  0.00  0.00    +0.000 N 
ATOM      8  N   UNL     1       5.040   4.032  16.502  0.00  0.00    +0.000 NA
ATOM      9  H   UNL     1       2.811   3.079  18.500  0.00  0.00    +0.000 HD
ATOM     10  H   UNL     1       2.912   3.037  16.796  0.00  0.00    +0.000 HD
ENDROOT
BRANCH   1  11
ATOM     11  C   UNL     1       6.681   4.355  14.751  0.00  0.00    +0.000 C 
BRANCH  11  12
ATOM     12  C   UNL     1       5.495   4.090  13.814  0.00  0.00    +0.000 C 
BRANCH  12  14
ATOM     13  C   UNL     1       4.749   3.184  11.587  0.00  0.00    +0.000 C 
ATOM     14  C   UNL     1       5.935   3.415  12.513  0.00  0.00    +0.000 C 
ENDBRANCH  12  14
ENDBRANCH  11  12
ENDBRANCH   1  11
TORSDOF 3
ENDMDL
MODEL 5
REMARK VINA RESULT:      -5.5      3.370      5.682
REMARK  Name = 
REMARK  4 active torsions:
REMARK  status: ('A' for Active; 'I' for Inactive)
REMARK    1  A    between atoms: C_1  and  C_2
REMARK    2  A    between atoms: C_2  and  C_3
REMARK    3  A    between atoms: C_3  and  C_4
REMARK    4  A    between atoms: C_4  and  C_5
REMARK                            x       y       z     vdW  Elec       q    Type
REMARK                         _______ _______ _______ _____ _____    ______ ____
ROOT
ATOM      1  C   UNL     1       4.541   5.124  18.626  0.00  0.00    +0.000 C 
ATOM      2  C   UNL     1       4.615   3.906  17.694  0.00  0.00    +0.000 C 
ATOM      3  S   UNL     1       5.218   4.324  16.016  0.00  0.00    +0.000 S 
ATOM      4  C   UNL     1       6.669   5.331  16.447  0.00  0.00    +0.000 C 
ATOM      5  C   UNL     1       7.443   4.741  17.606  0.00  0.00    +0.000 C 
ATOM      6  C   UNL     1       6.990   5.268  18.951  0.00  0.00    +0.000 C 
ATOM      7  N   UNL     1       7.970   5.608  19.839  0.00  0.00    +0.000 N 
ATOM      8  N   UNL     1       5.778   5.406  19.357  0.00  0.00    +0.000 NA
ATOM      9  H   UNL     1       8.882   5.875  19.486  0.00  0.00    +0.000 HD
ATOM     10  H   UNL     1       7.632   6.177  20.610  0.00  0.00    +0.000 HD
ENDROOT
BRANCH   1  11
ATOM     11  C   UNL     1       3.439   4.874  19.690  0.00  0.00    +0.000 C 
BRANCH  11  12
ATOM     12  C   UNL     1       2.053   4.617  19.083  0.00  0.00    +0.000 C 
BRANCH  12  14
ATOM     13  C   UNL     1       1.802   3.416  21.280  0.00  0.00    +0.000 C 
ATOM     14  C   UNL     1       1.068   4.076  20.122  0.00  0.00    +0.000 C 
ENDBRANCH  12  14
ENDBRANCH  11  12
ENDBRANCH   1  11
TORSDOF 3
ENDMDL
MODEL 6
REMARK VINA RESULT:      -5.4      3.103      5.962
REMARK  Name = 
REMARK  4 active torsions:
REMARK  status: ('A' for Active; 'I' for Inactive)
REMARK    1  A    between atoms: C_1  and  C_2
REMARK    2  A    between atoms: C_2  and  C_3
REMARK    3  A    between atoms: C_3  and  C_4
REMARK    4  A    between atoms: C_4  and  C_5
REMARK                            x       y       z     vdW  Elec       q    Type
REMARK                         _______ _______ _______ _____ _____    ______ ____
ROOT
ATOM      1  C   UNL     1       4.876   4.796  18.804  0.00  0.00    +0.000 C 
ATOM      2  C   UNL     1       5.078   4.520  17.307  0.00  0.00    +0.000 C 
ATOM      3  S   UNL     1       5.171   6.048  16.303  0.00  0.00    +0.000 S 
ATOM      4  C   UNL     1       6.352   7.006  17.301  0.00  0.00    +0.000 C 
ATOM      5  C   UNL     1       7.486   6.145  17.815  0.00  0.00    +0.000 C 
ATOM      6  C   UNL     1       7.204   5.546  19.177  0.00  0.00    +0.000 C 
ATOM      7  N   UNL     1       8.221   5.585  20.088  0.00  0.00    +0.000 N 
ATOM      8  N   UNL     1       6.116   4.978  19.560  0.00  0.00    +0.000 NA
ATOM      9  H   UNL     1       8.929   6.305  20.002  0.00  0.00    +0.000 HD
ATOM     10  H   UNL     1       7.915   5.405  21.039  0.00  0.00    +0.000 HD
ENDROOT
BRANCH   1  11
ATOM     11  C   UNL     1       4.137   3.589  19.440  0.00  0.00    +0.000 C 
BRANCH  11  12
ATOM     12  C   UNL     1       2.762   3.951  20.017  0.00  0.00    +0.000 C 
BRANCH  12  14
ATOM     13  C   UNL     1       0.903   2.610  18.979  0.00  0.00    +0.000 C 
ATOM     14  C   UNL     1       1.860   2.722  20.157  0.00  0.00    +0.000 C 
ENDBRANCH  12  14
ENDBRANCH  11  12
ENDBRANCH   1  11
TORSDOF 3
ENDMDL
MODEL 7
REMARK VINA RESULT:      -5.4      2.875      5.386
REMARK  Name = 
REMARK  4 active torsions:
REMARK  status: ('A' for Active; 'I' for Inactive)
REMARK    1  A    between atoms: C_1  and  C_2
REMARK    2  A    between atoms: C_2  and  C_3
REMARK    3  A    between atoms: C_3  and  C_4
REMARK    4  A    between atoms: C_4  and  C_5
REMARK                            x       y       z     vdW  Elec       q    Type
REMARK                         _______ _______ _______ _____ _____    ______ ____
ROOT
ATOM      1  C   UNL     1       6.186   4.076  16.375  0.00  0.00    +0.000 C 
ATOM      2  C   UNL     1       4.724   4.535  16.464  0.00  0.00    +0.000 C 
ATOM      3  S   UNL     1       3.783   3.680  17.782  0.00  0.00    +0.000 S 
ATOM      4  C   UNL     1       4.958   3.843  19.161  0.00  0.00    +0.000 C 
ATOM      5  C   UNL     1       5.598   5.214  19.198  0.00  0.00    +0.000 C 
ATOM      6  C   UNL     1       6.893   5.285  18.415  0.00  0.00    +0.000 C 
ATOM      7  N   UNL     1       7.934   5.940  19.008  0.00  0.00    +0.000 N 
ATOM      8  N   UNL     1       7.108   4.816  17.238  0.00  0.00    +0.000 NA
ATOM      9  H   UNL     1       7.965   5.999  20.019  0.00  0.00    +0.000 HD
ATOM     10  H   UNL     1       8.830   5.749  18.568  0.00  0.00    +0.000 HD
ENDROOT
BRANCH   1  11
ATOM     11  C   UNL     1       6.683   4.268  14.918  0.00  0.00    +0.000 C 
BRANCH  11  12
ATOM     12  C   UNL     1       5.566   4.153  13.872  0.00  0.00    +0.000 C 
BRANCH  12  14
ATOM     13  C   UNL     1       4.891   3.128  11.675  0.00  0.00    +0.000 C 
ATOM     14  C   UNL     1       6.057   3.490  12.584  0.00  0.00    +0.000 C 
ENDBRANCH  12  14
ENDBRANCH  11  12
ENDBRANCH   1  11
TORSDOF 3
ENDMDL
MODEL 8
REMARK VINA RESULT:      -5.4      3.308      4.293
REMARK  Name = 
REMARK  4 active torsions:
REMARK  status: ('A' for Active; 'I' for Inactive)
REMARK    1  A    between atoms: C_1  and  C_2
REMARK    2  A    between atoms: C_2  and  C_3
REMARK    3  A    between atoms: C_3  and  C_4
REMARK    4  A    between atoms: C_4  and  C_5
REMARK                            x       y       z     vdW  Elec       q    Type
REMARK                         _______ _______ _______ _____ _____    ______ ____
ROOT
ATOM      1  C   UNL     1       4.461   4.661  18.374  0.00  0.00    +0.000 C 
ATOM      2  C   UNL     1       3.016   5.050  18.714  0.00  0.00    +0.000 C 
ATOM      3  S   UNL     1       1.774   4.065  17.797  0.00  0.00    +0.000 S 
ATOM      4  C   UNL     1       2.439   2.394  18.068  0.00  0.00    +0.000 C 
ATOM      5  C   UNL     1       2.931   2.205  19.487  0.00  0.00    +0.000 C 
ATOM      6  C   UNL     1       4.397   2.545  19.656  0.00  0.00    +0.000 C 
ATOM      7  N   UNL     1       5.147   1.678  20.399  0.00  0.00    +0.000 N 
ATOM      8  N   UNL     1       5.007   3.578  19.195  0.00  0.00    +0.000 NA
ATOM      9  H   UNL     1       4.853   0.711  20.470  0.00  0.00    +0.000 HD
ATOM     10  H   UNL     1       6.147   1.809  20.278  0.00  0.00    +0.000 HD
ENDROOT
BRANCH   1  11
ATOM     11  C   UNL     1       5.377   5.894  18.593  0.00  0.00    +0.000 C 
BRANCH  11  12
ATOM     12  C   UNL     1       6.454   6.054  17.511  0.00  0.00    +0.000 C 
BRANCH  12  14
ATOM     13  C   UNL     1       7.790   8.183  17.638  0.00  0.00    +0.000 C 
ATOM     14  C   UNL     1       7.717   6.722  18.059  0.00  0.00    +0.000 C 
ENDBRANCH  12  14
ENDBRANCH  11  12
ENDBRANCH   1  11
TORSDOF 3
ENDMDL
MODEL 9
REMARK VINA RESULT:      -5.4      2.053      2.586
REMARK  Name = 
REMARK  4 active torsions:
REMARK  status: ('A' for Active; 'I' for Inactive)
REMARK    1  A    between atoms: C_1  and  C_2
REMARK    2  A    between atoms: C_2  and  C_3
REMARK    3  A    between atoms: C_3  and  C_4
REMARK    4  A    between atoms: C_4  and  C_5
REMARK                            x       y       z     vdW  Elec       q    Type
REMARK                         _______ _______ _______ _____ _____    ______ ____
ROOT
ATOM      1  C   UNL     1       7.090   5.775  17.691  0.00  0.00    +0.000 C 
ATOM      2  C   UNL     1       6.035   6.546  16.885  0.00  0.00    +0.000 C 
ATOM      3  S   UNL     1       5.552   5.695  15.338  0.00  0.00    +0.000 S 
ATOM      4  C   UNL     1       5.275   4.016  15.978  0.00  0.00    +0.000 C 
ATOM      5  C   UNL     1       4.556   4.030  17.310  0.00  0.00    +0.000 C 
ATOM      6  C   UNL     1       5.501   4.056  18.493  0.00  0.00    +0.000 C 
ATOM      7  N   UNL     1       5.205   3.222  19.534  0.00  0.00    +0.000 N 
ATOM      8  N   UNL     1       6.540   4.799  18.634  0.00  0.00    +0.000 NA
ATOM      9  H   UNL     1       4.662   2.386  19.355  0.00  0.00    +0.000 HD
ATOM     10  H   UNL     1       5.981   3.093  20.177  0.00  0.00    +0.000 HD
ENDROOT
BRANCH   1  11
ATOM     11  C   UNL     1       7.921   6.786  18.525  0.00  0.00    +0.000 C 
BRANCH  11  12
ATOM     12  C   UNL     1       8.004   8.179  17.888  0.00  0.00    +0.000 C 
BRANCH  12  14
ATOM     13  C   UNL     1       8.861  10.535  18.114  0.00  0.00    +0.000 C 
ATOM     14  C   UNL     1       8.792   9.159  18.760  0.00  0.00    +0.000 C 
ENDBRANCH  12  14
ENDBRANCH  11  12
ENDBRANCH   1  11
TORSDOF 3
ENDMDL
