MODEL 1
REMARK VINA RESULT:      -8.4      0.000      0.000
REMARK  Name = 
REMARK  9 active torsions:
REMARK  status: ('A' for Active; 'I' for Inactive)
REMARK    1  A    between atoms: C_1  and  O_2
REMARK    2  A    between atoms: O_2  and  C_3
REMARK    3  A    between atoms: C_6  and  C_7
REMARK    4  A    between atoms: C_7  and  C_8
REMARK    5  A    between atoms: C_7  and  N_19
REMARK    6  A    between atoms: C_8  and  N_9
REMARK    7  A    between atoms: N_9  and  S_10
REMARK    8  A    between atoms: S_10  and  C_13
REMARK    9  A    between atoms: N_22  and  C_23
REMARK                            x       y       z     vdW  Elec       q    Type
REMARK                         _______ _______ _______ _____ _____    ______ ____
ROOT
ATOM      1  C   UNL     1       3.567   6.177  18.565  0.00  0.00    +0.000 C 
ENDROOT
BRANCH   1   2
ATOM      2  N   UNL     1       2.869   4.912  18.968  0.00  0.00    +0.000 NA
ATOM      3  C   UNL     1       3.661   4.040  19.865  0.00  0.00    +0.000 C 
ATOM      4  C   UNL     1       2.947   2.720  20.252  0.00  0.00    +0.000 C 
ATOM      5  N   UNL     1       2.420   1.948  19.110  0.00  0.00    +0.000 NA
ATOM      6  C   UNL     1       3.487   1.327  18.325  0.00  0.00    +0.000 C 
ATOM      7  C   UNL     1       1.608   2.851  18.275  0.00  0.00    +0.000 C 
ATOM      8  C   UNL     1       2.345   4.133  17.826  0.00  0.00    +0.000 C 
ENDBRANCH   1   2
BRANCH   1  12
ATOM      9  C   UNL     1       1.046   9.720  19.091  0.00  0.00    +0.000 A 
ATOM     10  C   UNL     1       1.179   8.800  20.122  0.00  0.00    +0.000 A 
ATOM     11  C   UNL     1       1.985   7.672  19.966  0.00  0.00    +0.000 A 
ATOM     12  C   UNL     1       2.641   7.401  18.758  0.00  0.00    +0.000 A 
ATOM     13  C   UNL     1       2.463   8.323  17.708  0.00  0.00    +0.000 A 
ATOM     14  C   UNL     1       1.691   9.481  17.879  0.00  0.00    +0.000 A 
BRANCH   9  16
ATOM     15  C   UNL     1      -1.117  10.648  18.952  0.00  0.00    +0.000 C 
ATOM     16  O   UNL     1       0.235  10.786  19.367  0.00  0.00    +0.000 OA
ENDBRANCH   9  16
ENDBRANCH   1  12
BRANCH   1  17
ATOM     17  C   UNL     1       4.254   6.089  17.155  0.00  0.00    +0.000 C 
BRANCH  17  18
ATOM     18  N   UNL     1       5.267   5.013  17.036  0.00  0.00    +0.000 NA
ATOM     19  H   UNL     1       4.964   4.102  16.690  0.00  0.00    +0.000 HD
BRANCH  18  20
ATOM     20  S   UNL     1       6.778   5.450  16.420  0.00  0.00    +0.000 S 
ATOM     21  O   UNL     1       6.794   6.899  16.403  0.00  0.00    +0.000 OA
ATOM     22  O   UNL     1       7.785   4.689  17.117  0.00  0.00    +0.000 OA
BRANCH  20  23
ATOM     23  C   UNL     1       6.690   4.880  14.742  0.00  0.00    +0.000 A 
ATOM     24  C   UNL     1       5.670   4.007  14.354  0.00  0.00    +0.000 A 
ATOM     25  C   UNL     1       5.648   3.512  13.049  0.00  0.00    +0.000 A 
ATOM     26  C   UNL     1       6.629   3.900  12.136  0.00  0.00    +0.000 A 
ATOM     27  C   UNL     1       7.620   4.809  12.512  0.00  0.00    +0.000 A 
ATOM     28  C   UNL     1       7.647   5.311  13.813  0.00  0.00    +0.000 A 
ENDBRANCH  20  23
ENDBRANCH  18  20
ENDBRANCH  17  18
ENDBRANCH   1  17
TORSDOF 7
ENDMDL
MODEL 2
REMARK VINA RESULT:      -8.3      0.417      1.021
REMARK  Name = 
REMARK  9 active torsions:
REMARK  status: ('A' for Active; 'I' for Inactive)
REMARK    1  A    between atoms: C_1  and  O_2
REMARK    2  A    between atoms: O_2  and  C_3
REMARK    3  A    between atoms: C_6  and  C_7
REMARK    4  A    between atoms: C_7  and  C_8
REMARK    5  A    between atoms: C_7  and  N_19
REMARK    6  A    between atoms: C_8  and  N_9
REMARK    7  A    between atoms: N_9  and  S_10
REMARK    8  A    between atoms: S_10  and  C_13
REMARK    9  A    between atoms: N_22  and  C_23
REMARK                            x       y       z     vdW  Elec       q    Type
REMARK                         _______ _______ _______ _____ _____    ______ ____
ROOT
ATOM      1  C   UNL     1       3.560   6.174  18.551  0.00  0.00    +0.000 C 
ENDROOT
BRANCH   1   2
ATOM      2  N   UNL     1       2.861   4.914  18.969  0.00  0.00    +0.000 NA
ATOM      3  C   UNL     1       3.656   4.050  19.871  0.00  0.00    +0.000 C 
ATOM      4  C   UNL     1       2.942   2.734  20.274  0.00  0.00    +0.000 C 
ATOM      5  N   UNL     1       2.409   1.952  19.141  0.00  0.00    +0.000 NA
ATOM      6  C   UNL     1       3.472   1.322  18.358  0.00  0.00    +0.000 C 
ATOM      7  C   UNL     1       1.595   2.849  18.301  0.00  0.00    +0.000 C 
ATOM      8  C   UNL     1       2.332   4.126  17.837  0.00  0.00    +0.000 C 
ENDBRANCH   1   2
BRANCH   1  12
ATOM      9  C   UNL     1       1.063   9.732  19.104  0.00  0.00    +0.000 A 
ATOM     10  C   UNL     1       1.185   8.800  20.126  0.00  0.00    +0.000 A 
ATOM     11  C   UNL     1       1.983   7.668  19.962  0.00  0.00    +0.000 A 
ATOM     12  C   UNL     1       2.642   7.403  18.753  0.00  0.00    +0.000 A 
ATOM     13  C   UNL     1       2.475   8.338  17.712  0.00  0.00    +0.000 A 
ATOM     14  C   UNL     1       1.711   9.500  17.892  0.00  0.00    +0.000 A 
BRANCH   9  16
ATOM     15  C   UNL     1      -0.034  10.996  20.764  0.00  0.00    +0.000 C 
ATOM     16  O   UNL     1       0.260  10.801  19.387  0.00  0.00    +0.000 OA
ENDBRANCH   9  16
ENDBRANCH   1  12
BRANCH   1  17
ATOM     17  C   UNL     1       4.225   6.078  17.132  0.00  0.00    +0.000 C 
BRANCH  17  18
ATOM     18  N   UNL     1       5.252   5.016  17.011  0.00  0.00    +0.000 NA
ATOM     19  H   UNL     1       4.969   4.111  16.632  0.00  0.00    +0.000 HD
BRANCH  18  20
ATOM     20  S   UNL     1       6.774   5.485  16.447  0.00  0.00    +0.000 S 
ATOM     21  O   UNL     1       6.751   6.933  16.404  0.00  0.00    +0.000 OA
ATOM     22  O   UNL     1       7.774   4.764  17.197  0.00  0.00    +0.000 OA
BRANCH  20  23
ATOM     23  C   UNL     1       6.770   4.883  14.778  0.00  0.00    +0.000 A 
ATOM     24  C   UNL     1       7.715   5.355  13.863  0.00  0.00    +0.000 A 
ATOM     25  C   UNL     1       7.662   4.925  12.536  0.00  0.00    +0.000 A 
ATOM     26  C   UNL     1       6.683   4.018  12.132  0.00  0.00    +0.000 A 
ATOM     27  C   UNL     1       5.769   3.511  13.058  0.00  0.00    +0.000 A 
ATOM     28  C   UNL     1       5.816   3.933  14.387  0.00  0.00    +0.000 A 
ENDBRANCH  20  23
ENDBRANCH  18  20
ENDBRANCH  17  18
ENDBRANCH   1  17
TORSDOF 7
ENDMDL
MODEL 3
REMARK VINA RESULT:      -8.3      0.723      1.296
REMARK  Name = 
REMARK  9 active torsions:
REMARK  status: ('A' for Active; 'I' for Inactive)
REMARK    1  A    between atoms: C_1  and  O_2
REMARK    2  A    between atoms: O_2  and  C_3
REMARK    3  A    between atoms: C_6  and  C_7
REMARK    4  A    between atoms: C_7  and  C_8
REMARK    5  A    between atoms: C_7  and  N_19
REMARK    6  A    between atoms: C_8  and  N_9
REMARK    7  A    between atoms: N_9  and  S_10
REMARK    8  A    between atoms: S_10  and  C_13
REMARK    9  A    between atoms: N_22  and  C_23
REMARK                            x       y       z     vdW  Elec       q    Type
REMARK                         _______ _______ _______ _____ _____    ______ ____
ROOT
ATOM      1  C   UNL     1       3.824   5.812  18.467  0.00  0.00    +0.000 C 
ENDROOT
BRANCH   1   2
ATOM      2  N   UNL     1       3.177   4.469  18.630  0.00  0.00    +0.000 NA
ATOM      3  C   UNL     1       1.701   4.516  18.740  0.00  0.00    +0.000 C 
ATOM      4  C   UNL     1       1.040   3.128  18.941  0.00  0.00    +0.000 C 
ATOM      5  N   UNL     1       1.618   2.323  20.035  0.00  0.00    +0.000 NA
ATOM      6  C   UNL     1       1.270   2.856  21.353  0.00  0.00    +0.000 C 
ATOM      7  C   UNL     1       3.080   2.276  19.854  0.00  0.00    +0.000 C 
ATOM      8  C   UNL     1       3.748   3.664  19.729  0.00  0.00    +0.000 C 
ENDBRANCH   1   2
BRANCH   1  12
ATOM      9  C   UNL     1       1.105   9.110  19.425  0.00  0.00    +0.000 A 
ATOM     10  C   UNL     1       1.416   8.161  20.390  0.00  0.00    +0.000 A 
ATOM     11  C   UNL     1       2.287   7.111  20.096  0.00  0.00    +0.000 A 
ATOM     12  C   UNL     1       2.832   6.946  18.815  0.00  0.00    +0.000 A 
ATOM     13  C   UNL     1       2.473   7.895  17.837  0.00  0.00    +0.000 A 
ATOM     14  C   UNL     1       1.636   8.977  18.144  0.00  0.00    +0.000 A 
BRANCH   9  16
ATOM     15  C   UNL     1      -0.803  10.403  18.931  0.00  0.00    +0.000 C 
ATOM     16  O   UNL     1       0.247  10.093  19.836  0.00  0.00    +0.000 OA
ENDBRANCH   9  16
ENDBRANCH   1  12
BRANCH   1  17
ATOM     17  C   UNL     1       4.564   5.986  17.093  0.00  0.00    +0.000 C 
BRANCH  17  18
ATOM     18  N   UNL     1       5.436   4.846  16.721  0.00  0.00    +0.000 NA
ATOM     19  H   UNL     1       5.024   4.077  16.190  0.00  0.00    +0.000 HD
BRANCH  18  20
ATOM     20  S   UNL     1       6.994   5.218  16.184  0.00  0.00    +0.000 S 
ATOM     21  O   UNL     1       7.110   6.659  16.277  0.00  0.00    +0.000 OA
ATOM     22  O   UNL     1       7.921   4.337  16.852  0.00  0.00    +0.000 OA
BRANCH  20  23
ATOM     23  C   UNL     1       6.926   4.779  14.467  0.00  0.00    +0.000 A 
ATOM     24  C   UNL     1       6.013   3.815  14.029  0.00  0.00    +0.000 A 
ATOM     25  C   UNL     1       6.012   3.428  12.687  0.00  0.00    +0.000 A 
ATOM     26  C   UNL     1       6.905   4.014  11.789  0.00  0.00    +0.000 A 
ATOM     27  C   UNL     1       7.783   5.010  12.219  0.00  0.00    +0.000 A 
ATOM     28  C   UNL     1       7.789   5.405  13.557  0.00  0.00    +0.000 A 
ENDBRANCH  20  23
ENDBRANCH  18  20
ENDBRANCH  17  18
ENDBRANCH   1  17
TORSDOF 7
ENDMDL
MODEL 4
REMARK VINA RESULT:      -8.1      0.803      1.321
REMARK  Name = 
REMARK  9 active torsions:
REMARK  status: ('A' for Active; 'I' for Inactive)
REMARK    1  A    between atoms: C_1  and  O_2
REMARK    2  A    between atoms: O_2  and  C_3
REMARK    3  A    between atoms: C_6  and  C_7
REMARK    4  A    between atoms: C_7  and  C_8
REMARK    5  A    between atoms: C_7  and  N_19
REMARK    6  A    between atoms: C_8  and  N_9
REMARK    7  A    between atoms: N_9  and  S_10
REMARK    8  A    between atoms: S_10  and  C_13
REMARK    9  A    between atoms: N_22  and  C_23
REMARK                            x       y       z     vdW  Elec       q    Type
REMARK                         _______ _______ _______ _____ _____    ______ ____
ROOT
ATOM      1  C   UNL     1       3.705   6.167  18.308  0.00  0.00    +0.000 C 
ENDROOT
BRANCH   1   2
ATOM      2  N   UNL     1       3.041   4.931  18.840  0.00  0.00    +0.000 NA
ATOM      3  C   UNL     1       3.920   4.082  19.676  0.00  0.00    +0.000 C 
ATOM      4  C   UNL     1       3.238   2.791  20.197  0.00  0.00    +0.000 C 
ATOM      5  N   UNL     1       2.573   1.983  19.155  0.00  0.00    +0.000 NA
ATOM      6  C   UNL     1       3.535   1.313  18.280  0.00  0.00    +0.000 C 
ATOM      7  C   UNL     1       1.682   2.867  18.382  0.00  0.00    +0.000 C 
ATOM      8  C   UNL     1       2.380   4.117  17.799  0.00  0.00    +0.000 C 
ENDBRANCH   1   2
BRANCH   1  12
ATOM      9  C   UNL     1       1.130   9.628  19.066  0.00  0.00    +0.000 A 
ATOM     10  C   UNL     1       1.814   9.519  17.863  0.00  0.00    +0.000 A 
ATOM     11  C   UNL     1       2.631   8.417  17.610  0.00  0.00    +0.000 A 
ATOM     12  C   UNL     1       2.832   7.416  18.571  0.00  0.00    +0.000 A 
ATOM     13  C   UNL     1       2.162   7.562  19.801  0.00  0.00    +0.000 A 
ATOM     14  C   UNL     1       1.304   8.646  20.039  0.00  0.00    +0.000 A 
BRANCH   9  16
ATOM     15  C   UNL     1       0.764  11.660  20.204  0.00  0.00    +0.000 C 
ATOM     16  O   UNL     1       0.357  10.749  19.193  0.00  0.00    +0.000 OA
ENDBRANCH   9  16
ENDBRANCH   1  12
BRANCH   1  17
ATOM     17  C   UNL     1       4.207   6.017  16.827  0.00  0.00    +0.000 C 
BRANCH  17  18
ATOM     18  N   UNL     1       5.681   6.041  16.678  0.00  0.00    +0.000 NA
ATOM     19  H   UNL     1       6.219   6.652  17.295  0.00  0.00    +0.000 HD
BRANCH  18  20
ATOM     20  S   UNL     1       6.450   4.556  16.437  0.00  0.00    +0.000 S 
ATOM     21  O   UNL     1       7.750   4.678  17.065  0.00  0.00    +0.000 OA
ATOM     22  O   UNL     1       5.528   3.508  16.800  0.00  0.00    +0.000 OA
BRANCH  20  23
ATOM     23  C   UNL     1       6.687   4.524  14.679  0.00  0.00    +0.000 A 
ATOM     24  C   UNL     1       5.923   3.662  13.888  0.00  0.00    +0.000 A 
ATOM     25  C   UNL     1       6.162   3.596  12.514  0.00  0.00    +0.000 A 
ATOM     26  C   UNL     1       7.145   4.399  11.935  0.00  0.00    +0.000 A 
ATOM     27  C   UNL     1       7.875   5.294  12.720  0.00  0.00    +0.000 A 
ATOM     28  C   UNL     1       7.640   5.369  14.093  0.00  0.00    +0.000 A 
ENDBRANCH  20  23
ENDBRANCH  18  20
ENDBRANCH  17  18
ENDBRANCH   1  17
TORSDOF 7
ENDMDL
MODEL 5
REMARK VINA RESULT:      -8.0      0.518      1.409
REMARK  Name = 
REMARK  9 active torsions:
REMARK  status: ('A' for Active; 'I' for Inactive)
REMARK    1  A    between atoms: C_1  and  O_2
REMARK    2  A    between atoms: O_2  and  C_3
REMARK    3  A    between atoms: C_6  and  C_7
REMARK    4  A    between atoms: C_7  and  C_8
REMARK    5  A    between atoms: C_7  and  N_19
REMARK    6  A    between atoms: C_8  and  N_9
REMARK    7  A    between atoms: N_9  and  S_10
REMARK    8  A    between atoms: S_10  and  C_13
REMARK    9  A    between atoms: N_22  and  C_23
REMARK                            x       y       z     vdW  Elec       q    Type
REMARK                         _______ _______ _______ _____ _____    ______ ____
ROOT
ATOM      1  C   UNL     1       3.596   6.144  18.265  0.00  0.00    +0.000 C 
ENDROOT
BRANCH   1   2
ATOM      2  N   UNL     1       2.955   4.902  18.812  0.00  0.00    +0.000 NA
ATOM      3  C   UNL     1       3.820   4.127  19.730  0.00  0.00    +0.000 C 
ATOM      4  C   UNL     1       3.164   2.828  20.266  0.00  0.00    +0.000 C 
ATOM      5  N   UNL     1       2.594   1.951  19.225  0.00  0.00    +0.000 NA
ATOM      6  C   UNL     1       3.631   1.290  18.433  0.00  0.00    +0.000 C 
ATOM      7  C   UNL     1       1.712   2.763  18.367  0.00  0.00    +0.000 C 
ATOM      8  C   UNL     1       2.389   4.019  17.771  0.00  0.00    +0.000 C 
ENDBRANCH   1   2
BRANCH   1  12
ATOM      9  C   UNL     1       1.061   9.597  19.180  0.00  0.00    +0.000 A 
ATOM     10  C   UNL     1       1.675   9.493  17.940  0.00  0.00    +0.000 A 
ATOM     11  C   UNL     1       2.479   8.393  17.637  0.00  0.00    +0.000 A 
ATOM     12  C   UNL     1       2.737   7.390  18.582  0.00  0.00    +0.000 A 
ATOM     13  C   UNL     1       2.139   7.532  19.849  0.00  0.00    +0.000 A 
ATOM     14  C   UNL     1       1.293   8.613  20.139  0.00  0.00    +0.000 A 
BRANCH   9  16
ATOM     15  C   UNL     1      -1.018  10.646  18.815  0.00  0.00    +0.000 C 
ATOM     16  O   UNL     1       0.294  10.715  19.355  0.00  0.00    +0.000 OA
ENDBRANCH   9  16
ENDBRANCH   1  12
BRANCH   1  17
ATOM     17  C   UNL     1       4.032   6.011  16.762  0.00  0.00    +0.000 C 
BRANCH  17  18
ATOM     18  N   UNL     1       5.342   6.630  16.451  0.00  0.00    +0.000 NA
ATOM     19  H   UNL     1       5.548   7.550  16.844  0.00  0.00    +0.000 HD
BRANCH  18  20
ATOM     20  S   UNL     1       6.693   5.616  16.482  0.00  0.00    +0.000 S 
ATOM     21  O   UNL     1       7.838   6.488  16.655  0.00  0.00    +0.000 OA
ATOM     22  O   UNL     1       6.421   4.533  17.395  0.00  0.00    +0.000 OA
BRANCH  20  23
ATOM     23  C   UNL     1       6.733   4.974  14.829  0.00  0.00    +0.000 A 
ATOM     24  C   UNL     1       7.674   5.455  13.916  0.00  0.00    +0.000 A 
ATOM     25  C   UNL     1       7.655   4.991  12.599  0.00  0.00    +0.000 A 
ATOM     26  C   UNL     1       6.712   4.042  12.204  0.00  0.00    +0.000 A 
ATOM     27  C   UNL     1       5.803   3.527  13.130  0.00  0.00    +0.000 A 
ATOM     28  C   UNL     1       5.817   3.983  14.449  0.00  0.00    +0.000 A 
ENDBRANCH  20  23
ENDBRANCH  18  20
ENDBRANCH  17  18
ENDBRANCH   1  17
TORSDOF 7
ENDMDL
MODEL 6
REMARK VINA RESULT:      -8.0      0.868      1.653
REMARK  Name = 
REMARK  9 active torsions:
REMARK  status: ('A' for Active; 'I' for Inactive)
REMARK    1  A    between atoms: C_1  and  O_2
REMARK    2  A    between atoms: O_2  and  C_3
REMARK    3  A    between atoms: C_6  and  C_7
REMARK    4  A    between atoms: C_7  and  C_8
REMARK    5  A    between atoms: C_7  and  N_19
REMARK    6  A    between atoms: C_8  and  N_9
REMARK    7  A    between atoms: N_9  and  S_10
REMARK    8  A    between atoms: S_10  and  C_13
REMARK    9  A    between atoms: N_22  and  C_23
REMARK                            x       y       z     vdW  Elec       q    Type
REMARK                         _______ _______ _______ _____ _____    ______ ____
ROOT
ATOM      1  C   UNL     1       3.891   6.479  18.348  0.00  0.00    +0.000 C 
ENDROOT
BRANCH   1   2
ATOM      2  N   UNL     1       3.396   5.063  18.316  0.00  0.00    +0.000 NA
ATOM      3  C   UNL     1       1.931   4.936  18.147  0.00  0.00    +0.000 C 
ATOM      4  C   UNL     1       1.422   3.472  18.147  0.00  0.00    +0.000 C 
ATOM      5  N   UNL     1       1.887   2.658  19.288  0.00  0.00    +0.000 NA
ATOM      6  C   UNL     1       1.243   3.049  20.542  0.00  0.00    +0.000 C 
ATOM      7  C   UNL     1       3.352   2.788  19.384  0.00  0.00    +0.000 C 
ATOM      8  C   UNL     1       3.855   4.248  19.460  0.00  0.00    +0.000 C 
ENDBRANCH   1   2
BRANCH   1  12
ATOM      9  C   UNL     1       0.798   9.305  19.629  0.00  0.00    +0.000 A 
ATOM     10  C   UNL     1       1.239   8.314  20.496  0.00  0.00    +0.000 A 
ATOM     11  C   UNL     1       2.229   7.414  20.099  0.00  0.00    +0.000 A 
ATOM     12  C   UNL     1       2.771   7.442  18.807  0.00  0.00    +0.000 A 
ATOM     13  C   UNL     1       2.283   8.427  17.926  0.00  0.00    +0.000 A 
ATOM     14  C   UNL     1       1.323   9.362  18.339  0.00  0.00    +0.000 A 
BRANCH   9  16
ATOM     15  C   UNL     1       0.167  11.509  20.175  0.00  0.00    +0.000 C 
ATOM     16  O   UNL     1      -0.168  10.129  20.135  0.00  0.00    +0.000 OA
ENDBRANCH   9  16
ENDBRANCH   1  12
BRANCH   1  17
ATOM     17  C   UNL     1       4.631   6.912  17.033  0.00  0.00    +0.000 C 
BRANCH  17  18
ATOM     18  N   UNL     1       4.962   5.791  16.121  0.00  0.00    +0.000 NA
ATOM     19  H   UNL     1       4.539   5.783  15.192  0.00  0.00    +0.000 HD
BRANCH  18  20
ATOM     20  S   UNL     1       6.574   5.287  16.083  0.00  0.00    +0.000 S 
ATOM     21  O   UNL     1       7.366   6.482  16.289  0.00  0.00    +0.000 OA
ATOM     22  O   UNL     1       6.705   4.133  16.939  0.00  0.00    +0.000 OA
BRANCH  20  23
ATOM     23  C   UNL     1       6.778   4.773  14.397  0.00  0.00    +0.000 A 
ATOM     24  C   UNL     1       7.710   5.417  13.579  0.00  0.00    +0.000 A 
ATOM     25  C   UNL     1       7.817   5.050  12.237  0.00  0.00    +0.000 A 
ATOM     26  C   UNL     1       7.009   4.035  11.721  0.00  0.00    +0.000 A 
ATOM     27  C   UNL     1       6.111   3.361  12.551  0.00  0.00    +0.000 A 
ATOM     28  C   UNL     1       6.001   3.720  13.895  0.00  0.00    +0.000 A 
ENDBRANCH  20  23
ENDBRANCH  18  20
ENDBRANCH  17  18
ENDBRANCH   1  17
TORSDOF 7
ENDMDL
MODEL 7
REMARK VINA RESULT:      -8.0      1.238      1.957
REMARK  Name = 
REMARK  9 active torsions:
REMARK  status: ('A' for Active; 'I' for Inactive)
REMARK    1  A    between atoms: C_1  and  O_2
REMARK    2  A    between atoms: O_2  and  C_3
REMARK    3  A    between atoms: C_6  and  C_7
REMARK    4  A    between atoms: C_7  and  C_8
REMARK    5  A    between atoms: C_7  and  N_19
REMARK    6  A    between atoms: C_8  and  N_9
REMARK    7  A    between atoms: N_9  and  S_10
REMARK    8  A    between atoms: S_10  and  C_13
REMARK    9  A    between atoms: N_22  and  C_23
REMARK                            x       y       z     vdW  Elec       q    Type
REMARK                         _______ _______ _______ _____ _____    ______ ____
ROOT
ATOM      1  C   UNL     1       3.106   6.448  19.157  0.00  0.00    +0.000 C 
ENDROOT
BRANCH   1   2
ATOM      2  N   UNL     1       2.205   5.258  19.311  0.00  0.00    +0.000 NA
ATOM      3  C   UNL     1       2.519   4.406  20.480  0.00  0.00    +0.000 C 
ATOM      4  C   UNL     1       1.606   3.161  20.615  0.00  0.00    +0.000 C 
ATOM      5  N   UNL     1       1.494   2.343  19.391  0.00  0.00    +0.000 NA
ATOM      6  C   UNL     1       2.726   1.606  19.107  0.00  0.00    +0.000 C 
ATOM      7  C   UNL     1       1.141   3.233  18.270  0.00  0.00    +0.000 C 
ATOM      8  C   UNL     1       2.097   4.434  18.089  0.00  0.00    +0.000 C 
ENDBRANCH   1   2
BRANCH   1  12
ATOM      9  C   UNL     1       0.675  10.091  19.100  0.00  0.00    +0.000 A 
ATOM     10  C   UNL     1       1.379   9.705  17.967  0.00  0.00    +0.000 A 
ATOM     11  C   UNL     1       2.150   8.543  17.974  0.00  0.00    +0.000 A 
ATOM     12  C   UNL     1       2.285   7.758  19.127  0.00  0.00    +0.000 A 
ATOM     13  C   UNL     1       1.598   8.186  20.280  0.00  0.00    +0.000 A 
ATOM     14  C   UNL     1       0.784   9.328  20.261  0.00  0.00    +0.000 A 
BRANCH   9  16
ATOM     15  C   UNL     1      -1.292  11.265  19.654  0.00  0.00    +0.000 C 
ATOM     16  O   UNL     1      -0.049  11.243  18.967  0.00  0.00    +0.000 OA
ENDBRANCH   9  16
ENDBRANCH   1  12
BRANCH   1  17
ATOM     17  C   UNL     1       4.145   6.298  17.988  0.00  0.00    +0.000 C 
BRANCH  17  18
ATOM     18  N   UNL     1       5.557   6.229  18.432  0.00  0.00    +0.000 NA
ATOM     19  H   UNL     1       5.813   6.699  19.302  0.00  0.00    +0.000 HD
BRANCH  18  20
ATOM     20  S   UNL     1       6.340   4.741  18.267  0.00  0.00    +0.000 S 
ATOM     21  O   UNL     1       7.706   4.964  18.697  0.00  0.00    +0.000 OA
ATOM     22  O   UNL     1       5.510   3.727  18.871  0.00  0.00    +0.000 OA
BRANCH  20  23
ATOM     23  C   UNL     1       6.346   4.502  16.509  0.00  0.00    +0.000 A 
ATOM     24  C   UNL     1       7.329   5.111  15.725  0.00  0.00    +0.000 A 
ATOM     25  C   UNL     1       7.287   4.971  14.337  0.00  0.00    +0.000 A 
ATOM     26  C   UNL     1       6.279   4.212  13.740  0.00  0.00    +0.000 A 
ATOM     27  C   UNL     1       5.326   3.565  14.528  0.00  0.00    +0.000 A 
ATOM     28  C   UNL     1       5.363   3.698  15.916  0.00  0.00    +0.000 A 
ENDBRANCH  20  23
ENDBRANCH  18  20
ENDBRANCH  17  18
ENDBRANCH   1  17
TORSDOF 7
ENDMDL
MODEL 8
REMARK VINA RESULT:      -7.9      1.061      1.552
REMARK  Name = 
REMARK  9 active torsions:
REMARK  status: ('A' for Active; 'I' for Inactive)
REMARK    1  A    between atoms: C_1  and  O_2
REMARK    2  A    between atoms: O_2  and  C_3
REMARK    3  A    between atoms: C_6  and  C_7
REMARK    4  A    between atoms: C_7  and  C_8
REMARK    5  A    between atoms: C_7  and  N_19
REMARK    6  A    between atoms: C_8  and  N_9
REMARK    7  A    between atoms: N_9  and  S_10
REMARK    8  A    between atoms: S_10  and  C_13
REMARK    9  A    between atoms: N_22  and  C_23
REMARK                            x       y       z     vdW  Elec       q    Type
REMARK                         _______ _______ _______ _____ _____    ______ ____
ROOT
ATOM      1  C   UNL     1       3.180   6.353  19.047  0.00  0.00    +0.000 C 
ENDROOT
BRANCH   1   2
ATOM      2  N   UNL     1       2.412   5.073  19.197  0.00  0.00    +0.000 NA
ATOM      3  C   UNL     1       2.908   4.191  20.277  0.00  0.00    +0.000 C 
ATOM      4  C   UNL     1       2.131   2.856  20.407  0.00  0.00    +0.000 C 
ATOM      5  N   UNL     1       1.986   2.103  19.145  0.00  0.00    +0.000 NA
ATOM      6  C   UNL     1       3.250   1.508  18.711  0.00  0.00    +0.000 C 
ATOM      7  C   UNL     1       1.452   3.016  18.119  0.00  0.00    +0.000 C 
ATOM      8  C   UNL     1       2.271   4.314  17.937  0.00  0.00    +0.000 C 
ENDBRANCH   1   2
BRANCH   1  12
ATOM      9  C   UNL     1       0.632   9.893  19.447  0.00  0.00    +0.000 A 
ATOM     10  C   UNL     1       0.824   9.047  20.531  0.00  0.00    +0.000 A 
ATOM     11  C   UNL     1       1.639   7.921  20.415  0.00  0.00    +0.000 A 
ATOM     12  C   UNL     1       2.246   7.576  19.199  0.00  0.00    +0.000 A 
ATOM     13  C   UNL     1       2.007   8.423  18.099  0.00  0.00    +0.000 A 
ATOM     14  C   UNL     1       1.226   9.581  18.227  0.00  0.00    +0.000 A 
BRANCH   9  16
ATOM     15  C   UNL     1      -0.452  11.791  18.562  0.00  0.00    +0.000 C 
ATOM     16  O   UNL     1      -0.182  10.966  19.687  0.00  0.00    +0.000 OA
ENDBRANCH   9  16
ENDBRANCH   1  12
BRANCH   1  17
ATOM     17  C   UNL     1       4.099   6.384  17.774  0.00  0.00    +0.000 C 
BRANCH  17  18
ATOM     18  N   UNL     1       5.544   6.542  18.068  0.00  0.00    +0.000 NA
ATOM     19  H   UNL     1       5.815   7.155  18.838  0.00  0.00    +0.000 HD
BRANCH  18  20
ATOM     20  S   UNL     1       6.493   5.145  18.010  0.00  0.00    +0.000 S 
ATOM     21  O   UNL     1       7.844   5.574  18.310  0.00  0.00    +0.000 OA
ATOM     22  O   UNL     1       5.833   4.121  18.782  0.00  0.00    +0.000 OA
BRANCH  20  23
ATOM     23  C   UNL     1       6.422   4.701  16.294  0.00  0.00    +0.000 A 
ATOM     24  C   UNL     1       7.374   5.205  15.403  0.00  0.00    +0.000 A 
ATOM     25  C   UNL     1       7.272   4.902  14.044  0.00  0.00    +0.000 A 
ATOM     26  C   UNL     1       6.236   4.090  13.583  0.00  0.00    +0.000 A 
ATOM     27  C   UNL     1       5.313   3.550  14.481  0.00  0.00    +0.000 A 
ATOM     28  C   UNL     1       5.410   3.843  15.841  0.00  0.00    +0.000 A 
ENDBRANCH  20  23
ENDBRANCH  18  20
ENDBRANCH  17  18
ENDBRANCH   1  17
TORSDOF 7
ENDMDL
MODEL 9
REMARK VINA RESULT:      -7.8      0.970      1.812
REMARK  Name = 
REMARK  9 active torsions:
REMARK  status: ('A' for Active; 'I' for Inactive)
REMARK    1  A    between atoms: C_1  and  O_2
REMARK    2  A    between atoms: O_2  and  C_3
REMARK    3  A    between atoms: C_6  and  C_7
REMARK    4  A    between atoms: C_7  and  C_8
REMARK    5  A    between atoms: C_7  and  N_19
REMARK    6  A    between atoms: C_8  and  N_9
REMARK    7  A    between atoms: N_9  and  S_10
REMARK    8  A    between atoms: S_10  and  C_13
REMARK    9  A    between atoms: N_22  and  C_23
REMARK                            x       y       z     vdW  Elec       q    Type
REMARK                         _______ _______ _______ _____ _____    ______ ____
ROOT
ATOM      1  C   UNL     1       4.001   6.132  18.053  0.00  0.00    +0.000 C 
ENDROOT
BRANCH   1   2
ATOM      2  N   UNL     1       3.416   4.767  18.265  0.00  0.00    +0.000 NA
ATOM      3  C   UNL     1       1.955   4.690  18.037  0.00  0.00    +0.000 C 
ATOM      4  C   UNL     1       1.351   3.285  18.289  0.00  0.00    +0.000 C 
ATOM      5  N   UNL     1       1.706   2.687  19.592  0.00  0.00    +0.000 NA
ATOM      6  C   UNL     1       1.030   3.352  20.705  0.00  0.00    +0.000 C 
ATOM      7  C   UNL     1       3.170   2.753  19.748  0.00  0.00    +0.000 C 
ATOM      8  C   UNL     1       3.764   4.169  19.571  0.00  0.00    +0.000 C 
ENDBRANCH   1   2
BRANCH   1  12
ATOM      9  C   UNL     1       1.095   9.153  19.328  0.00  0.00    +0.000 A 
ATOM     10  C   UNL     1       1.646   9.210  18.055  0.00  0.00    +0.000 A 
ATOM     11  C   UNL     1       2.567   8.248  17.638  0.00  0.00    +0.000 A 
ATOM     12  C   UNL     1       3.006   7.231  18.497  0.00  0.00    +0.000 A 
ATOM     13  C   UNL     1       2.468   7.212  19.798  0.00  0.00    +0.000 A 
ATOM     14  C   UNL     1       1.507   8.149  20.203  0.00  0.00    +0.000 A 
BRANCH   9  16
ATOM     15  C   UNL     1       0.105  11.182  18.649  0.00  0.00    +0.000 C 
ATOM     16  O   UNL     1       0.201  10.146  19.617  0.00  0.00    +0.000 OA
ENDBRANCH   9  16
ENDBRANCH   1  12
BRANCH   1  17
ATOM     17  C   UNL     1       4.606   6.336  16.618  0.00  0.00    +0.000 C 
BRANCH  17  18
ATOM     18  N   UNL     1       6.069   6.108  16.536  0.00  0.00    +0.000 NA
ATOM     19  H   UNL     1       6.669   6.578  17.215  0.00  0.00    +0.000 HD
BRANCH  18  20
ATOM     20  S   UNL     1       6.580   4.528  16.231  0.00  0.00    +0.000 S 
ATOM     21  O   UNL     1       7.892   4.413  16.836  0.00  0.00    +0.000 OA
ATOM     22  O   UNL     1       5.504   3.632  16.578  0.00  0.00    +0.000 OA
BRANCH  20  23
ATOM     23  C   UNL     1       6.782   4.521  14.468  0.00  0.00    +0.000 A 
ATOM     24  C   UNL     1       6.040   3.634  13.684  0.00  0.00    +0.000 A 
ATOM     25  C   UNL     1       6.253   3.590  12.305  0.00  0.00    +0.000 A 
ATOM     26  C   UNL     1       7.191   4.438  11.714  0.00  0.00    +0.000 A 
ATOM     27  C   UNL     1       7.898   5.356  12.493  0.00  0.00    +0.000 A 
ATOM     28  C   UNL     1       7.687   5.409  13.871  0.00  0.00    +0.000 A 
ENDBRANCH  20  23
ENDBRANCH  18  20
ENDBRANCH  17  18
ENDBRANCH   1  17
TORSDOF 7
ENDMDL
