MODEL 1
REMARK VINA RESULT:      -7.1      0.000      0.000
REMARK  Name = 
REMARK  8 active torsions:
REMARK  status: ('A' for Active; 'I' for Inactive)
REMARK    1  A    between atoms: C_1  and  C_2
REMARK    2  A    between atoms: C_2  and  C_3
REMARK    3  A    between atoms: C_3  and  C_4
REMARK    4  A    between atoms: C_4  and  C_5
REMARK    5  A    between atoms: C_5  and  N_6
REMARK    6  A    between atoms: C_9  and  O_10
REMARK    7  A    between atoms: C_9  and  C_12
REMARK    8  A    between atoms: O_10  and  C_11
REMARK                            x       y       z     vdW  Elec       q    Type
REMARK                         _______ _______ _______ _____ _____    ______ ____
ROOT
ATOM      1  N   UNL     1       3.766   4.923  19.713  0.00  0.00    +0.000 N 
ATOM      2  C   UNL     1       5.005   4.537  19.180  0.00  0.00    +0.000 C 
ATOM      3  O   UNL     1       5.607   3.504  19.440  0.00  0.00    +0.000 OA
ATOM      4  C   UNL     1       5.460   5.652  18.157  0.00  0.00    +0.000 C 
ATOM      5  C   UNL     1       4.261   6.590  18.220  0.00  0.00    +0.000 A 
ATOM      6  C   UNL     1       4.034   7.765  17.513  0.00  0.00    +0.000 A 
ATOM      7  C   UNL     1       2.833   8.447  17.720  0.00  0.00    +0.000 A 
ATOM      8  C   UNL     1       1.881   7.957  18.627  0.00  0.00    +0.000 A 
ATOM      9  C   UNL     1       2.119   6.781  19.344  0.00  0.00    +0.000 A 
ATOM     10  C   UNL     1       3.313   6.112  19.132  0.00  0.00    +0.000 A 
ENDROOT
BRANCH   4  11
ATOM     11  C   UNL     1       5.653   5.096  16.735  0.00  0.00    +0.000 A 
ATOM     12  C   UNL     1       4.843   4.042  16.239  0.00  0.00    +0.000 A 
ATOM     13  C   UNL     1       5.042   3.511  14.960  0.00  0.00    +0.000 A 
ATOM     14  C   UNL     1       6.050   4.049  14.191  0.00  0.00    +0.000 A 
ATOM     15  C   UNL     1       6.830   5.084  14.646  0.00  0.00    +0.000 A 
ATOM     16  C   UNL     1       6.645   5.640  15.893  0.00  0.00    +0.000 A 
ATOM     17  O   UNL     1       7.776   5.457  13.748  0.00  0.00    +0.000 OA
ATOM     18  C   UNL     1       7.524   4.515  12.685  0.00  0.00    +0.000 C 
ATOM     19  O   UNL     1       6.403   3.644  12.945  0.00  0.00    +0.000 OA
ENDBRANCH   4  11
BRANCH   4  20
ATOM     20  O   UNL     1       6.593   6.410  18.605  0.00  0.00    +0.000 OA
ATOM     21  C   UNL     1       7.556   5.665  19.347  0.00  0.00    +0.000 C 
ENDBRANCH   4  20
BRANCH   1  22
ATOM     22  C   UNL     1       3.028   4.119  20.663  0.00  0.00    +0.000 C 
BRANCH  22  23
ATOM     23  C   UNL     1       1.765   3.517  20.047  0.00  0.00    +0.000 C 
BRANCH  23  24
ATOM     24  C   UNL     1       2.070   2.210  19.319  0.00  0.00    +0.000 C 
BRANCH  24  26
ATOM     25  C   UNL     1       1.425   3.717  17.415  0.00  0.00    +0.000 C 
ATOM     26  C   UNL     1       2.127   2.428  17.809  0.00  0.00    +0.000 C 
ENDBRANCH  24  26
ENDBRANCH  23  24
ENDBRANCH  22  23
ENDBRANCH   1  22
TORSDOF 6
ENDMDL
MODEL 2
REMARK VINA RESULT:      -7.1      2.494      6.313
REMARK  Name = 
REMARK  8 active torsions:
REMARK  status: ('A' for Active; 'I' for Inactive)
REMARK    1  A    between atoms: C_1  and  C_2
REMARK    2  A    between atoms: C_2  and  C_3
REMARK    3  A    between atoms: C_3  and  C_4
REMARK    4  A    between atoms: C_4  and  C_5
REMARK    5  A    between atoms: C_5  and  N_6
REMARK    6  A    between atoms: C_9  and  O_10
REMARK    7  A    between atoms: C_9  and  C_12
REMARK    8  A    between atoms: O_10  and  C_11
REMARK                            x       y       z     vdW  Elec       q    Type
REMARK                         _______ _______ _______ _____ _____    ______ ____
ROOT
ATOM      1  N   UNL     1       4.207   4.468  16.660  0.00  0.00    +0.000 N 
ATOM      2  C   UNL     1       4.571   5.705  17.213  0.00  0.00    +0.000 C 
ATOM      3  O   UNL     1       5.250   6.564  16.666  0.00  0.00    +0.000 OA
ATOM      4  C   UNL     1       3.914   5.805  18.647  0.00  0.00    +0.000 C 
ATOM      5  C   UNL     1       3.143   4.492  18.689  0.00  0.00    +0.000 A 
ATOM      6  C   UNL     1       2.320   3.996  19.694  0.00  0.00    +0.000 A 
ATOM      7  C   UNL     1       1.689   2.767  19.492  0.00  0.00    +0.000 A 
ATOM      8  C   UNL     1       1.887   2.048  18.304  0.00  0.00    +0.000 A 
ATOM      9  C   UNL     1       2.725   2.547  17.301  0.00  0.00    +0.000 A 
ATOM     10  C   UNL     1       3.347   3.767  17.510  0.00  0.00    +0.000 A 
ENDROOT
BRANCH   4  11
ATOM     11  C   UNL     1       2.964   7.010  18.771  0.00  0.00    +0.000 A 
ATOM     12  C   UNL     1       2.741   7.889  17.681  0.00  0.00    +0.000 A 
ATOM     13  C   UNL     1       1.907   9.005  17.802  0.00  0.00    +0.000 A 
ATOM     14  C   UNL     1       1.301   9.222  19.020  0.00  0.00    +0.000 A 
ATOM     15  C   UNL     1       1.486   8.369  20.081  0.00  0.00    +0.000 A 
ATOM     16  C   UNL     1       2.287   7.253  19.984  0.00  0.00    +0.000 A 
ATOM     17  O   UNL     1       0.818   8.768  21.193  0.00  0.00    +0.000 OA
ATOM     18  C   UNL     1       0.214   9.990  20.719  0.00  0.00    +0.000 C 
ATOM     19  O   UNL     1       0.485  10.262  19.329  0.00  0.00    +0.000 OA
ENDBRANCH   4  11
BRANCH   4  20
ATOM     20  O   UNL     1       4.869   5.751  19.717  0.00  0.00    +0.000 OA
ATOM     21  C   UNL     1       6.164   5.291  19.341  0.00  0.00    +0.000 C 
ENDBRANCH   4  20
BRANCH   1  22
ATOM     22  C   UNL     1       4.602   4.048  15.333  0.00  0.00    +0.000 C 
BRANCH  22  23
ATOM     23  C   UNL     1       6.119   3.905  15.204  0.00  0.00    +0.000 C 
BRANCH  23  24
ATOM     24  C   UNL     1       6.571   4.061  13.754  0.00  0.00    +0.000 C 
BRANCH  24  26
ATOM     25  C   UNL     1       5.826   2.663  11.804  0.00  0.00    +0.000 C 
ATOM     26  C   UNL     1       5.429   3.748  12.791  0.00  0.00    +0.000 C 
ENDBRANCH  24  26
ENDBRANCH  23  24
ENDBRANCH  22  23
ENDBRANCH   1  22
TORSDOF 6
ENDMDL
MODEL 3
REMARK VINA RESULT:      -6.7      1.317      2.016
REMARK  Name = 
REMARK  8 active torsions:
REMARK  status: ('A' for Active; 'I' for Inactive)
REMARK    1  A    between atoms: C_1  and  C_2
REMARK    2  A    between atoms: C_2  and  C_3
REMARK    3  A    between atoms: C_3  and  C_4
REMARK    4  A    between atoms: C_4  and  C_5
REMARK    5  A    between atoms: C_5  and  N_6
REMARK    6  A    between atoms: C_9  and  O_10
REMARK    7  A    between atoms: C_9  and  C_12
REMARK    8  A    between atoms: O_10  and  C_11
REMARK                            x       y       z     vdW  Elec       q    Type
REMARK                         _______ _______ _______ _____ _____    ______ ____
ROOT
ATOM      1  N   UNL     1       2.606   3.887  17.820  0.00  0.00    +0.000 N 
ATOM      2  C   UNL     1       3.824   3.284  17.470  0.00  0.00    +0.000 C 
ATOM      3  O   UNL     1       4.010   2.086  17.306  0.00  0.00    +0.000 OA
ATOM      4  C   UNL     1       4.896   4.431  17.284  0.00  0.00    +0.000 C 
ATOM      5  C   UNL     1       4.030   5.659  17.531  0.00  0.00    +0.000 A 
ATOM      6  C   UNL     1       4.386   7.002  17.480  0.00  0.00    +0.000 A 
ATOM      7  C   UNL     1       3.401   7.963  17.717  0.00  0.00    +0.000 A 
ATOM      8  C   UNL     1       2.083   7.579  18.005  0.00  0.00    +0.000 A 
ATOM      9  C   UNL     1       1.732   6.227  18.066  0.00  0.00    +0.000 A 
ATOM     10  C   UNL     1       2.716   5.281  17.829  0.00  0.00    +0.000 A 
ENDROOT
BRANCH   4  11
ATOM     11  C   UNL     1       5.492   4.449  15.866  0.00  0.00    +0.000 A 
ATOM     12  C   UNL     1       4.880   3.741  14.799  0.00  0.00    +0.000 A 
ATOM     13  C   UNL     1       5.441   3.726  13.518  0.00  0.00    +0.000 A 
ATOM     14  C   UNL     1       6.609   4.428  13.321  0.00  0.00    +0.000 A 
ATOM     15  C   UNL     1       7.203   5.139  14.335  0.00  0.00    +0.000 A 
ATOM     16  C   UNL     1       6.664   5.186  15.602  0.00  0.00    +0.000 A 
ATOM     17  O   UNL     1       8.353   5.745  13.942  0.00  0.00    +0.000 OA
ATOM     18  C   UNL     1       8.431   5.308  12.570  0.00  0.00    +0.000 C 
ATOM     19  O   UNL     1       7.305   4.505  12.158  0.00  0.00    +0.000 OA
ENDBRANCH   4  11
BRANCH   4  20
ATOM     20  O   UNL     1       5.908   4.436  18.301  0.00  0.00    +0.000 OA
ATOM     21  C   UNL     1       5.432   4.698  19.619  0.00  0.00    +0.000 C 
ENDBRANCH   4  20
BRANCH   1  22
ATOM     22  C   UNL     1       1.386   3.139  18.035  0.00  0.00    +0.000 C 
BRANCH  22  23
ATOM     23  C   UNL     1       1.324   2.535  19.439  0.00  0.00    +0.000 C 
BRANCH  23  24
ATOM     24  C   UNL     1       0.958   3.588  20.482  0.00  0.00    +0.000 C 
BRANCH  24  26
ATOM     25  C   UNL     1       3.009   2.526  21.470  0.00  0.00    +0.000 C 
ATOM     26  C   UNL     1       2.044   3.696  21.550  0.00  0.00    +0.000 C 
ENDBRANCH  24  26
ENDBRANCH  23  24
ENDBRANCH  22  23
ENDBRANCH   1  22
TORSDOF 6
ENDMDL
MODEL 4
REMARK VINA RESULT:      -6.7      2.440      6.122
REMARK  Name = 
REMARK  8 active torsions:
REMARK  status: ('A' for Active; 'I' for Inactive)
REMARK    1  A    between atoms: C_1  and  C_2
REMARK    2  A    between atoms: C_2  and  C_3
REMARK    3  A    between atoms: C_3  and  C_4
REMARK    4  A    between atoms: C_4  and  C_5
REMARK    5  A    between atoms: C_5  and  N_6
REMARK    6  A    between atoms: C_9  and  O_10
REMARK    7  A    between atoms: C_9  and  C_12
REMARK    8  A    between atoms: O_10  and  C_11
REMARK                            x       y       z     vdW  Elec       q    Type
REMARK                         _______ _______ _______ _____ _____    ______ ____
ROOT
ATOM      1  N   UNL     1       4.389   4.728  16.567  0.00  0.00    +0.000 N 
ATOM      2  C   UNL     1       4.703   5.894  17.282  0.00  0.00    +0.000 C 
ATOM      3  O   UNL     1       5.315   6.860  16.846  0.00  0.00    +0.000 OA
ATOM      4  C   UNL     1       4.088   5.754  18.731  0.00  0.00    +0.000 C 
ATOM      5  C   UNL     1       3.392   4.405  18.604  0.00  0.00    +0.000 A 
ATOM      6  C   UNL     1       2.630   3.724  19.548  0.00  0.00    +0.000 A 
ATOM      7  C   UNL     1       2.061   2.501  19.189  0.00  0.00    +0.000 A 
ATOM      8  C   UNL     1       2.260   1.969  17.906  0.00  0.00    +0.000 A 
ATOM      9  C   UNL     1       3.036   2.652  16.965  0.00  0.00    +0.000 A 
ATOM     10  C   UNL     1       3.597   3.865  17.330  0.00  0.00    +0.000 A 
ENDROOT
BRANCH   4  11
ATOM     11  C   UNL     1       3.077   6.871  19.048  0.00  0.00    +0.000 A 
ATOM     12  C   UNL     1       2.421   6.938  20.304  0.00  0.00    +0.000 A 
ATOM     13  C   UNL     1       1.475   7.930  20.580  0.00  0.00    +0.000 A 
ATOM     14  C   UNL     1       1.203   8.850  19.591  0.00  0.00    +0.000 A 
ATOM     15  C   UNL     1       1.845   8.815  18.377  0.00  0.00    +0.000 A 
ATOM     16  C   UNL     1       2.794   7.860  18.084  0.00  0.00    +0.000 A 
ATOM     17  O   UNL     1       1.424   9.793  17.536  0.00  0.00    +0.000 OA
ATOM     18  C   UNL     1       0.418  10.431  18.350  0.00  0.00    +0.000 C 
ATOM     19  O   UNL     1       0.302   9.861  19.670  0.00  0.00    +0.000 OA
ENDBRANCH   4  11
BRANCH   4  20
ATOM     20  O   UNL     1       5.078   5.606  19.759  0.00  0.00    +0.000 OA
ATOM     21  C   UNL     1       6.385   5.288  19.290  0.00  0.00    +0.000 C 
ENDBRANCH   4  20
BRANCH   1  22
ATOM     22  C   UNL     1       4.764   4.523  15.185  0.00  0.00    +0.000 C 
BRANCH  22  23
ATOM     23  C   UNL     1       6.234   4.127  15.042  0.00  0.00    +0.000 C 
BRANCH  23  24
ATOM     24  C   UNL     1       6.590   3.824  13.587  0.00  0.00    +0.000 C 
BRANCH  24  26
ATOM     25  C   UNL     1       5.527   2.590  11.675  0.00  0.00    +0.000 C 
ATOM     26  C   UNL     1       5.329   3.651  12.744  0.00  0.00    +0.000 C 
ENDBRANCH  24  26
ENDBRANCH  23  24
ENDBRANCH  22  23
ENDBRANCH   1  22
TORSDOF 6
ENDMDL
MODEL 5
REMARK VINA RESULT:      -6.6      1.344      2.320
REMARK  Name = 
REMARK  8 active torsions:
REMARK  status: ('A' for Active; 'I' for Inactive)
REMARK    1  A    between atoms: C_1  and  C_2
REMARK    2  A    between atoms: C_2  and  C_3
REMARK    3  A    between atoms: C_3  and  C_4
REMARK    4  A    between atoms: C_4  and  C_5
REMARK    5  A    between atoms: C_5  and  N_6
REMARK    6  A    between atoms: C_9  and  O_10
REMARK    7  A    between atoms: C_9  and  C_12
REMARK    8  A    between atoms: O_10  and  C_11
REMARK                            x       y       z     vdW  Elec       q    Type
REMARK                         _______ _______ _______ _____ _____    ______ ____
ROOT
ATOM      1  N   UNL     1       2.610   3.963  17.779  0.00  0.00    +0.000 N 
ATOM      2  C   UNL     1       3.841   3.328  17.552  0.00  0.00    +0.000 C 
ATOM      3  O   UNL     1       4.011   2.124  17.408  0.00  0.00    +0.000 OA
ATOM      4  C   UNL     1       4.955   4.446  17.473  0.00  0.00    +0.000 C 
ATOM      5  C   UNL     1       4.101   5.697  17.632  0.00  0.00    +0.000 A 
ATOM      6  C   UNL     1       4.496   7.030  17.617  0.00  0.00    +0.000 A 
ATOM      7  C   UNL     1       3.518   8.017  17.754  0.00  0.00    +0.000 A 
ATOM      8  C   UNL     1       2.168   7.668  17.910  0.00  0.00    +0.000 A 
ATOM      9  C   UNL     1       1.778   6.326  17.936  0.00  0.00    +0.000 A 
ATOM     10  C   UNL     1       2.755   5.354  17.799  0.00  0.00    +0.000 A 
ENDROOT
BRANCH   4  11
ATOM     11  C   UNL     1       5.689   4.444  16.120  0.00  0.00    +0.000 A 
ATOM     12  C   UNL     1       6.931   5.111  15.954  0.00  0.00    +0.000 A 
ATOM     13  C   UNL     1       7.581   5.141  14.716  0.00  0.00    +0.000 A 
ATOM     14  C   UNL     1       6.978   4.496  13.659  0.00  0.00    +0.000 A 
ATOM     15  C   UNL     1       5.788   3.826  13.806  0.00  0.00    +0.000 A 
ATOM     16  C   UNL     1       5.135   3.764  15.017  0.00  0.00    +0.000 A 
ATOM     17  O   UNL     1       5.353   3.274  12.645  0.00  0.00    +0.000 OA
ATOM     18  C   UNL     1       6.392   3.701  11.740  0.00  0.00    +0.000 C 
ATOM     19  O   UNL     1       7.447   4.443  12.386  0.00  0.00    +0.000 OA
ENDBRANCH   4  11
BRANCH   4  20
ATOM     20  O   UNL     1       5.862   4.427  18.585  0.00  0.00    +0.000 OA
ATOM     21  C   UNL     1       5.266   4.095  19.837  0.00  0.00    +0.000 C 
ENDBRANCH   4  20
BRANCH   1  22
ATOM     22  C   UNL     1       1.356   3.248  17.873  0.00  0.00    +0.000 C 
BRANCH  22  23
ATOM     23  C   UNL     1       1.159   2.613  19.250  0.00  0.00    +0.000 C 
BRANCH  23  24
ATOM     24  C   UNL     1       0.753   3.656  20.290  0.00  0.00    +0.000 C 
BRANCH  24  26
ATOM     25  C   UNL     1       2.503   2.612  21.759  0.00  0.00    +0.000 C 
ATOM     26  C   UNL     1       1.891   3.915  21.274  0.00  0.00    +0.000 C 
ENDBRANCH  24  26
ENDBRANCH  23  24
ENDBRANCH  22  23
ENDBRANCH   1  22
TORSDOF 6
ENDMDL
MODEL 6
REMARK VINA RESULT:      -6.5      5.740      8.637
REMARK  Name = 
REMARK  8 active torsions:
REMARK  status: ('A' for Active; 'I' for Inactive)
REMARK    1  A    between atoms: C_1  and  C_2
REMARK    2  A    between atoms: C_2  and  C_3
REMARK    3  A    between atoms: C_3  and  C_4
REMARK    4  A    between atoms: C_4  and  C_5
REMARK    5  A    between atoms: C_5  and  N_6
REMARK    6  A    between atoms: C_9  and  O_10
REMARK    7  A    between atoms: C_9  and  C_12
REMARK    8  A    between atoms: O_10  and  C_11
REMARK                            x       y       z     vdW  Elec       q    Type
REMARK                         _______ _______ _______ _____ _____    ______ ____
ROOT
ATOM      1  N   UNL     1       1.345   8.865  19.922  0.00  0.00    +0.000 N 
ATOM      2  C   UNL     1       1.049   9.616  18.773  0.00  0.00    +0.000 C 
ATOM      3  O   UNL     1       1.424   9.364  17.636  0.00  0.00    +0.000 OA
ATOM      4  C   UNL     1       0.113  10.814  19.206  0.00  0.00    +0.000 C 
ATOM      5  C   UNL     1      -0.051  10.512  20.690  0.00  0.00    +0.000 A 
ATOM      6  C   UNL     1      -0.800  11.196  21.641  0.00  0.00    +0.000 A 
ATOM      7  C   UNL     1      -0.820  10.709  22.949  0.00  0.00    +0.000 A 
ATOM      8  C   UNL     1      -0.096   9.559  23.295  0.00  0.00    +0.000 A 
ATOM      9  C   UNL     1       0.665   8.881  22.338  0.00  0.00    +0.000 A 
ATOM     10  C   UNL     1       0.679   9.372  21.042  0.00  0.00    +0.000 A 
ENDROOT
BRANCH   4  11
ATOM     11  C   UNL     1      -1.244  10.785  18.482  0.00  0.00    +0.000 A 
ATOM     12  C   UNL     1      -1.466   9.942  17.362  0.00  0.00    +0.000 A 
ATOM     13  C   UNL     1      -2.687   9.941  16.680  0.00  0.00    +0.000 A 
ATOM     14  C   UNL     1      -3.675  10.786  17.135  0.00  0.00    +0.000 A 
ATOM     15  C   UNL     1      -3.487  11.593  18.230  0.00  0.00    +0.000 A 
ATOM     16  C   UNL     1      -2.302  11.600  18.932  0.00  0.00    +0.000 A 
ATOM     17  O   UNL     1      -4.573  12.360  18.504  0.00  0.00    +0.000 OA
ATOM     18  C   UNL     1      -5.456  11.967  17.434  0.00  0.00    +0.000 C 
ATOM     19  O   UNL     1      -4.907  10.938  16.585  0.00  0.00    +0.000 OA
ENDBRANCH   4  11
BRANCH   4  20
ATOM     20  O   UNL     1       0.751  12.096  19.119  0.00  0.00    +0.000 OA
ATOM     21  C   UNL     1       2.026  12.088  18.481  0.00  0.00    +0.000 C 
ENDBRANCH   4  20
BRANCH   1  22
ATOM     22  C   UNL     1       2.154   7.666  19.896  0.00  0.00    +0.000 C 
BRANCH  22  23
ATOM     23  C   UNL     1       1.439   6.477  20.539  0.00  0.00    +0.000 C 
BRANCH  23  24
ATOM     24  C   UNL     1       1.942   5.152  19.970  0.00  0.00    +0.000 C 
BRANCH  24  26
ATOM     25  C   UNL     1       1.983   3.224  21.580  0.00  0.00    +0.000 C 
ATOM     26  C   UNL     1       1.158   3.978  20.551  0.00  0.00    +0.000 C 
ENDBRANCH  24  26
ENDBRANCH  23  24
ENDBRANCH  22  23
ENDBRANCH   1  22
TORSDOF 6
ENDMDL
MODEL 7
REMARK VINA RESULT:      -6.4      8.806     12.259
REMARK  Name = 
REMARK  8 active torsions:
REMARK  status: ('A' for Active; 'I' for Inactive)
REMARK    1  A    between atoms: C_1  and  C_2
REMARK    2  A    between atoms: C_2  and  C_3
REMARK    3  A    between atoms: C_3  and  C_4
REMARK    4  A    between atoms: C_4  and  C_5
REMARK    5  A    between atoms: C_5  and  N_6
REMARK    6  A    between atoms: C_9  and  O_10
REMARK    7  A    between atoms: C_9  and  C_12
REMARK    8  A    between atoms: O_10  and  C_11
REMARK                            x       y       z     vdW  Elec       q    Type
REMARK                         _______ _______ _______ _____ _____    ______ ____
ROOT
ATOM      1  N   UNL     1      -0.923  12.113  19.970  0.00  0.00    +0.000 N 
ATOM      2  C   UNL     1      -1.515  13.186  20.653  0.00  0.00    +0.000 C 
ATOM      3  O   UNL     1      -1.901  14.232  20.148  0.00  0.00    +0.000 OA
ATOM      4  C   UNL     1      -1.633  12.784  22.177  0.00  0.00    +0.000 C 
ATOM      5  C   UNL     1      -1.079  11.366  22.130  0.00  0.00    +0.000 A 
ATOM      6  C   UNL     1      -0.945  10.448  23.166  0.00  0.00    +0.000 A 
ATOM      7  C   UNL     1      -0.431   9.183  22.873  0.00  0.00    +0.000 A 
ATOM      8  C   UNL     1      -0.055   8.850  21.563  0.00  0.00    +0.000 A 
ATOM      9  C   UNL     1      -0.182   9.781  20.528  0.00  0.00    +0.000 A 
ATOM     10  C   UNL     1      -0.692  11.033  20.828  0.00  0.00    +0.000 A 
ENDROOT
BRANCH   4  11
ATOM     11  C   UNL     1      -3.090  12.794  22.673  0.00  0.00    +0.000 A 
ATOM     12  C   UNL     1      -3.398  12.855  24.056  0.00  0.00    +0.000 A 
ATOM     13  C   UNL     1      -4.721  12.827  24.510  0.00  0.00    +0.000 A 
ATOM     14  C   UNL     1      -5.721  12.742  23.567  0.00  0.00    +0.000 A 
ATOM     15  C   UNL     1      -5.443  12.704  22.222  0.00  0.00    +0.000 A 
ATOM     16  C   UNL     1      -4.151  12.749  21.746  0.00  0.00    +0.000 A 
ATOM     17  O   UNL     1      -6.563  12.603  21.462  0.00  0.00    +0.000 OA
ATOM     18  C   UNL     1      -7.578  12.549  22.485  0.00  0.00    +0.000 C 
ATOM     19  O   UNL     1      -7.052  12.678  23.822  0.00  0.00    +0.000 OA
ENDBRANCH   4  11
BRANCH   4  20
ATOM     20  O   UNL     1      -0.761  13.534  23.034  0.00  0.00    +0.000 OA
ATOM     21  C   UNL     1      -0.135  14.656  22.417  0.00  0.00    +0.000 C 
ENDBRANCH   4  20
BRANCH   1  22
ATOM     22  C   UNL     1      -0.691  12.116  18.542  0.00  0.00    +0.000 C 
BRANCH  22  23
ATOM     23  C   UNL     1      -1.925  11.665  17.759  0.00  0.00    +0.000 C 
BRANCH  23  24
ATOM     24  C   UNL     1      -1.797  10.211  17.308  0.00  0.00    +0.000 C 
BRANCH  24  26
ATOM     25  C   UNL     1      -2.956  10.563  15.107  0.00  0.00    +0.000 C 
ATOM     26  C   UNL     1      -2.976   9.809  16.426  0.00  0.00    +0.000 C 
ENDBRANCH  24  26
ENDBRANCH  23  24
ENDBRANCH  22  23
ENDBRANCH   1  22
TORSDOF 6
ENDMDL
MODEL 8
REMARK VINA RESULT:      -6.4      5.334      8.248
REMARK  Name = 
REMARK  8 active torsions:
REMARK  status: ('A' for Active; 'I' for Inactive)
REMARK    1  A    between atoms: C_1  and  C_2
REMARK    2  A    between atoms: C_2  and  C_3
REMARK    3  A    between atoms: C_3  and  C_4
REMARK    4  A    between atoms: C_4  and  C_5
REMARK    5  A    between atoms: C_5  and  N_6
REMARK    6  A    between atoms: C_9  and  O_10
REMARK    7  A    between atoms: C_9  and  C_12
REMARK    8  A    between atoms: O_10  and  C_11
REMARK                            x       y       z     vdW  Elec       q    Type
REMARK                         _______ _______ _______ _____ _____    ______ ____
ROOT
ATOM      1  N   UNL     1      -0.623  12.008  20.581  0.00  0.00    +0.000 N 
ATOM      2  C   UNL     1       0.709  11.577  20.494  0.00  0.00    +0.000 C 
ATOM      3  O   UNL     1       1.585  11.783  21.323  0.00  0.00    +0.000 OA
ATOM      4  C   UNL     1       0.863  10.746  19.158  0.00  0.00    +0.000 C 
ATOM      5  C   UNL     1      -0.571  10.781  18.646  0.00  0.00    +0.000 A 
ATOM      6  C   UNL     1      -1.104  10.192  17.505  0.00  0.00    +0.000 A 
ATOM      7  C   UNL     1      -2.470  10.340  17.255  0.00  0.00    +0.000 A 
ATOM      8  C   UNL     1      -3.283  11.071  18.134  0.00  0.00    +0.000 A 
ATOM      9  C   UNL     1      -2.739  11.671  19.274  0.00  0.00    +0.000 A 
ATOM     10  C   UNL     1      -1.383  11.519  19.514  0.00  0.00    +0.000 A 
ENDROOT
BRANCH   4  11
ATOM     11  C   UNL     1       1.322   9.300  19.419  0.00  0.00    +0.000 A 
ATOM     12  C   UNL     1       1.022   8.640  20.639  0.00  0.00    +0.000 A 
ATOM     13  C   UNL     1       1.470   7.339  20.893  0.00  0.00    +0.000 A 
ATOM     14  C   UNL     1       2.212   6.714  19.914  0.00  0.00    +0.000 A 
ATOM     15  C   UNL     1       2.494   7.330  18.719  0.00  0.00    +0.000 A 
ATOM     16  C   UNL     1       2.050   8.602  18.434  0.00  0.00    +0.000 A 
ATOM     17  O   UNL     1       3.250   6.555  17.900  0.00  0.00    +0.000 OA
ATOM     18  C   UNL     1       3.440   5.392  18.731  0.00  0.00    +0.000 C 
ATOM     19  O   UNL     1       2.750   5.471  19.996  0.00  0.00    +0.000 OA
ENDBRANCH   4  11
BRANCH   4  20
ATOM     20  O   UNL     1       1.666  11.402  18.167  0.00  0.00    +0.000 OA
ATOM     21  C   UNL     1       2.049  12.736  18.494  0.00  0.00    +0.000 C 
ENDBRANCH   4  20
BRANCH   1  22
ATOM     22  C   UNL     1      -1.137  12.770  21.698  0.00  0.00    +0.000 C 
BRANCH  22  23
ATOM     23  C   UNL     1      -1.460  11.881  22.900  0.00  0.00    +0.000 C 
BRANCH  23  24
ATOM     24  C   UNL     1      -2.887  12.109  23.393  0.00  0.00    +0.000 C 
BRANCH  24  26
ATOM     25  C   UNL     1      -4.571  13.974  23.417  0.00  0.00    +0.000 C 
ATOM     26  C   UNL     1      -3.580  13.193  22.571  0.00  0.00    +0.000 C 
ENDBRANCH  24  26
ENDBRANCH  23  24
ENDBRANCH  22  23
ENDBRANCH   1  22
TORSDOF 6
ENDMDL
MODEL 9
REMARK VINA RESULT:      -6.3      2.422      5.570
REMARK  Name = 
REMARK  8 active torsions:
REMARK  status: ('A' for Active; 'I' for Inactive)
REMARK    1  A    between atoms: C_1  and  C_2
REMARK    2  A    between atoms: C_2  and  C_3
REMARK    3  A    between atoms: C_3  and  C_4
REMARK    4  A    between atoms: C_4  and  C_5
REMARK    5  A    between atoms: C_5  and  N_6
REMARK    6  A    between atoms: C_9  and  O_10
REMARK    7  A    between atoms: C_9  and  C_12
REMARK    8  A    between atoms: O_10  and  C_11
REMARK                            x       y       z     vdW  Elec       q    Type
REMARK                         _______ _______ _______ _____ _____    ______ ____
ROOT
ATOM      1  N   UNL     1       4.872   4.014  18.180  0.00  0.00    +0.000 N 
ATOM      2  C   UNL     1       3.791   4.636  17.537  0.00  0.00    +0.000 C 
ATOM      3  O   UNL     1       2.704   4.124  17.304  0.00  0.00    +0.000 OA
ATOM      4  C   UNL     1       4.214   6.123  17.208  0.00  0.00    +0.000 C 
ATOM      5  C   UNL     1       5.607   6.155  17.824  0.00  0.00    +0.000 A 
ATOM      6  C   UNL     1       6.505   7.213  17.895  0.00  0.00    +0.000 A 
ATOM      7  C   UNL     1       7.726   7.010  18.542  0.00  0.00    +0.000 A 
ATOM      8  C   UNL     1       8.038   5.763  19.103  0.00  0.00    +0.000 A 
ATOM      9  C   UNL     1       7.136   4.698  19.020  0.00  0.00    +0.000 A 
ATOM     10  C   UNL     1       5.928   4.909  18.375  0.00  0.00    +0.000 A 
ENDROOT
BRANCH   4  11
ATOM     11  C   UNL     1       3.289   7.155  17.877  0.00  0.00    +0.000 A 
ATOM     12  C   UNL     1       2.962   8.378  17.236  0.00  0.00    +0.000 A 
ATOM     13  C   UNL     1       2.151   9.332  17.858  0.00  0.00    +0.000 A 
ATOM     14  C   UNL     1       1.672   9.045  19.117  0.00  0.00    +0.000 A 
ATOM     15  C   UNL     1       1.959   7.856  19.744  0.00  0.00    +0.000 A 
ATOM     16  C   UNL     1       2.740   6.891  19.148  0.00  0.00    +0.000 A 
ATOM     17  O   UNL     1       1.409   7.775  20.983  0.00  0.00    +0.000 OA
ATOM     18  C   UNL     1       0.768   9.063  21.077  0.00  0.00    +0.000 C 
ATOM     19  O   UNL     1       0.898   9.858  19.879  0.00  0.00    +0.000 OA
ENDBRANCH   4  11
BRANCH   4  20
ATOM     20  O   UNL     1       4.384   6.371  15.805  0.00  0.00    +0.000 OA
ATOM     21  C   UNL     1       5.285   5.486  15.145  0.00  0.00    +0.000 C 
ENDBRANCH   4  20
BRANCH   1  22
ATOM     22  C   UNL     1       4.828   2.649  18.660  0.00  0.00    +0.000 C 
BRANCH  22  23
ATOM     23  C   UNL     1       4.304   2.562  20.094  0.00  0.00    +0.000 C 
BRANCH  23  24
ATOM     24  C   UNL     1       2.811   2.241  20.122  0.00  0.00    +0.000 C 
BRANCH  24  26
ATOM     25  C   UNL     1       1.040   3.984  20.488  0.00  0.00    +0.000 C 
ATOM     26  C   UNL     1       2.087   3.106  21.151  0.00  0.00    +0.000 C 
ENDBRANCH  24  26
ENDBRANCH  23  24
ENDBRANCH  22  23
ENDBRANCH   1  22
TORSDOF 6
ENDMDL
