MODEL 1
REMARK VINA RESULT:      -8.7      0.000      0.000
REMARK  Name = 
REMARK  8 active torsions:
REMARK  status: ('A' for Active; 'I' for Inactive)
REMARK    1  A    between atoms: C_1  and  C_2
REMARK    2  A    between atoms: N_6  and  C_7
REMARK    3  A    between atoms: C_7  and  C_8
REMARK    4  A    between atoms: C_8  and  C_9
REMARK    5  A    between atoms: C_8  and  C_10
REMARK    6  A    between atoms: C_14  and  N_15
REMARK    7  A    between atoms: C_16  and  C_18
REMARK    8  A    between atoms: C_22  and  C_23
REMARK                            x       y       z     vdW  Elec       q    Type
REMARK                         _______ _______ _______ _____ _____    ______ ____
ROOT
ATOM      1  C   UNL     1       4.520   5.220  16.752  0.00  0.00    +0.000 A 
ATOM      2  C   UNL     1       4.019   3.938  17.018  0.00  0.00    +0.000 A 
ATOM      3  C   UNL     1       2.953   3.760  17.899  0.00  0.00    +0.000 A 
ATOM      4  C   UNL     1       2.370   4.857  18.523  0.00  0.00    +0.000 A 
ATOM      5  C   UNL     1       2.834   6.150  18.279  0.00  0.00    +0.000 A 
ATOM      6  C   UNL     1       3.900   6.324  17.379  0.00  0.00    +0.000 A 
ENDROOT
BRANCH   5   7
ATOM      7  N   UNL     1       2.269   7.289  18.891  0.00  0.00    +0.000 N 
ATOM      8  C   UNL     1       2.028   8.516  18.291  0.00  0.00    +0.000 C 
ATOM      9  O   UNL     1       2.242   8.819  17.120  0.00  0.00    +0.000 OA
ATOM     10  H   UNL     1       1.948   7.208  19.852  0.00  0.00    +0.000 HD
BRANCH   8  11
ATOM     11  C   UNL     1       1.407   9.540  19.191  0.00  0.00    +0.000 A 
ATOM     12  C   UNL     1       1.307  10.856  18.756  0.00  0.00    +0.000 A 
ATOM     13  C   UNL     1       0.703  11.786  19.592  0.00  0.00    +0.000 A 
ATOM     14  C   UNL     1       0.223  11.371  20.833  0.00  0.00    +0.000 A 
ATOM     15  C   UNL     1       0.355  10.031  21.211  0.00  0.00    +0.000 A 
ATOM     16  N   UNL     1       0.949   9.103  20.398  0.00  0.00    +0.000 NA
BRANCH  15  17
ATOM     17  C   UNL     1      -0.184   9.579  22.563  0.00  0.00    +0.000 C 
ATOM     18  F   UNL     1       0.794   9.345  23.488  0.00  0.00    +0.000 F 
ATOM     19  F   UNL     1      -1.014  10.497  23.133  0.00  0.00    +0.000 F 
ATOM     20  F   UNL     1      -0.899   8.420  22.487  0.00  0.00    +0.000 F 
ENDBRANCH  15  17
ENDBRANCH   8  11
ENDBRANCH   5   7
BRANCH   1  21
ATOM     21  C   UNL     1       5.674   5.442  15.772  0.00  0.00    +0.000 C 
ATOM     22  C   UNL     1       5.310   4.802  14.426  0.00  0.00    +0.000 C 
BRANCH  21  23
ATOM     23  C   UNL     1       7.037   4.929  16.297  0.00  0.00    +0.000 C 
BRANCH  23  29
ATOM     24  C   UNL     1       7.468   7.924  17.202  0.00  0.00    +0.000 C 
ATOM     25  C   UNL     1       7.639   6.710  18.026  0.00  0.00    +0.000 A 
ATOM     26  C   UNL     1       8.058   6.552  19.329  0.00  0.00    +0.000 A 
ATOM     27  N   UNL     1       8.062   5.229  19.659  0.00  0.00    +0.000 NA
ATOM     28  N   UNL     1       7.670   4.541  18.596  0.00  0.00    +0.000 NA
ATOM     29  N   UNL     1       7.409   5.419  17.611  0.00  0.00    +0.000 N 
ENDBRANCH  23  29
ENDBRANCH  21  23
ENDBRANCH   1  21
TORSDOF 6
ENDMDL
MODEL 2
REMARK VINA RESULT:      -8.2      2.036      2.449
REMARK  Name = 
REMARK  8 active torsions:
REMARK  status: ('A' for Active; 'I' for Inactive)
REMARK    1  A    between atoms: C_1  and  C_2
REMARK    2  A    between atoms: N_6  and  C_7
REMARK    3  A    between atoms: C_7  and  C_8
REMARK    4  A    between atoms: C_8  and  C_9
REMARK    5  A    between atoms: C_8  and  C_10
REMARK    6  A    between atoms: C_14  and  N_15
REMARK    7  A    between atoms: C_16  and  C_18
REMARK    8  A    between atoms: C_22  and  C_23
REMARK                            x       y       z     vdW  Elec       q    Type
REMARK                         _______ _______ _______ _____ _____    ______ ____
ROOT
ATOM      1  C   UNL     1       4.714   5.057  16.573  0.00  0.00    +0.000 A 
ATOM      2  C   UNL     1       4.291   3.746  16.837  0.00  0.00    +0.000 A 
ATOM      3  C   UNL     1       3.276   3.499  17.761  0.00  0.00    +0.000 A 
ATOM      4  C   UNL     1       2.668   4.555  18.430  0.00  0.00    +0.000 A 
ATOM      5  C   UNL     1       3.054   5.874  18.191  0.00  0.00    +0.000 A 
ATOM      6  C   UNL     1       4.068   6.118  17.248  0.00  0.00    +0.000 A 
ENDROOT
BRANCH   5   7
ATOM      7  N   UNL     1       2.460   6.972  18.849  0.00  0.00    +0.000 N 
ATOM      8  C   UNL     1       1.907   6.972  20.120  0.00  0.00    +0.000 C 
ATOM      9  O   UNL     1       1.857   6.027  20.903  0.00  0.00    +0.000 OA
ATOM     10  H   UNL     1       2.478   7.876  18.385  0.00  0.00    +0.000 HD
BRANCH   8  11
ATOM     11  C   UNL     1       1.356   8.294  20.562  0.00  0.00    +0.000 A 
ATOM     12  C   UNL     1       1.230   8.559  21.920  0.00  0.00    +0.000 A 
ATOM     13  C   UNL     1       0.744   9.800  22.310  0.00  0.00    +0.000 A 
ATOM     14  C   UNL     1       0.400  10.731  21.333  0.00  0.00    +0.000 A 
ATOM     15  C   UNL     1       0.551  10.401  19.982  0.00  0.00    +0.000 A 
ATOM     16  N   UNL     1       1.028   9.183  19.582  0.00  0.00    +0.000 NA
BRANCH  15  17
ATOM     17  C   UNL     1       0.186  11.429  18.916  0.00  0.00    +0.000 C 
ATOM     18  F   UNL     1      -0.485  10.894  17.854  0.00  0.00    +0.000 F 
ATOM     19  F   UNL     1      -0.618  12.421  19.394  0.00  0.00    +0.000 F 
ATOM     20  F   UNL     1       1.277  12.050  18.384  0.00  0.00    +0.000 F 
ENDBRANCH  15  17
ENDBRANCH   8  11
ENDBRANCH   5   7
BRANCH   1  21
ATOM     21  C   UNL     1       5.810   5.354  15.547  0.00  0.00    +0.000 C 
ATOM     22  C   UNL     1       5.521   4.556  14.270  0.00  0.00    +0.000 C 
BRANCH  21  23
ATOM     23  C   UNL     1       7.240   5.086  16.076  0.00  0.00    +0.000 C 
BRANCH  23  29
ATOM     24  C   UNL     1       7.636   7.975  17.288  0.00  0.00    +0.000 C 
ATOM     25  C   UNL     1       7.666   6.690  18.017  0.00  0.00    +0.000 A 
ATOM     26  C   UNL     1       7.912   6.408  19.343  0.00  0.00    +0.000 A 
ATOM     27  N   UNL     1       7.837   5.063  19.553  0.00  0.00    +0.000 NA
ATOM     28  N   UNL     1       7.564   4.483  18.393  0.00  0.00    +0.000 NA
ATOM     29  N   UNL     1       7.455   5.450  17.464  0.00  0.00    +0.000 N 
ENDBRANCH  23  29
ENDBRANCH  21  23
ENDBRANCH   1  21
TORSDOF 6
ENDMDL
MODEL 3
REMARK VINA RESULT:      -8.2      1.647      2.151
REMARK  Name = 
REMARK  8 active torsions:
REMARK  status: ('A' for Active; 'I' for Inactive)
REMARK    1  A    between atoms: C_1  and  C_2
REMARK    2  A    between atoms: N_6  and  C_7
REMARK    3  A    between atoms: C_7  and  C_8
REMARK    4  A    between atoms: C_8  and  C_9
REMARK    5  A    between atoms: C_8  and  C_10
REMARK    6  A    between atoms: C_14  and  N_15
REMARK    7  A    between atoms: C_16  and  C_18
REMARK    8  A    between atoms: C_22  and  C_23
REMARK                            x       y       z     vdW  Elec       q    Type
REMARK                         _______ _______ _______ _____ _____    ______ ____
ROOT
ATOM      1  C   UNL     1       4.694   4.772  16.678  0.00  0.00    +0.000 A 
ATOM      2  C   UNL     1       4.344   3.429  16.872  0.00  0.00    +0.000 A 
ATOM      3  C   UNL     1       3.346   3.079  17.782  0.00  0.00    +0.000 A 
ATOM      4  C   UNL     1       2.683   4.063  18.506  0.00  0.00    +0.000 A 
ATOM      5  C   UNL     1       2.996   5.412  18.335  0.00  0.00    +0.000 A 
ATOM      6  C   UNL     1       3.992   5.759  17.407  0.00  0.00    +0.000 A 
ENDROOT
BRANCH   5   7
ATOM      7  N   UNL     1       2.345   6.440  19.050  0.00  0.00    +0.000 N 
ATOM      8  C   UNL     1       2.273   7.777  18.692  0.00  0.00    +0.000 C 
ATOM      9  O   UNL     1       2.741   8.296  17.682  0.00  0.00    +0.000 OA
ATOM     10  H   UNL     1       1.824   6.188  19.886  0.00  0.00    +0.000 HD
BRANCH   8  11
ATOM     11  C   UNL     1       1.502   8.639  19.646  0.00  0.00    +0.000 A 
ATOM     12  C   UNL     1       1.453   8.289  20.990  0.00  0.00    +0.000 A 
ATOM     13  C   UNL     1       0.758   9.114  21.863  0.00  0.00    +0.000 A 
ATOM     14  C   UNL     1       0.135  10.257  21.365  0.00  0.00    +0.000 A 
ATOM     15  C   UNL     1       0.222  10.552  20.001  0.00  0.00    +0.000 A 
ATOM     16  N   UNL     1       0.903   9.748  19.128  0.00  0.00    +0.000 NA
BRANCH  15  17
ATOM     17  C   UNL     1      -0.450  11.810  19.463  0.00  0.00    +0.000 C 
ATOM     18  F   UNL     1      -0.882  11.687  18.174  0.00  0.00    +0.000 F 
ATOM     19  F   UNL     1      -1.550  12.169  20.184  0.00  0.00    +0.000 F 
ATOM     20  F   UNL     1       0.376  12.895  19.470  0.00  0.00    +0.000 F 
ENDBRANCH  15  17
ENDBRANCH   8  11
ENDBRANCH   5   7
BRANCH   1  21
ATOM     21  C   UNL     1       5.769   5.183  15.669  0.00  0.00    +0.000 C 
ATOM     22  C   UNL     1       5.478   4.496  14.329  0.00  0.00    +0.000 C 
BRANCH  21  23
ATOM     23  C   UNL     1       7.212   4.897  16.154  0.00  0.00    +0.000 C 
BRANCH  23  29
ATOM     24  C   UNL     1       7.385   7.870  17.205  0.00  0.00    +0.000 C 
ATOM     25  C   UNL     1       7.622   6.635  17.980  0.00  0.00    +0.000 A 
ATOM     26  C   UNL     1       8.011   6.448  19.288  0.00  0.00    +0.000 A 
ATOM     27  N   UNL     1       8.106   5.116  19.559  0.00  0.00    +0.000 NA
ATOM     28  N   UNL     1       7.800   4.451  18.454  0.00  0.00    +0.000 NA
ATOM     29  N   UNL     1       7.504   5.352  17.500  0.00  0.00    +0.000 N 
ENDBRANCH  23  29
ENDBRANCH  21  23
ENDBRANCH   1  21
TORSDOF 6
ENDMDL
MODEL 4
REMARK VINA RESULT:      -8.0      5.295      7.380
REMARK  Name = 
REMARK  8 active torsions:
REMARK  status: ('A' for Active; 'I' for Inactive)
REMARK    1  A    between atoms: C_1  and  C_2
REMARK    2  A    between atoms: N_6  and  C_7
REMARK    3  A    between atoms: C_7  and  C_8
REMARK    4  A    between atoms: C_8  and  C_9
REMARK    5  A    between atoms: C_8  and  C_10
REMARK    6  A    between atoms: C_14  and  N_15
REMARK    7  A    between atoms: C_16  and  C_18
REMARK    8  A    between atoms: C_22  and  C_23
REMARK                            x       y       z     vdW  Elec       q    Type
REMARK                         _______ _______ _______ _____ _____    ______ ____
ROOT
ATOM      1  C   UNL     1       4.701   5.309  17.083  0.00  0.00    +0.000 A 
ATOM      2  C   UNL     1       5.463   4.293  16.489  0.00  0.00    +0.000 A 
ATOM      3  C   UNL     1       6.788   4.522  16.119  0.00  0.00    +0.000 A 
ATOM      4  C   UNL     1       7.371   5.764  16.339  0.00  0.00    +0.000 A 
ATOM      5  C   UNL     1       6.650   6.800  16.934  0.00  0.00    +0.000 A 
ATOM      6  C   UNL     1       5.319   6.559  17.318  0.00  0.00    +0.000 A 
ENDROOT
BRANCH   5   7
ATOM      7  N   UNL     1       7.207   8.074  17.175  0.00  0.00    +0.000 N 
ATOM      8  C   UNL     1       8.139   8.397  18.149  0.00  0.00    +0.000 C 
ATOM      9  O   UNL     1       8.659   7.631  18.955  0.00  0.00    +0.000 OA
ATOM     10  H   UNL     1       6.954   8.834  16.550  0.00  0.00    +0.000 HD
BRANCH   8  11
ATOM     11  C   UNL     1       8.556   9.837  18.162  0.00  0.00    +0.000 A 
ATOM     12  C   UNL     1       7.823  10.763  17.429  0.00  0.00    +0.000 A 
ATOM     13  C   UNL     1       8.207  12.096  17.475  0.00  0.00    +0.000 A 
ATOM     14  C   UNL     1       9.309  12.458  18.247  0.00  0.00    +0.000 A 
ATOM     15  C   UNL     1      10.004  11.477  18.961  0.00  0.00    +0.000 A 
ATOM     16  N   UNL     1       9.638  10.158  18.925  0.00  0.00    +0.000 NA
BRANCH  15  17
ATOM     17  C   UNL     1      11.200  11.879  19.815  0.00  0.00    +0.000 C 
ATOM     18  F   UNL     1      11.536  13.198  19.693  0.00  0.00    +0.000 F 
ATOM     19  F   UNL     1      10.988  11.678  21.146  0.00  0.00    +0.000 F 
ATOM     20  F   UNL     1      12.332  11.184  19.503  0.00  0.00    +0.000 F 
ENDBRANCH  15  17
ENDBRANCH   8  11
ENDBRANCH   5   7
BRANCH   1  21
ATOM     21  C   UNL     1       3.252   5.076  17.518  0.00  0.00    +0.000 C 
ATOM     22  C   UNL     1       2.982   5.886  18.792  0.00  0.00    +0.000 C 
BRANCH  21  23
ATOM     23  C   UNL     1       2.898   3.581  17.707  0.00  0.00    +0.000 C 
BRANCH  23  29
ATOM     24  C   UNL     1       0.762   3.252  20.011  0.00  0.00    +0.000 C 
ATOM     25  C   UNL     1       2.207   2.949  20.084  0.00  0.00    +0.000 A 
ATOM     26  C   UNL     1       2.988   2.513  21.131  0.00  0.00    +0.000 A 
ATOM     27  N   UNL     1       4.281   2.378  20.722  0.00  0.00    +0.000 NA
ATOM     28  N   UNL     1       4.345   2.730  19.445  0.00  0.00    +0.000 NA
ATOM     29  N   UNL     1       3.105   3.071  19.050  0.00  0.00    +0.000 N 
ENDBRANCH  23  29
ENDBRANCH  21  23
ENDBRANCH   1  21
TORSDOF 6
ENDMDL
MODEL 5
REMARK VINA RESULT:      -8.0      4.246      9.105
REMARK  Name = 
REMARK  8 active torsions:
REMARK  status: ('A' for Active; 'I' for Inactive)
REMARK    1  A    between atoms: C_1  and  C_2
REMARK    2  A    between atoms: N_6  and  C_7
REMARK    3  A    between atoms: C_7  and  C_8
REMARK    4  A    between atoms: C_8  and  C_9
REMARK    5  A    between atoms: C_8  and  C_10
REMARK    6  A    between atoms: C_14  and  N_15
REMARK    7  A    between atoms: C_16  and  C_18
REMARK    8  A    between atoms: C_22  and  C_23
REMARK                            x       y       z     vdW  Elec       q    Type
REMARK                         _______ _______ _______ _____ _____    ______ ____
ROOT
ATOM      1  C   UNL     1      -0.028  10.464  20.132  0.00  0.00    +0.000 A 
ATOM      2  C   UNL     1      -0.328  10.305  21.492  0.00  0.00    +0.000 A 
ATOM      3  C   UNL     1       0.220   9.250  22.222  0.00  0.00    +0.000 A 
ATOM      4  C   UNL     1       1.076   8.344  21.606  0.00  0.00    +0.000 A 
ATOM      5  C   UNL     1       1.405   8.472  20.257  0.00  0.00    +0.000 A 
ATOM      6  C   UNL     1       0.861   9.545  19.530  0.00  0.00    +0.000 A 
ENDROOT
BRANCH   5   7
ATOM      7  N   UNL     1       2.271   7.573  19.596  0.00  0.00    +0.000 N 
ATOM      8  C   UNL     1       2.366   6.207  19.815  0.00  0.00    +0.000 C 
ATOM      9  O   UNL     1       1.703   5.538  20.602  0.00  0.00    +0.000 OA
ATOM     10  H   UNL     1       2.851   7.932  18.843  0.00  0.00    +0.000 HD
BRANCH   8  11
ATOM     11  C   UNL     1       3.372   5.506  18.953  0.00  0.00    +0.000 A 
ATOM     12  C   UNL     1       2.931   4.649  17.952  0.00  0.00    +0.000 A 
ATOM     13  C   UNL     1       3.876   4.030  17.146  0.00  0.00    +0.000 A 
ATOM     14  C   UNL     1       5.228   4.286  17.368  0.00  0.00    +0.000 A 
ATOM     15  C   UNL     1       5.606   5.158  18.393  0.00  0.00    +0.000 A 
ATOM     16  N   UNL     1       4.686   5.776  19.197  0.00  0.00    +0.000 NA
BRANCH  15  17
ATOM     17  C   UNL     1       7.086   5.445  18.623  0.00  0.00    +0.000 C 
ATOM     18  F   UNL     1       7.912   4.489  18.105  0.00  0.00    +0.000 F 
ATOM     19  F   UNL     1       7.488   6.620  18.060  0.00  0.00    +0.000 F 
ATOM     20  F   UNL     1       7.409   5.530  19.945  0.00  0.00    +0.000 F 
ENDBRANCH  15  17
ENDBRANCH   8  11
ENDBRANCH   5   7
BRANCH   1  21
ATOM     21  C   UNL     1      -0.599  11.626  19.316  0.00  0.00    +0.000 C 
ATOM     22  C   UNL     1       0.116  12.919  19.730  0.00  0.00    +0.000 C 
BRANCH  21  23
ATOM     23  C   UNL     1      -2.137  11.764  19.429  0.00  0.00    +0.000 C 
BRANCH  23  29
ATOM     24  C   UNL     1      -5.261  11.806  18.971  0.00  0.00    +0.000 C 
ATOM     25  C   UNL     1      -4.214  11.565  17.957  0.00  0.00    +0.000 A 
ATOM     26  C   UNL     1      -4.306  11.260  16.616  0.00  0.00    +0.000 A 
ATOM     27  N   UNL     1      -3.058  11.120  16.085  0.00  0.00    +0.000 NA
ATOM     28  N   UNL     1      -2.176  11.316  17.055  0.00  0.00    +0.000 NA
ATOM     29  N   UNL     1      -2.858  11.588  18.183  0.00  0.00    +0.000 N 
ENDBRANCH  23  29
ENDBRANCH  21  23
ENDBRANCH   1  21
TORSDOF 6
ENDMDL
MODEL 6
REMARK VINA RESULT:      -8.0      1.996      3.036
REMARK  Name = 
REMARK  8 active torsions:
REMARK  status: ('A' for Active; 'I' for Inactive)
REMARK    1  A    between atoms: C_1  and  C_2
REMARK    2  A    between atoms: N_6  and  C_7
REMARK    3  A    between atoms: C_7  and  C_8
REMARK    4  A    between atoms: C_8  and  C_9
REMARK    5  A    between atoms: C_8  and  C_10
REMARK    6  A    between atoms: C_14  and  N_15
REMARK    7  A    between atoms: C_16  and  C_18
REMARK    8  A    between atoms: C_22  and  C_23
REMARK                            x       y       z     vdW  Elec       q    Type
REMARK                         _______ _______ _______ _____ _____    ______ ____
ROOT
ATOM      1  C   UNL     1       4.832   4.368  17.044  0.00  0.00    +0.000 A 
ATOM      2  C   UNL     1       4.058   3.202  16.977  0.00  0.00    +0.000 A 
ATOM      3  C   UNL     1       2.742   3.194  17.439  0.00  0.00    +0.000 A 
ATOM      4  C   UNL     1       2.181   4.350  17.971  0.00  0.00    +0.000 A 
ATOM      5  C   UNL     1       2.915   5.533  18.048  0.00  0.00    +0.000 A 
ATOM      6  C   UNL     1       4.236   5.538  17.568  0.00  0.00    +0.000 A 
ENDROOT
BRANCH   5   7
ATOM      7  N   UNL     1       2.381   6.726  18.580  0.00  0.00    +0.000 N 
ATOM      8  C   UNL     1       2.419   7.982  17.993  0.00  0.00    +0.000 C 
ATOM      9  O   UNL     1       2.902   8.272  16.902  0.00  0.00    +0.000 OA
ATOM     10  H   UNL     1       1.864   6.674  19.454  0.00  0.00    +0.000 HD
BRANCH   8  11
ATOM     11  C   UNL     1       1.758   9.065  18.791  0.00  0.00    +0.000 A 
ATOM     12  C   UNL     1       1.685  10.349  18.265  0.00  0.00    +0.000 A 
ATOM     13  C   UNL     1       1.044  11.333  19.007  0.00  0.00    +0.000 A 
ATOM     14  C   UNL     1       0.501  11.001  20.247  0.00  0.00    +0.000 A 
ATOM     15  C   UNL     1       0.609   9.689  20.719  0.00  0.00    +0.000 A 
ATOM     16  N   UNL     1       1.238   8.709  20.000  0.00  0.00    +0.000 NA
BRANCH  15  17
ATOM     17  C   UNL     1       0.001   9.329  22.069  0.00  0.00    +0.000 C 
ATOM     18  F   UNL     1      -0.780  10.318  22.595  0.00  0.00    +0.000 F 
ATOM     19  F   UNL     1      -0.797   8.225  22.010  0.00  0.00    +0.000 F 
ATOM     20  F   UNL     1       0.943   9.062  23.020  0.00  0.00    +0.000 F 
ENDBRANCH  15  17
ENDBRANCH   8  11
ENDBRANCH   5   7
BRANCH   1  21
ATOM     21  C   UNL     1       6.271   4.407  16.523  0.00  0.00    +0.000 C 
ATOM     22  C   UNL     1       7.202   4.811  17.674  0.00  0.00    +0.000 C 
BRANCH  21  23
ATOM     23  C   UNL     1       6.457   5.326  15.291  0.00  0.00    +0.000 C 
BRANCH  23  29
ATOM     24  C   UNL     1       8.523   5.837  12.958  0.00  0.00    +0.000 C 
ATOM     25  C   UNL     1       7.422   4.852  12.975  0.00  0.00    +0.000 A 
ATOM     26  C   UNL     1       6.984   3.968  12.013  0.00  0.00    +0.000 A 
ATOM     27  N   UNL     1       5.921   3.257  12.484  0.00  0.00    +0.000 NA
ATOM     28  N   UNL     1       5.663   3.675  13.715  0.00  0.00    +0.000 NA
ATOM     29  N   UNL     1       6.560   4.629  14.022  0.00  0.00    +0.000 N 
ENDBRANCH  23  29
ENDBRANCH  21  23
ENDBRANCH   1  21
TORSDOF 6
ENDMDL
MODEL 7
REMARK VINA RESULT:      -7.9      3.823      8.748
REMARK  Name = 
REMARK  8 active torsions:
REMARK  status: ('A' for Active; 'I' for Inactive)
REMARK    1  A    between atoms: C_1  and  C_2
REMARK    2  A    between atoms: N_6  and  C_7
REMARK    3  A    between atoms: C_7  and  C_8
REMARK    4  A    between atoms: C_8  and  C_9
REMARK    5  A    between atoms: C_8  and  C_10
REMARK    6  A    between atoms: C_14  and  N_15
REMARK    7  A    between atoms: C_16  and  C_18
REMARK    8  A    between atoms: C_22  and  C_23
REMARK                            x       y       z     vdW  Elec       q    Type
REMARK                         _______ _______ _______ _____ _____    ______ ____
ROOT
ATOM      1  C   UNL     1      -0.613  10.943  20.119  0.00  0.00    +0.000 A 
ATOM      2  C   UNL     1      -0.808  11.344  21.448  0.00  0.00    +0.000 A 
ATOM      3  C   UNL     1      -0.301  10.585  22.502  0.00  0.00    +0.000 A 
ATOM      4  C   UNL     1       0.411   9.418  22.244  0.00  0.00    +0.000 A 
ATOM      5  C   UNL     1       0.634   8.989  20.936  0.00  0.00    +0.000 A 
ATOM      6  C   UNL     1       0.132   9.766  19.878  0.00  0.00    +0.000 A 
ENDROOT
BRANCH   5   7
ATOM      7  N   UNL     1       1.351   7.811  20.634  0.00  0.00    +0.000 N 
ATOM      8  C   UNL     1       2.131   7.585  19.510  0.00  0.00    +0.000 C 
ATOM      9  O   UNL     1       2.352   8.374  18.595  0.00  0.00    +0.000 OA
ATOM     10  H   UNL     1       1.355   7.062  21.320  0.00  0.00    +0.000 HD
BRANCH   8  11
ATOM     11  C   UNL     1       2.784   6.237  19.464  0.00  0.00    +0.000 A 
ATOM     12  C   UNL     1       3.999   6.092  18.806  0.00  0.00    +0.000 A 
ATOM     13  C   UNL     1       4.603   4.842  18.798  0.00  0.00    +0.000 A 
ATOM     14  C   UNL     1       3.972   3.780  19.444  0.00  0.00    +0.000 A 
ATOM     15  C   UNL     1       2.749   3.993  20.088  0.00  0.00    +0.000 A 
ATOM     16  N   UNL     1       2.142   5.219  20.104  0.00  0.00    +0.000 NA
BRANCH  15  17
ATOM     17  C   UNL     1       2.070   2.832  20.805  0.00  0.00    +0.000 C 
ATOM     18  F   UNL     1       0.814   3.129  21.252  0.00  0.00    +0.000 F 
ATOM     19  F   UNL     1       1.924   1.735  20.010  0.00  0.00    +0.000 F 
ATOM     20  F   UNL     1       2.760   2.412  21.904  0.00  0.00    +0.000 F 
ENDBRANCH  15  17
ENDBRANCH   8  11
ENDBRANCH   5   7
BRANCH   1  21
ATOM     21  C   UNL     1      -1.140  11.772  18.946  0.00  0.00    +0.000 C 
ATOM     22  C   UNL     1      -0.818  13.250  19.200  0.00  0.00    +0.000 C 
BRANCH  21  23
ATOM     23  C   UNL     1      -2.648  11.557  18.667  0.00  0.00    +0.000 C 
BRANCH  23  29
ATOM     24  C   UNL     1      -5.283  12.095  17.012  0.00  0.00    +0.000 C 
ATOM     25  C   UNL     1      -4.111  11.302  16.589  0.00  0.00    +0.000 A 
ATOM     26  C   UNL     1      -3.875  10.577  15.442  0.00  0.00    +0.000 A 
ATOM     27  N   UNL     1      -2.641  10.002  15.500  0.00  0.00    +0.000 NA
ATOM     28  N   UNL     1      -2.091  10.332  16.660  0.00  0.00    +0.000 NA
ATOM     29  N   UNL     1      -2.962  11.116  17.321  0.00  0.00    +0.000 N 
ENDBRANCH  23  29
ENDBRANCH  21  23
ENDBRANCH   1  21
TORSDOF 6
ENDMDL
MODEL 8
REMARK VINA RESULT:      -7.8      4.288      9.323
REMARK  Name = 
REMARK  8 active torsions:
REMARK  status: ('A' for Active; 'I' for Inactive)
REMARK    1  A    between atoms: C_1  and  C_2
REMARK    2  A    between atoms: N_6  and  C_7
REMARK    3  A    between atoms: C_7  and  C_8
REMARK    4  A    between atoms: C_8  and  C_9
REMARK    5  A    between atoms: C_8  and  C_10
REMARK    6  A    between atoms: C_14  and  N_15
REMARK    7  A    between atoms: C_16  and  C_18
REMARK    8  A    between atoms: C_22  and  C_23
REMARK                            x       y       z     vdW  Elec       q    Type
REMARK                         _______ _______ _______ _____ _____    ______ ____
ROOT
ATOM      1  C   UNL     1      -0.363  11.119  18.742  0.00  0.00    +0.000 A 
ATOM      2  C   UNL     1       0.511  12.215  18.725  0.00  0.00    +0.000 A 
ATOM      3  C   UNL     1       1.862  12.041  18.421  0.00  0.00    +0.000 A 
ATOM      4  C   UNL     1       2.356  10.775  18.128  0.00  0.00    +0.000 A 
ATOM      5  C   UNL     1       1.517   9.661  18.127  0.00  0.00    +0.000 A 
ATOM      6  C   UNL     1       0.154   9.844  18.420  0.00  0.00    +0.000 A 
ENDROOT
BRANCH   5   7
ATOM      7  N   UNL     1       1.980   8.360  17.834  0.00  0.00    +0.000 N 
ATOM      8  C   UNL     1       2.334   7.383  18.752  0.00  0.00    +0.000 C 
ATOM      9  O   UNL     1       2.286   7.469  19.976  0.00  0.00    +0.000 OA
ATOM     10  H   UNL     1       2.013   8.071  16.860  0.00  0.00    +0.000 HD
BRANCH   8  11
ATOM     11  C   UNL     1       2.783   6.089  18.144  0.00  0.00    +0.000 A 
ATOM     12  C   UNL     1       1.927   4.995  18.166  0.00  0.00    +0.000 A 
ATOM     13  C   UNL     1       2.349   3.812  17.573  0.00  0.00    +0.000 A 
ATOM     14  C   UNL     1       3.610   3.762  16.982  0.00  0.00    +0.000 A 
ATOM     15  C   UNL     1       4.423   4.899  16.995  0.00  0.00    +0.000 A 
ATOM     16  N   UNL     1       4.022   6.072  17.576  0.00  0.00    +0.000 NA
BRANCH  15  17
ATOM     17  C   UNL     1       5.796   4.844  16.336  0.00  0.00    +0.000 C 
ATOM     18  F   UNL     1       6.830   4.966  17.220  0.00  0.00    +0.000 F 
ATOM     19  F   UNL     1       6.017   3.671  15.676  0.00  0.00    +0.000 F 
ATOM     20  F   UNL     1       5.983   5.834  15.417  0.00  0.00    +0.000 F 
ENDBRANCH  15  17
ENDBRANCH   8  11
ENDBRANCH   5   7
BRANCH   1  21
ATOM     21  C   UNL     1      -1.853  11.287  19.050  0.00  0.00    +0.000 C 
ATOM     22  C   UNL     1      -2.653  11.056  17.762  0.00  0.00    +0.000 C 
BRANCH  21  23
ATOM     23  C   UNL     1      -2.200  12.649  19.700  0.00  0.00    +0.000 C 
BRANCH  23  29
ATOM     24  C   UNL     1      -0.638  12.094  22.388  0.00  0.00    +0.000 C 
ATOM     25  C   UNL     1      -2.093  12.288  22.226  0.00  0.00    +0.000 A 
ATOM     26  C   UNL     1      -3.121  12.234  23.142  0.00  0.00    +0.000 A 
ATOM     27  N   UNL     1      -4.310  12.476  22.522  0.00  0.00    +0.000 NA
ATOM     28  N   UNL     1      -4.067  12.670  21.233  0.00  0.00    +0.000 NA
ATOM     29  N   UNL     1      -2.739  12.563  21.044  0.00  0.00    +0.000 N 
ENDBRANCH  23  29
ENDBRANCH  21  23
ENDBRANCH   1  21
TORSDOF 6
ENDMDL
MODEL 9
REMARK VINA RESULT:      -7.8      4.358      9.151
REMARK  Name = 
REMARK  8 active torsions:
REMARK  status: ('A' for Active; 'I' for Inactive)
REMARK    1  A    between atoms: C_1  and  C_2
REMARK    2  A    between atoms: N_6  and  C_7
REMARK    3  A    between atoms: C_7  and  C_8
REMARK    4  A    between atoms: C_8  and  C_9
REMARK    5  A    between atoms: C_8  and  C_10
REMARK    6  A    between atoms: C_14  and  N_15
REMARK    7  A    between atoms: C_16  and  C_18
REMARK    8  A    between atoms: C_22  and  C_23
REMARK                            x       y       z     vdW  Elec       q    Type
REMARK                         _______ _______ _______ _____ _____    ______ ____
ROOT
ATOM      1  C   UNL     1       0.081  10.490  19.874  0.00  0.00    +0.000 A 
ATOM      2  C   UNL     1      -0.113  10.546  21.262  0.00  0.00    +0.000 A 
ATOM      3  C   UNL     1       0.451   9.582  22.097  0.00  0.00    +0.000 A 
ATOM      4  C   UNL     1       1.216   8.553  21.561  0.00  0.00    +0.000 A 
ATOM      5  C   UNL     1       1.439   8.466  20.187  0.00  0.00    +0.000 A 
ATOM      6  C   UNL     1       0.880   9.448  19.351  0.00  0.00    +0.000 A 
ENDROOT
BRANCH   5   7
ATOM      7  N   UNL     1       2.210   7.437  19.604  0.00  0.00    +0.000 N 
ATOM      8  C   UNL     1       2.769   7.442  18.335  0.00  0.00    +0.000 C 
ATOM      9  O   UNL     1       2.710   8.346  17.507  0.00  0.00    +0.000 OA
ATOM     10  H   UNL     1       2.438   6.627  20.174  0.00  0.00    +0.000 HD
BRANCH   8  11
ATOM     11  C   UNL     1       3.549   6.209  17.992  0.00  0.00    +0.000 A 
ATOM     12  C   UNL     1       2.872   5.016  17.768  0.00  0.00    +0.000 A 
ATOM     13  C   UNL     1       3.609   3.891  17.424  0.00  0.00    +0.000 A 
ATOM     14  C   UNL     1       4.995   3.994  17.318  0.00  0.00    +0.000 A 
ATOM     15  C   UNL     1       5.615   5.225  17.557  0.00  0.00    +0.000 A 
ATOM     16  N   UNL     1       4.902   6.342  17.898  0.00  0.00    +0.000 NA
BRANCH  15  17
ATOM     17  C   UNL     1       7.129   5.336  17.427  0.00  0.00    +0.000 C 
ATOM     18  F   UNL     1       7.695   4.293  16.751  0.00  0.00    +0.000 F 
ATOM     19  F   UNL     1       7.519   6.458  16.759  0.00  0.00    +0.000 F 
ATOM     20  F   UNL     1       7.763   5.376  18.634  0.00  0.00    +0.000 F 
ENDBRANCH  15  17
ENDBRANCH   8  11
ENDBRANCH   5   7
BRANCH   1  21
ATOM     21  C   UNL     1      -0.509  11.549  18.939  0.00  0.00    +0.000 C 
ATOM     22  C   UNL     1       0.313  12.837  19.071  0.00  0.00    +0.000 C 
BRANCH  21  23
ATOM     23  C   UNL     1      -2.017  11.809  19.173  0.00  0.00    +0.000 C 
BRANCH  23  29
ATOM     24  C   UNL     1      -5.168  11.934  19.009  0.00  0.00    +0.000 C 
ATOM     25  C   UNL     1      -4.230  11.611  17.914  0.00  0.00    +0.000 A 
ATOM     26  C   UNL     1      -4.458  11.246  16.605  0.00  0.00    +0.000 A 
ATOM     27  N   UNL     1      -3.272  11.041  15.966  0.00  0.00    +0.000 NA
ATOM     28  N   UNL     1      -2.296  11.253  16.838  0.00  0.00    +0.000 NA
ATOM     29  N   UNL     1      -2.859  11.600  18.010  0.00  0.00    +0.000 N 
ENDBRANCH  23  29
ENDBRANCH  21  23
ENDBRANCH   1  21
TORSDOF 6
ENDMDL
