MODEL 1
REMARK VINA RESULT:      -8.5      0.000      0.000
REMARK  Name = 
REMARK  7 active torsions:
REMARK  status: ('A' for Active; 'I' for Inactive)
REMARK    1  A    between atoms: C_2  and  O_3
REMARK    2  A    between atoms: C_2  and  C_4
REMARK    3  A    between atoms: C_7  and  S_8
REMARK    4  A    between atoms: S_8  and  N_11
REMARK    5  A    between atoms: N_11  and  C_12
REMARK    6  A    between atoms: C_17  and  C_18
REMARK    7  A    between atoms: C_18  and  C_19
REMARK                            x       y       z     vdW  Elec       q    Type
REMARK                         _______ _______ _______ _____ _____    ______ ____
ROOT
ATOM      1  S   UNL     1       5.044   4.424  18.783  0.00  0.00    +0.000 S 
ATOM      2  O   UNL     1       5.124   3.049  19.219  0.00  0.00    +0.000 OA
ATOM      3  O   UNL     1       5.592   5.482  19.599  0.00  0.00    +0.000 OA
ENDROOT
BRANCH   1   7
ATOM      4  C   UNL     1       6.810   4.614  14.580  0.00  0.00    +0.000 A 
ATOM      5  C   UNL     1       5.436   4.399  14.764  0.00  0.00    +0.000 A 
ATOM      6  C   UNL     1       4.900   4.315  16.053  0.00  0.00    +0.000 A 
ATOM      7  C   UNL     1       5.742   4.466  17.162  0.00  0.00    +0.000 A 
ATOM      8  C   UNL     1       7.110   4.621  16.978  0.00  0.00    +0.000 A 
ATOM      9  F   UNL     1       7.957   4.713  18.009  0.00  0.00    +0.000 F 
ATOM     10  C   UNL     1       7.651   4.707  15.693  0.00  0.00    +0.000 A 
BRANCH   4  12
ATOM     11  O   UNL     1       8.081   5.737  12.927  0.00  0.00    +0.000 OA
ATOM     12  C   UNL     1       7.302   4.839  13.198  0.00  0.00    +0.000 C 
BRANCH  12  13
ATOM     13  O   UNL     1       6.819   3.978  12.281  0.00  0.00    +0.000 OA
ATOM     14  H   UNL     1       7.428   3.729  11.563  0.00  0.00    +0.000 HD
ENDBRANCH  12  13
ENDBRANCH   4  12
ENDBRANCH   1   7
BRANCH   1  15
ATOM     15  N   UNL     1       3.405   4.721  18.534  0.00  0.00    +0.000 N 
ATOM     16  H   UNL     1       2.848   3.886  18.344  0.00  0.00    +0.000 HD
BRANCH  15  17
ATOM     17  C   UNL     1       2.767   5.843  19.130  0.00  0.00    +0.000 A 
ATOM     18  C   UNL     1       2.715   7.034  18.398  0.00  0.00    +0.000 A 
ATOM     19  C   UNL     1       2.066   8.155  18.919  0.00  0.00    +0.000 A 
ATOM     20  C   UNL     1       1.449   8.083  20.164  0.00  0.00    +0.000 A 
ATOM     21  C   UNL     1       1.494   6.898  20.896  0.00  0.00    +0.000 A 
ATOM     22  C   UNL     1       2.162   5.764  20.400  0.00  0.00    +0.000 A 
BRANCH  22  23
ATOM     23  C   UNL     1       2.247   4.538  21.285  0.00  0.00    +0.000 C 
BRANCH  23  24
ATOM     24  C   UNL     1       1.383   3.350  20.895  0.00  0.00    +0.000 C 
ATOM     25  F   UNL     1       0.887   2.675  21.954  0.00  0.00    +0.000 F 
ATOM     26  F   UNL     1       0.324   3.755  20.156  0.00  0.00    +0.000 F 
ATOM     27  F   UNL     1       2.085   2.470  20.141  0.00  0.00    +0.000 F 
ENDBRANCH  23  24
ENDBRANCH  22  23
ENDBRANCH  15  17
ENDBRANCH   1  15
TORSDOF 7
ENDMDL
MODEL 2
REMARK VINA RESULT:      -8.0      0.979      1.674
REMARK  Name = 
REMARK  7 active torsions:
REMARK  status: ('A' for Active; 'I' for Inactive)
REMARK    1  A    between atoms: C_2  and  O_3
REMARK    2  A    between atoms: C_2  and  C_4
REMARK    3  A    between atoms: C_7  and  S_8
REMARK    4  A    between atoms: S_8  and  N_11
REMARK    5  A    between atoms: N_11  and  C_12
REMARK    6  A    between atoms: C_17  and  C_18
REMARK    7  A    between atoms: C_18  and  C_19
REMARK                            x       y       z     vdW  Elec       q    Type
REMARK                         _______ _______ _______ _____ _____    ______ ____
ROOT
ATOM      1  S   UNL     1       5.037   4.497  18.787  0.00  0.00    +0.000 S 
ATOM      2  O   UNL     1       5.178   3.099  19.123  0.00  0.00    +0.000 OA
ATOM      3  O   UNL     1       5.571   5.516  19.659  0.00  0.00    +0.000 OA
ENDROOT
BRANCH   1   7
ATOM      4  C   UNL     1       6.783   4.902  14.590  0.00  0.00    +0.000 A 
ATOM      5  C   UNL     1       7.435   5.479  15.689  0.00  0.00    +0.000 A 
ATOM      6  C   UNL     1       6.885   5.377  16.971  0.00  0.00    +0.000 A 
ATOM      7  C   UNL     1       5.687   4.676  17.155  0.00  0.00    +0.000 A 
ATOM      8  C   UNL     1       5.014   4.154  16.058  0.00  0.00    +0.000 A 
ATOM      9  F   UNL     1       3.839   3.527  16.180  0.00  0.00    +0.000 F 
ATOM     10  C   UNL     1       5.558   4.253  14.775  0.00  0.00    +0.000 A 
BRANCH   4  12
ATOM     11  O   UNL     1       7.102   4.236  12.340  0.00  0.00    +0.000 OA
ATOM     12  C   UNL     1       7.480   4.915  13.280  0.00  0.00    +0.000 C 
BRANCH  12  13
ATOM     13  O   UNL     1       8.550   5.729  13.219  0.00  0.00    +0.000 OA
ATOM     14  H   UNL     1       9.420   5.293  13.168  0.00  0.00    +0.000 HD
ENDBRANCH  12  13
ENDBRANCH   4  12
ENDBRANCH   1   7
BRANCH   1  15
ATOM     15  N   UNL     1       3.383   4.749  18.602  0.00  0.00    +0.000 N 
ATOM     16  H   UNL     1       2.844   3.901  18.417  0.00  0.00    +0.000 HD
BRANCH  15  17
ATOM     17  C   UNL     1       2.735   5.841  19.241  0.00  0.00    +0.000 A 
ATOM     18  C   UNL     1       2.673   7.060  18.557  0.00  0.00    +0.000 A 
ATOM     19  C   UNL     1       2.015   8.154  19.120  0.00  0.00    +0.000 A 
ATOM     20  C   UNL     1       1.396   8.027  20.361  0.00  0.00    +0.000 A 
ATOM     21  C   UNL     1       1.450   6.815  21.045  0.00  0.00    +0.000 A 
ATOM     22  C   UNL     1       2.129   5.707  20.505  0.00  0.00    +0.000 A 
BRANCH  22  23
ATOM     23  C   UNL     1       2.222   4.447  21.341  0.00  0.00    +0.000 C 
BRANCH  23  24
ATOM     24  C   UNL     1       1.365   3.270  20.905  0.00  0.00    +0.000 C 
ATOM     25  F   UNL     1       0.336   3.621  20.104  0.00  0.00    +0.000 F 
ATOM     26  F   UNL     1       2.108   2.370  20.219  0.00  0.00    +0.000 F 
ATOM     27  F   UNL     1       0.847   2.627  21.978  0.00  0.00    +0.000 F 
ENDBRANCH  23  24
ENDBRANCH  22  23
ENDBRANCH  15  17
ENDBRANCH   1  15
TORSDOF 7
ENDMDL
MODEL 3
REMARK VINA RESULT:      -7.7      2.786      6.782
REMARK  Name = 
REMARK  7 active torsions:
REMARK  status: ('A' for Active; 'I' for Inactive)
REMARK    1  A    between atoms: C_2  and  O_3
REMARK    2  A    between atoms: C_2  and  C_4
REMARK    3  A    between atoms: C_7  and  S_8
REMARK    4  A    between atoms: S_8  and  N_11
REMARK    5  A    between atoms: N_11  and  C_12
REMARK    6  A    between atoms: C_17  and  C_18
REMARK    7  A    between atoms: C_18  and  C_19
REMARK                            x       y       z     vdW  Elec       q    Type
REMARK                         _______ _______ _______ _____ _____    ______ ____
ROOT
ATOM      1  S   UNL     1       2.913   3.223  17.852  0.00  0.00    +0.000 S 
ATOM      2  O   UNL     1       2.200   2.189  18.566  0.00  0.00    +0.000 OA
ATOM      3  O   UNL     1       2.715   3.399  16.432  0.00  0.00    +0.000 OA
ENDROOT
BRANCH   1   7
ATOM      4  C   UNL     1       1.991   7.123  20.035  0.00  0.00    +0.000 A 
ATOM      5  C   UNL     1       2.373   7.137  18.685  0.00  0.00    +0.000 A 
ATOM      6  C   UNL     1       2.680   5.944  18.025  0.00  0.00    +0.000 A 
ATOM      7  C   UNL     1       2.586   4.728  18.714  0.00  0.00    +0.000 A 
ATOM      8  C   UNL     1       2.264   4.721  20.065  0.00  0.00    +0.000 A 
ATOM      9  F   UNL     1       2.218   3.589  20.777  0.00  0.00    +0.000 F 
ATOM     10  C   UNL     1       1.955   5.910  20.730  0.00  0.00    +0.000 A 
BRANCH   4  12
ATOM     11  O   UNL     1       1.044   9.293  19.981  0.00  0.00    +0.000 OA
ATOM     12  C   UNL     1       1.537   8.397  20.645  0.00  0.00    +0.000 C 
BRANCH  12  13
ATOM     13  O   UNL     1       1.716   8.478  21.978  0.00  0.00    +0.000 OA
ATOM     14  H   UNL     1       2.236   7.762  22.386  0.00  0.00    +0.000 HD
ENDBRANCH  12  13
ENDBRANCH   4  12
ENDBRANCH   1   7
BRANCH   1  15
ATOM     15  N   UNL     1       4.544   2.926  18.143  0.00  0.00    +0.000 N 
ATOM     16  H   UNL     1       4.854   1.985  17.896  0.00  0.00    +0.000 HD
BRANCH  15  17
ATOM     17  C   UNL     1       5.494   3.984  18.117  0.00  0.00    +0.000 A 
ATOM     18  C   UNL     1       5.747   4.670  19.309  0.00  0.00    +0.000 A 
ATOM     19  C   UNL     1       6.698   5.690  19.350  0.00  0.00    +0.000 A 
ATOM     20  C   UNL     1       7.417   6.014  18.202  0.00  0.00    +0.000 A 
ATOM     21  C   UNL     1       7.172   5.332  17.012  0.00  0.00    +0.000 A 
ATOM     22  C   UNL     1       6.201   4.316  16.945  0.00  0.00    +0.000 A 
BRANCH  22  23
ATOM     23  C   UNL     1       5.927   3.676  15.600  0.00  0.00    +0.000 C 
BRANCH  23  24
ATOM     24  C   UNL     1       5.716   4.615  14.424  0.00  0.00    +0.000 C 
ATOM     25  F   UNL     1       4.981   4.074  13.428  0.00  0.00    +0.000 F 
ATOM     26  F   UNL     1       5.072   5.738  14.821  0.00  0.00    +0.000 F 
ATOM     27  F   UNL     1       6.902   5.000  13.894  0.00  0.00    +0.000 F 
ENDBRANCH  23  24
ENDBRANCH  22  23
ENDBRANCH  15  17
ENDBRANCH   1  15
TORSDOF 7
ENDMDL
MODEL 4
REMARK VINA RESULT:      -7.6      3.041      6.845
REMARK  Name = 
REMARK  7 active torsions:
REMARK  status: ('A' for Active; 'I' for Inactive)
REMARK    1  A    between atoms: C_2  and  O_3
REMARK    2  A    between atoms: C_2  and  C_4
REMARK    3  A    between atoms: C_7  and  S_8
REMARK    4  A    between atoms: S_8  and  N_11
REMARK    5  A    between atoms: N_11  and  C_12
REMARK    6  A    between atoms: C_17  and  C_18
REMARK    7  A    between atoms: C_18  and  C_19
REMARK                            x       y       z     vdW  Elec       q    Type
REMARK                         _______ _______ _______ _____ _____    ______ ____
ROOT
ATOM      1  S   UNL     1       3.082   3.407  18.182  0.00  0.00    +0.000 S 
ATOM      2  O   UNL     1       2.770   2.363  19.130  0.00  0.00    +0.000 OA
ATOM      3  O   UNL     1       2.612   3.321  16.819  0.00  0.00    +0.000 OA
ENDROOT
BRANCH   1   7
ATOM      4  C   UNL     1       1.779   7.305  20.166  0.00  0.00    +0.000 A 
ATOM      5  C   UNL     1       1.540   6.074  20.794  0.00  0.00    +0.000 A 
ATOM      6  C   UNL     1       1.916   4.879  20.173  0.00  0.00    +0.000 A 
ATOM      7  C   UNL     1       2.552   4.918  18.925  0.00  0.00    +0.000 A 
ATOM      8  C   UNL     1       2.736   6.134  18.280  0.00  0.00    +0.000 A 
ATOM      9  F   UNL     1       3.287   6.215  17.064  0.00  0.00    +0.000 F 
ATOM     10  C   UNL     1       2.362   7.331  18.895  0.00  0.00    +0.000 A 
BRANCH   4  12
ATOM     11  O   UNL     1       0.939   9.505  20.420  0.00  0.00    +0.000 OA
ATOM     12  C   UNL     1       1.492   8.545  20.929  0.00  0.00    +0.000 C 
BRANCH  12  13
ATOM     13  O   UNL     1       1.891   8.519  22.215  0.00  0.00    +0.000 OA
ATOM     14  H   UNL     1       2.517   7.812  22.457  0.00  0.00    +0.000 HD
ENDBRANCH  12  13
ENDBRANCH   4  12
ENDBRANCH   1   7
BRANCH   1  15
ATOM     15  N   UNL     1       4.762   3.519  18.174  0.00  0.00    +0.000 N 
ATOM     16  H   UNL     1       5.234   2.833  18.766  0.00  0.00    +0.000 HD
BRANCH  15  17
ATOM     17  C   UNL     1       5.454   4.034  17.044  0.00  0.00    +0.000 A 
ATOM     18  C   UNL     1       5.352   3.336  15.836  0.00  0.00    +0.000 A 
ATOM     19  C   UNL     1       5.977   3.818  14.686  0.00  0.00    +0.000 A 
ATOM     20  C   UNL     1       6.690   5.012  14.733  0.00  0.00    +0.000 A 
ATOM     21  C   UNL     1       6.793   5.714  15.932  0.00  0.00    +0.000 A 
ATOM     22  C   UNL     1       6.189   5.234  17.108  0.00  0.00    +0.000 A 
BRANCH  22  23
ATOM     23  C   UNL     1       6.413   6.002  18.394  0.00  0.00    +0.000 C 
BRANCH  23  24
ATOM     24  C   UNL     1       7.774   5.854  19.053  0.00  0.00    +0.000 C 
ATOM     25  F   UNL     1       8.565   6.938  18.902  0.00  0.00    +0.000 F 
ATOM     26  F   UNL     1       7.638   5.650  20.384  0.00  0.00    +0.000 F 
ATOM     27  F   UNL     1       8.441   4.788  18.550  0.00  0.00    +0.000 F 
ENDBRANCH  23  24
ENDBRANCH  22  23
ENDBRANCH  15  17
ENDBRANCH   1  15
TORSDOF 7
ENDMDL
MODEL 5
REMARK VINA RESULT:      -7.6      2.853      6.575
REMARK  Name = 
REMARK  7 active torsions:
REMARK  status: ('A' for Active; 'I' for Inactive)
REMARK    1  A    between atoms: C_2  and  O_3
REMARK    2  A    between atoms: C_2  and  C_4
REMARK    3  A    between atoms: C_7  and  S_8
REMARK    4  A    between atoms: S_8  and  N_11
REMARK    5  A    between atoms: N_11  and  C_12
REMARK    6  A    between atoms: C_17  and  C_18
REMARK    7  A    between atoms: C_18  and  C_19
REMARK                            x       y       z     vdW  Elec       q    Type
REMARK                         _______ _______ _______ _____ _____    ______ ____
ROOT
ATOM      1  S   UNL     1       3.383   3.750  18.683  0.00  0.00    +0.000 S 
ATOM      2  O   UNL     1       3.808   3.401  20.019  0.00  0.00    +0.000 OA
ATOM      3  O   UNL     1       2.367   2.972  18.014  0.00  0.00    +0.000 OA
ENDROOT
BRANCH   1   7
ATOM      4  C   UNL     1       2.119   8.133  18.786  0.00  0.00    +0.000 A 
ATOM      5  C   UNL     1       2.705   7.590  17.633  0.00  0.00    +0.000 A 
ATOM      6  C   UNL     1       3.116   6.253  17.612  0.00  0.00    +0.000 A 
ATOM      7  C   UNL     1       2.921   5.452  18.745  0.00  0.00    +0.000 A 
ATOM      8  C   UNL     1       2.393   6.008  19.903  0.00  0.00    +0.000 A 
ATOM      9  F   UNL     1       2.242   5.295  21.025  0.00  0.00    +0.000 F 
ATOM     10  C   UNL     1       1.981   7.342  19.930  0.00  0.00    +0.000 A 
BRANCH   4  12
ATOM     11  O   UNL     1       0.916   9.999  19.612  0.00  0.00    +0.000 OA
ATOM     12  C   UNL     1       1.571   9.510  18.707  0.00  0.00    +0.000 C 
BRANCH  12  13
ATOM     13  O   UNL     1       1.855  10.164  17.564  0.00  0.00    +0.000 OA
ATOM     14  H   UNL     1       1.113  10.635  17.143  0.00  0.00    +0.000 HD
ENDBRANCH  12  13
ENDBRANCH   4  12
ENDBRANCH   1   7
BRANCH   1  15
ATOM     15  N   UNL     1       4.784   3.736  17.750  0.00  0.00    +0.000 N 
ATOM     16  H   UNL     1       4.678   3.296  16.834  0.00  0.00    +0.000 HD
BRANCH  15  17
ATOM     17  C   UNL     1       5.779   4.739  17.912  0.00  0.00    +0.000 A 
ATOM     18  C   UNL     1       6.364   4.886  19.174  0.00  0.00    +0.000 A 
ATOM     19  C   UNL     1       7.373   5.828  19.379  0.00  0.00    +0.000 A 
ATOM     20  C   UNL     1       7.817   6.611  18.317  0.00  0.00    +0.000 A 
ATOM     21  C   UNL     1       7.241   6.467  17.057  0.00  0.00    +0.000 A 
ATOM     22  C   UNL     1       6.207   5.539  16.834  0.00  0.00    +0.000 A 
BRANCH  22  23
ATOM     23  C   UNL     1       5.567   5.495  15.462  0.00  0.00    +0.000 C 
BRANCH  23  24
ATOM     24  C   UNL     1       6.153   4.511  14.464  0.00  0.00    +0.000 C 
ATOM     25  F   UNL     1       7.200   5.007  13.770  0.00  0.00    +0.000 F 
ATOM     26  F   UNL     1       6.593   3.398  15.096  0.00  0.00    +0.000 F 
ATOM     27  F   UNL     1       5.218   4.118  13.567  0.00  0.00    +0.000 F 
ENDBRANCH  23  24
ENDBRANCH  22  23
ENDBRANCH  15  17
ENDBRANCH   1  15
TORSDOF 7
ENDMDL
MODEL 6
REMARK VINA RESULT:      -7.5      3.244      4.483
REMARK  Name = 
REMARK  7 active torsions:
REMARK  status: ('A' for Active; 'I' for Inactive)
REMARK    1  A    between atoms: C_2  and  O_3
REMARK    2  A    between atoms: C_2  and  C_4
REMARK    3  A    between atoms: C_7  and  S_8
REMARK    4  A    between atoms: S_8  and  N_11
REMARK    5  A    between atoms: N_11  and  C_12
REMARK    6  A    between atoms: C_17  and  C_18
REMARK    7  A    between atoms: C_18  and  C_19
REMARK                            x       y       z     vdW  Elec       q    Type
REMARK                         _______ _______ _______ _____ _____    ______ ____
ROOT
ATOM      1  S   UNL     1       5.507   4.328  17.549  0.00  0.00    +0.000 S 
ATOM      2  O   UNL     1       5.946   3.716  16.317  0.00  0.00    +0.000 OA
ATOM      3  O   UNL     1       5.528   3.581  18.785  0.00  0.00    +0.000 OA
ENDROOT
BRANCH   1   7
ATOM      4  C   UNL     1       7.837   8.223  18.024  0.00  0.00    +0.000 A 
ATOM      5  C   UNL     1       6.663   8.187  17.257  0.00  0.00    +0.000 A 
ATOM      6  C   UNL     1       5.965   6.987  17.090  0.00  0.00    +0.000 A 
ATOM      7  C   UNL     1       6.433   5.822  17.712  0.00  0.00    +0.000 A 
ATOM      8  C   UNL     1       7.626   5.849  18.424  0.00  0.00    +0.000 A 
ATOM      9  F   UNL     1       8.139   4.749  18.986  0.00  0.00    +0.000 F 
ATOM     10  C   UNL     1       8.328   7.044  18.594  0.00  0.00    +0.000 A 
BRANCH   4  12
ATOM     11  O   UNL     1       8.227  10.519  17.590  0.00  0.00    +0.000 OA
ATOM     12  C   UNL     1       8.457   9.545  18.288  0.00  0.00    +0.000 C 
BRANCH  12  13
ATOM     13  O   UNL     1       9.286   9.577  19.349  0.00  0.00    +0.000 OA
ATOM     14  H   UNL     1       9.695   8.729  19.600  0.00  0.00    +0.000 HD
ENDBRANCH  12  13
ENDBRANCH   4  12
ENDBRANCH   1   7
BRANCH   1  15
ATOM     15  N   UNL     1       3.933   4.850  17.254  0.00  0.00    +0.000 N 
ATOM     16  H   UNL     1       3.738   5.077  16.277  0.00  0.00    +0.000 HD
BRANCH  15  17
ATOM     17  C   UNL     1       2.857   4.427  18.082  0.00  0.00    +0.000 A 
ATOM     18  C   UNL     1       2.277   3.181  17.822  0.00  0.00    +0.000 A 
ATOM     19  C   UNL     1       1.245   2.699  18.627  0.00  0.00    +0.000 A 
ATOM     20  C   UNL     1       0.802   3.452  19.711  0.00  0.00    +0.000 A 
ATOM     21  C   UNL     1       1.377   4.693  19.978  0.00  0.00    +0.000 A 
ATOM     22  C   UNL     1       2.404   5.206  19.164  0.00  0.00    +0.000 A 
BRANCH  22  23
ATOM     23  C   UNL     1       2.924   6.598  19.460  0.00  0.00    +0.000 C 
BRANCH  23  24
ATOM     24  C   UNL     1       2.325   7.739  18.656  0.00  0.00    +0.000 C 
ATOM     25  F   UNL     1       3.250   8.524  18.063  0.00  0.00    +0.000 F 
ATOM     26  F   UNL     1       1.528   7.261  17.672  0.00  0.00    +0.000 F 
ATOM     27  F   UNL     1       1.558   8.533  19.441  0.00  0.00    +0.000 F 
ENDBRANCH  23  24
ENDBRANCH  22  23
ENDBRANCH  15  17
ENDBRANCH   1  15
TORSDOF 7
ENDMDL
MODEL 7
REMARK VINA RESULT:      -7.5      3.736      7.496
REMARK  Name = 
REMARK  7 active torsions:
REMARK  status: ('A' for Active; 'I' for Inactive)
REMARK    1  A    between atoms: C_2  and  O_3
REMARK    2  A    between atoms: C_2  and  C_4
REMARK    3  A    between atoms: C_7  and  S_8
REMARK    4  A    between atoms: S_8  and  N_11
REMARK    5  A    between atoms: N_11  and  C_12
REMARK    6  A    between atoms: C_17  and  C_18
REMARK    7  A    between atoms: C_18  and  C_19
REMARK                            x       y       z     vdW  Elec       q    Type
REMARK                         _______ _______ _______ _____ _____    ______ ____
ROOT
ATOM      1  S   UNL     1       2.707   7.076  18.580  0.00  0.00    +0.000 S 
ATOM      2  O   UNL     1       1.768   6.241  17.867  0.00  0.00    +0.000 OA
ATOM      3  O   UNL     1       3.769   7.751  17.871  0.00  0.00    +0.000 OA
ENDROOT
BRANCH   1   7
ATOM      4  C   UNL     1       0.273  10.101  20.979  0.00  0.00    +0.000 A 
ATOM      5  C   UNL     1       0.781   8.948  21.596  0.00  0.00    +0.000 A 
ATOM      6  C   UNL     1       1.504   8.009  20.854  0.00  0.00    +0.000 A 
ATOM      7  C   UNL     1       1.736   8.236  19.491  0.00  0.00    +0.000 A 
ATOM      8  C   UNL     1       1.184   9.349  18.870  0.00  0.00    +0.000 A 
ATOM      9  F   UNL     1       1.333   9.575  17.560  0.00  0.00    +0.000 F 
ATOM     10  C   UNL     1       0.461  10.290  19.606  0.00  0.00    +0.000 A 
BRANCH   4  12
ATOM     11  O   UNL     1      -0.343  11.057  23.056  0.00  0.00    +0.000 OA
ATOM     12  C   UNL     1      -0.360  11.132  21.839  0.00  0.00    +0.000 C 
BRANCH  12  13
ATOM     13  O   UNL     1      -0.946  12.142  21.168  0.00  0.00    +0.000 OA
ATOM     14  H   UNL     1      -1.920  12.162  21.188  0.00  0.00    +0.000 HD
ENDBRANCH  12  13
ENDBRANCH   4  12
ENDBRANCH   1   7
BRANCH   1  15
ATOM     15  N   UNL     1       3.382   6.085  19.762  0.00  0.00    +0.000 N 
ATOM     16  H   UNL     1       3.766   6.586  20.565  0.00  0.00    +0.000 HD
BRANCH  15  17
ATOM     17  C   UNL     1       2.923   4.752  19.946  0.00  0.00    +0.000 A 
ATOM     18  C   UNL     1       1.829   4.545  20.792  0.00  0.00    +0.000 A 
ATOM     19  C   UNL     1       1.312   3.263  20.978  0.00  0.00    +0.000 A 
ATOM     20  C   UNL     1       1.873   2.184  20.301  0.00  0.00    +0.000 A 
ATOM     21  C   UNL     1       2.961   2.384  19.454  0.00  0.00    +0.000 A 
ATOM     22  C   UNL     1       3.512   3.666  19.270  0.00  0.00    +0.000 A 
BRANCH  22  23
ATOM     23  C   UNL     1       4.746   3.797  18.403  0.00  0.00    +0.000 C 
BRANCH  23  24
ATOM     24  C   UNL     1       4.520   4.003  16.915  0.00  0.00    +0.000 C 
ATOM     25  F   UNL     1       4.735   5.273  16.508  0.00  0.00    +0.000 F 
ATOM     26  F   UNL     1       5.352   3.215  16.194  0.00  0.00    +0.000 F 
ATOM     27  F   UNL     1       3.254   3.672  16.568  0.00  0.00    +0.000 F 
ENDBRANCH  23  24
ENDBRANCH  22  23
ENDBRANCH  15  17
ENDBRANCH   1  15
TORSDOF 7
ENDMDL
MODEL 8
REMARK VINA RESULT:      -7.5      1.185      1.345
REMARK  Name = 
REMARK  7 active torsions:
REMARK  status: ('A' for Active; 'I' for Inactive)
REMARK    1  A    between atoms: C_2  and  O_3
REMARK    2  A    between atoms: C_2  and  C_4
REMARK    3  A    between atoms: C_7  and  S_8
REMARK    4  A    between atoms: S_8  and  N_11
REMARK    5  A    between atoms: N_11  and  C_12
REMARK    6  A    between atoms: C_17  and  C_18
REMARK    7  A    between atoms: C_18  and  C_19
REMARK                            x       y       z     vdW  Elec       q    Type
REMARK                         _______ _______ _______ _____ _____    ______ ____
ROOT
ATOM      1  S   UNL     1       3.905   3.403  17.554  0.00  0.00    +0.000 S 
ATOM      2  O   UNL     1       2.627   3.848  17.048  0.00  0.00    +0.000 OA
ATOM      3  O   UNL     1       4.094   2.028  17.951  0.00  0.00    +0.000 OA
ENDROOT
BRANCH   1   7
ATOM      4  C   UNL     1       6.945   4.675  14.397  0.00  0.00    +0.000 A 
ATOM      5  C   UNL     1       5.701   4.151  14.015  0.00  0.00    +0.000 A 
ATOM      6  C   UNL     1       4.782   3.737  14.983  0.00  0.00    +0.000 A 
ATOM      7  C   UNL     1       5.101   3.867  16.341  0.00  0.00    +0.000 A 
ATOM      8  C   UNL     1       6.354   4.332  16.716  0.00  0.00    +0.000 A 
ATOM      9  F   UNL     1       6.723   4.419  17.999  0.00  0.00    +0.000 F 
ATOM     10  C   UNL     1       7.278   4.748  15.754  0.00  0.00    +0.000 A 
BRANCH   4  12
ATOM     11  O   UNL     1       8.760   5.969  13.595  0.00  0.00    +0.000 OA
ATOM     12  C   UNL     1       7.823   5.232  13.338  0.00  0.00    +0.000 C 
BRANCH  12  13
ATOM     13  O   UNL     1       7.500   4.857  12.085  0.00  0.00    +0.000 OA
ATOM     14  H   UNL     1       8.141   4.281  11.630  0.00  0.00    +0.000 HD
ENDBRANCH  12  13
ENDBRANCH   4  12
ENDBRANCH   1   7
BRANCH   1  15
ATOM     15  N   UNL     1       4.240   4.402  18.867  0.00  0.00    +0.000 N 
ATOM     16  H   UNL     1       5.228   4.449  19.122  0.00  0.00    +0.000 HD
BRANCH  15  17
ATOM     17  C   UNL     1       3.406   5.513  19.170  0.00  0.00    +0.000 A 
ATOM     18  C   UNL     1       3.481   6.637  18.341  0.00  0.00    +0.000 A 
ATOM     19  C   UNL     1       2.657   7.740  18.569  0.00  0.00    +0.000 A 
ATOM     20  C   UNL     1       1.738   7.714  19.615  0.00  0.00    +0.000 A 
ATOM     21  C   UNL     1       1.656   6.596  20.442  0.00  0.00    +0.000 A 
ATOM     22  C   UNL     1       2.494   5.483  20.243  0.00  0.00    +0.000 A 
BRANCH  22  23
ATOM     23  C   UNL     1       2.411   4.339  21.231  0.00  0.00    +0.000 C 
BRANCH  23  24
ATOM     24  C   UNL     1       1.448   3.212  20.896  0.00  0.00    +0.000 C 
ATOM     25  F   UNL     1       0.867   2.660  21.983  0.00  0.00    +0.000 F 
ATOM     26  F   UNL     1       0.448   3.662  20.103  0.00  0.00    +0.000 F 
ATOM     27  F   UNL     1       2.079   2.221  20.223  0.00  0.00    +0.000 F 
ENDBRANCH  23  24
ENDBRANCH  22  23
ENDBRANCH  15  17
ENDBRANCH   1  15
TORSDOF 7
ENDMDL
MODEL 9
REMARK VINA RESULT:      -7.5      2.710      6.845
REMARK  Name = 
REMARK  7 active torsions:
REMARK  status: ('A' for Active; 'I' for Inactive)
REMARK    1  A    between atoms: C_2  and  O_3
REMARK    2  A    between atoms: C_2  and  C_4
REMARK    3  A    between atoms: C_7  and  S_8
REMARK    4  A    between atoms: S_8  and  N_11
REMARK    5  A    between atoms: N_11  and  C_12
REMARK    6  A    between atoms: C_17  and  C_18
REMARK    7  A    between atoms: C_18  and  C_19
REMARK                            x       y       z     vdW  Elec       q    Type
REMARK                         _______ _______ _______ _____ _____    ______ ____
ROOT
ATOM      1  S   UNL     1       3.338   3.104  18.151  0.00  0.00    +0.000 S 
ATOM      2  O   UNL     1       3.890   2.302  19.219  0.00  0.00    +0.000 OA
ATOM      3  O   UNL     1       2.265   2.591  17.332  0.00  0.00    +0.000 OA
ENDROOT
BRANCH   1   7
ATOM      4  C   UNL     1       2.074   7.083  19.992  0.00  0.00    +0.000 A 
ATOM      5  C   UNL     1       2.472   7.017  18.649  0.00  0.00    +0.000 A 
ATOM      6  C   UNL     1       2.885   5.802  18.094  0.00  0.00    +0.000 A 
ATOM      7  C   UNL     1       2.879   4.644  18.882  0.00  0.00    +0.000 A 
ATOM      8  C   UNL     1       2.539   4.723  20.226  0.00  0.00    +0.000 A 
ATOM      9  F   UNL     1       2.574   3.654  21.030  0.00  0.00    +0.000 F 
ATOM     10  C   UNL     1       2.126   5.933  20.787  0.00  0.00    +0.000 A 
BRANCH   4  12
ATOM     11  O   UNL     1       0.956   9.157  19.749  0.00  0.00    +0.000 OA
ATOM     12  C   UNL     1       1.510   8.362  20.490  0.00  0.00    +0.000 C 
BRANCH  12  13
ATOM     13  O   UNL     1       1.661   8.567  21.813  0.00  0.00    +0.000 OA
ATOM     14  H   UNL     1       1.868   7.780  22.349  0.00  0.00    +0.000 HD
ENDBRANCH  12  13
ENDBRANCH   4  12
ENDBRANCH   1   7
BRANCH   1  15
ATOM     15  N   UNL     1       4.644   3.491  17.160  0.00  0.00    +0.000 N 
ATOM     16  H   UNL     1       4.487   3.316  16.166  0.00  0.00    +0.000 HD
BRANCH  15  17
ATOM     17  C   UNL     1       5.570   4.502  17.535  0.00  0.00    +0.000 A 
ATOM     18  C   UNL     1       6.002   4.537  18.865  0.00  0.00    +0.000 A 
ATOM     19  C   UNL     1       6.941   5.483  19.279  0.00  0.00    +0.000 A 
ATOM     20  C   UNL     1       7.468   6.385  18.358  0.00  0.00    +0.000 A 
ATOM     21  C   UNL     1       7.045   6.352  17.031  0.00  0.00    +0.000 A 
ATOM     22  C   UNL     1       6.083   5.421  16.599  0.00  0.00    +0.000 A 
BRANCH  22  23
ATOM     23  C   UNL     1       5.605   5.499  15.164  0.00  0.00    +0.000 C 
BRANCH  23  24
ATOM     24  C   UNL     1       6.270   4.562  14.169  0.00  0.00    +0.000 C 
ATOM     25  F   UNL     1       7.238   5.154  13.436  0.00  0.00    +0.000 F 
ATOM     26  F   UNL     1       6.846   3.519  14.810  0.00  0.00    +0.000 F 
ATOM     27  F   UNL     1       5.361   4.050  13.306  0.00  0.00    +0.000 F 
ENDBRANCH  23  24
ENDBRANCH  22  23
ENDBRANCH  15  17
ENDBRANCH   1  15
TORSDOF 7
ENDMDL
