MODEL 1
REMARK VINA RESULT:      -7.7      0.000      0.000
REMARK  Name = 
REMARK  3 active torsions:
REMARK  status: ('A' for Active; 'I' for Inactive)
REMARK    1  A    between atoms: C_1  and  C_2
REMARK    2  A    between atoms: N_5  and  C_6
REMARK    3  A    between atoms: C_6  and  C_7
REMARK                            x       y       z     vdW  Elec       q    Type
REMARK                         _______ _______ _______ _____ _____    ______ ____
ROOT
ATOM      1  C   UNL     1       2.683   7.476  18.129  0.00  0.00    +0.000 C 
ATOM      2  C   UNL     1       2.956   6.002  18.072  0.00  0.00    +0.000 A 
ATOM      3  N   UNL     1       4.285   5.645  17.937  0.00  0.00    +0.000 NA
ATOM      4  C   UNL     1       4.633   4.332  17.893  0.00  0.00    +0.000 A 
ATOM      5  N   UNL     1       5.923   3.904  17.787  0.00  0.00    +0.000 N 
ATOM      6  C   UNL     1       3.534   3.480  17.984  0.00  0.00    +0.000 A 
ATOM      7  C   UNL     1       3.517   2.110  17.945  0.00  0.00    +0.000 A 
ATOM      8  N   UNL     1       2.195   1.782  18.039  0.00  0.00    +0.000 N 
ATOM      9  N   UNL     1       1.365   2.841  18.132  0.00  0.00    +0.000 NA
ATOM     10  C   UNL     1       2.188   3.893  18.092  0.00  0.00    +0.000 A 
ATOM     11  N   UNL     1       1.847   5.203  18.142  0.00  0.00    +0.000 NA
ATOM     12  H   UNL     1       6.173   3.017  18.210  0.00  0.00    +0.000 HD
ATOM     13  H   UNL     1       1.784   0.852  18.054  0.00  0.00    +0.000 HD
ENDROOT
BRANCH   5  14
ATOM     14  C   UNL     1       6.962   4.639  17.111  0.00  0.00    +0.000 C 
BRANCH  14  15
ATOM     15  C   UNL     1       6.859   4.530  15.617  0.00  0.00    +0.000 A 
ATOM     16  C   UNL     1       6.079   3.771  14.773  0.00  0.00    +0.000 A 
ATOM     17  C   UNL     1       6.454   4.106  13.450  0.00  0.00    +0.000 A 
ATOM     18  C   UNL     1       7.450   5.049  13.569  0.00  0.00    +0.000 A 
ATOM     19  O   UNL     1       7.708   5.312  14.877  0.00  0.00    +0.000 OA
ENDBRANCH  14  15
ENDBRANCH   5  14
TORSDOF 2
ENDMDL
MODEL 2
REMARK VINA RESULT:      -7.6      2.869      6.043
REMARK  Name = 
REMARK  3 active torsions:
REMARK  status: ('A' for Active; 'I' for Inactive)
REMARK    1  A    between atoms: C_1  and  C_2
REMARK    2  A    between atoms: N_5  and  C_6
REMARK    3  A    between atoms: C_6  and  C_7
REMARK                            x       y       z     vdW  Elec       q    Type
REMARK                         _______ _______ _______ _____ _____    ______ ____
ROOT
ATOM      1  C   UNL     1       6.019   3.882  13.596  0.00  0.00    +0.000 C 
ATOM      2  C   UNL     1       6.168   4.372  15.007  0.00  0.00    +0.000 A 
ATOM      3  N   UNL     1       5.443   3.680  15.960  0.00  0.00    +0.000 NA
ATOM      4  C   UNL     1       5.527   4.039  17.267  0.00  0.00    +0.000 A 
ATOM      5  N   UNL     1       4.864   3.389  18.264  0.00  0.00    +0.000 N 
ATOM      6  C   UNL     1       6.373   5.127  17.474  0.00  0.00    +0.000 A 
ATOM      7  C   UNL     1       6.665   5.762  18.652  0.00  0.00    +0.000 A 
ATOM      8  N   UNL     1       7.510   6.774  18.296  0.00  0.00    +0.000 N 
ATOM      9  N   UNL     1       7.777   6.834  16.974  0.00  0.00    +0.000 NA
ATOM     10  C   UNL     1       7.072   5.822  16.462  0.00  0.00    +0.000 A 
ATOM     11  N   UNL     1       6.989   5.456  15.161  0.00  0.00    +0.000 NA
ATOM     12  H   UNL     1       5.284   3.364  19.187  0.00  0.00    +0.000 HD
ATOM     13  H   UNL     1       7.951   7.460  18.902  0.00  0.00    +0.000 HD
ENDROOT
BRANCH   5  14
ATOM     14  C   UNL     1       3.596   2.725  18.090  0.00  0.00    +0.000 C 
BRANCH  14  15
ATOM     15  C   UNL     1       2.744   2.791  19.324  0.00  0.00    +0.000 A 
ATOM     16  C   UNL     1       1.385   2.870  19.535  0.00  0.00    +0.000 A 
ATOM     17  C   UNL     1       1.186   2.916  20.935  0.00  0.00    +0.000 A 
ATOM     18  C   UNL     1       2.443   2.868  21.496  0.00  0.00    +0.000 A 
ATOM     19  O   UNL     1       3.396   2.797  20.530  0.00  0.00    +0.000 OA
ENDBRANCH  14  15
ENDBRANCH   5  14
TORSDOF 2
ENDMDL
MODEL 3
REMARK VINA RESULT:      -7.5      2.813      5.770
REMARK  Name = 
REMARK  3 active torsions:
REMARK  status: ('A' for Active; 'I' for Inactive)
REMARK    1  A    between atoms: C_1  and  C_2
REMARK    2  A    between atoms: N_5  and  C_6
REMARK    3  A    between atoms: C_6  and  C_7
REMARK                            x       y       z     vdW  Elec       q    Type
REMARK                         _______ _______ _______ _____ _____    ______ ____
ROOT
ATOM      1  C   UNL     1       7.569   5.678  19.549  0.00  0.00    +0.000 C 
ATOM      2  C   UNL     1       6.968   5.208  18.257  0.00  0.00    +0.000 A 
ATOM      3  N   UNL     1       5.810   4.460  18.372  0.00  0.00    +0.000 NA
ATOM      4  C   UNL     1       5.184   4.004  17.256  0.00  0.00    +0.000 A 
ATOM      5  N   UNL     1       4.027   3.284  17.290  0.00  0.00    +0.000 N 
ATOM      6  C   UNL     1       5.842   4.366  16.083  0.00  0.00    +0.000 A 
ATOM      7  C   UNL     1       5.507   4.055  14.791  0.00  0.00    +0.000 A 
ATOM      8  N   UNL     1       6.493   4.622  14.035  0.00  0.00    +0.000 N 
ATOM      9  N   UNL     1       7.437   5.269  14.750  0.00  0.00    +0.000 NA
ATOM     10  C   UNL     1       7.042   5.109  16.015  0.00  0.00    +0.000 A 
ATOM     11  N   UNL     1       7.659   5.566  17.131  0.00  0.00    +0.000 NA
ATOM     12  H   UNL     1       3.382   3.370  16.512  0.00  0.00    +0.000 HD
ATOM     13  H   UNL     1       6.585   4.614  13.023  0.00  0.00    +0.000 HD
ENDROOT
BRANCH   5  14
ATOM     14  C   UNL     1       3.657   2.405  18.370  0.00  0.00    +0.000 C 
BRANCH  14  15
ATOM     15  C   UNL     1       2.663   3.035  19.303  0.00  0.00    +0.000 A 
ATOM     16  C   UNL     1       1.493   3.736  19.110  0.00  0.00    +0.000 A 
ATOM     17  C   UNL     1       1.006   4.088  20.391  0.00  0.00    +0.000 A 
ATOM     18  C   UNL     1       1.917   3.583  21.292  0.00  0.00    +0.000 A 
ATOM     19  O   UNL     1       2.929   2.947  20.645  0.00  0.00    +0.000 OA
ENDBRANCH  14  15
ENDBRANCH   5  14
TORSDOF 2
ENDMDL
MODEL 4
REMARK VINA RESULT:      -7.4      1.408      2.360
REMARK  Name = 
REMARK  3 active torsions:
REMARK  status: ('A' for Active; 'I' for Inactive)
REMARK    1  A    between atoms: C_1  and  C_2
REMARK    2  A    between atoms: N_5  and  C_6
REMARK    3  A    between atoms: C_6  and  C_7
REMARK                            x       y       z     vdW  Elec       q    Type
REMARK                         _______ _______ _______ _____ _____    ______ ____
ROOT
ATOM      1  C   UNL     1       2.459   7.352  18.126  0.00  0.00    +0.000 C 
ATOM      2  C   UNL     1       2.730   5.878  18.040  0.00  0.00    +0.000 A 
ATOM      3  N   UNL     1       4.029   5.526  17.723  0.00  0.00    +0.000 NA
ATOM      4  C   UNL     1       4.374   4.214  17.639  0.00  0.00    +0.000 A 
ATOM      5  N   UNL     1       5.638   3.791  17.358  0.00  0.00    +0.000 N 
ATOM      6  C   UNL     1       3.303   3.358  17.887  0.00  0.00    +0.000 A 
ATOM      7  C   UNL     1       3.287   1.988  17.859  0.00  0.00    +0.000 A 
ATOM      8  N   UNL     1       1.993   1.654  18.138  0.00  0.00    +0.000 N 
ATOM      9  N   UNL     1       1.178   2.711  18.338  0.00  0.00    +0.000 NA
ATOM     10  C   UNL     1       1.982   3.766  18.179  0.00  0.00    +0.000 A 
ATOM     11  N   UNL     1       1.645   5.075  18.267  0.00  0.00    +0.000 NA
ATOM     12  H   UNL     1       5.950   2.907  17.747  0.00  0.00    +0.000 HD
ATOM     13  H   UNL     1       1.592   0.724  18.215  0.00  0.00    +0.000 HD
ENDROOT
BRANCH   5  14
ATOM     14  C   UNL     1       6.571   4.525  16.540  0.00  0.00    +0.000 C 
BRANCH  14  15
ATOM     15  C   UNL     1       7.165   5.698  17.266  0.00  0.00    +0.000 A 
ATOM     16  C   UNL     1       7.735   5.853  18.511  0.00  0.00    +0.000 A 
ATOM     17  C   UNL     1       8.100   7.215  18.631  0.00  0.00    +0.000 A 
ATOM     18  C   UNL     1       7.722   7.812  17.449  0.00  0.00    +0.000 A 
ATOM     19  O   UNL     1       7.150   6.904  16.615  0.00  0.00    +0.000 OA
ENDBRANCH  14  15
ENDBRANCH   5  14
TORSDOF 2
ENDMDL
MODEL 5
REMARK VINA RESULT:      -7.4      3.037      5.769
REMARK  Name = 
REMARK  3 active torsions:
REMARK  status: ('A' for Active; 'I' for Inactive)
REMARK    1  A    between atoms: C_1  and  C_2
REMARK    2  A    between atoms: N_5  and  C_6
REMARK    3  A    between atoms: C_6  and  C_7
REMARK                            x       y       z     vdW  Elec       q    Type
REMARK                         _______ _______ _______ _____ _____    ______ ____
ROOT
ATOM      1  C   UNL     1       7.788   7.241  18.209  0.00  0.00    +0.000 C 
ATOM      2  C   UNL     1       7.146   6.160  17.389  0.00  0.00    +0.000 A 
ATOM      3  N   UNL     1       6.225   5.372  18.055  0.00  0.00    +0.000 NA
ATOM      4  C   UNL     1       5.579   4.378  17.391  0.00  0.00    +0.000 A 
ATOM      5  N   UNL     1       4.641   3.578  17.973  0.00  0.00    +0.000 N 
ATOM      6  C   UNL     1       5.967   4.280  16.057  0.00  0.00    +0.000 A 
ATOM      7  C   UNL     1       5.543   3.381  15.113  0.00  0.00    +0.000 A 
ATOM      8  N   UNL     1       6.255   3.700  13.993  0.00  0.00    +0.000 N 
ATOM      9  N   UNL     1       7.107   4.734  14.151  0.00  0.00    +0.000 NA
ATOM     10  C   UNL     1       6.937   5.092  15.427  0.00  0.00    +0.000 A 
ATOM     11  N   UNL     1       7.573   6.085  16.092  0.00  0.00    +0.000 NA
ATOM     12  H   UNL     1       3.894   3.210  17.394  0.00  0.00    +0.000 HD
ATOM     13  H   UNL     1       6.208   3.258  13.079  0.00  0.00    +0.000 HD
ENDROOT
BRANCH   5  14
ATOM     14  C   UNL     1       4.639   3.223  19.369  0.00  0.00    +0.000 C 
BRANCH  14  15
ATOM     15  C   UNL     1       3.276   3.345  19.987  0.00  0.00    +0.000 A 
ATOM     16  C   UNL     1       2.144   4.055  19.654  0.00  0.00    +0.000 A 
ATOM     17  C   UNL     1       1.171   3.768  20.641  0.00  0.00    +0.000 A 
ATOM     18  C   UNL     1       1.774   2.900  21.524  0.00  0.00    +0.000 A 
ATOM     19  O   UNL     1       3.052   2.640  21.142  0.00  0.00    +0.000 OA
ENDBRANCH  14  15
ENDBRANCH   5  14
TORSDOF 2
ENDMDL
MODEL 6
REMARK VINA RESULT:      -7.1      1.479      1.609
REMARK  Name = 
REMARK  3 active torsions:
REMARK  status: ('A' for Active; 'I' for Inactive)
REMARK    1  A    between atoms: C_1  and  C_2
REMARK    2  A    between atoms: N_5  and  C_6
REMARK    3  A    between atoms: C_6  and  C_7
REMARK                            x       y       z     vdW  Elec       q    Type
REMARK                         _______ _______ _______ _____ _____    ______ ____
ROOT
ATOM      1  C   UNL     1       2.103   6.928  20.253  0.00  0.00    +0.000 C 
ATOM      2  C   UNL     1       2.439   5.531  19.819  0.00  0.00    +0.000 A 
ATOM      3  N   UNL     1       3.773   5.296  19.541  0.00  0.00    +0.000 NA
ATOM      4  C   UNL     1       4.177   4.057  19.157  0.00  0.00    +0.000 A 
ATOM      5  N   UNL     1       5.476   3.743  18.891  0.00  0.00    +0.000 N 
ATOM      6  C   UNL     1       3.124   3.146  19.082  0.00  0.00    +0.000 A 
ATOM      7  C   UNL     1       3.167   1.829  18.705  0.00  0.00    +0.000 A 
ATOM      8  N   UNL     1       1.869   1.412  18.774  0.00  0.00    +0.000 N 
ATOM      9  N   UNL     1       0.998   2.366  19.163  0.00  0.00    +0.000 NA
ATOM     10  C   UNL     1       1.769   3.441  19.349  0.00  0.00    +0.000 A 
ATOM     11  N   UNL     1       1.373   4.677  19.737  0.00  0.00    +0.000 NA
ATOM     12  H   UNL     1       5.790   2.795  19.069  0.00  0.00    +0.000 HD
ATOM     13  H   UNL     1       1.501   0.485  18.575  0.00  0.00    +0.000 HD
ENDROOT
BRANCH   5  14
ATOM     14  C   UNL     1       6.441   4.680  18.373  0.00  0.00    +0.000 C 
BRANCH  14  15
ATOM     15  C   UNL     1       6.273   4.916  16.900  0.00  0.00    +0.000 A 
ATOM     16  C   UNL     1       5.430   5.713  16.157  0.00  0.00    +0.000 A 
ATOM     17  C   UNL     1       5.745   5.491  14.795  0.00  0.00    +0.000 A 
ATOM     18  C   UNL     1       6.762   4.562  14.790  0.00  0.00    +0.000 A 
ATOM     19  O   UNL     1       7.087   4.202  16.059  0.00  0.00    +0.000 OA
ENDBRANCH  14  15
ENDBRANCH   5  14
TORSDOF 2
ENDMDL
MODEL 7
REMARK VINA RESULT:      -7.1      3.032      5.759
REMARK  Name = 
REMARK  3 active torsions:
REMARK  status: ('A' for Active; 'I' for Inactive)
REMARK    1  A    between atoms: C_1  and  C_2
REMARK    2  A    between atoms: N_5  and  C_6
REMARK    3  A    between atoms: C_6  and  C_7
REMARK                            x       y       z     vdW  Elec       q    Type
REMARK                         _______ _______ _______ _____ _____    ______ ____
ROOT
ATOM      1  C   UNL     1       7.824   8.076  17.779  0.00  0.00    +0.000 C 
ATOM      2  C   UNL     1       7.057   6.916  17.214  0.00  0.00    +0.000 A 
ATOM      3  N   UNL     1       5.883   6.598  17.873  0.00  0.00    +0.000 NA
ATOM      4  C   UNL     1       5.112   5.573  17.425  0.00  0.00    +0.000 A 
ATOM      5  N   UNL     1       3.931   5.218  18.006  0.00  0.00    +0.000 N 
ATOM      6  C   UNL     1       5.650   4.943  16.305  0.00  0.00    +0.000 A 
ATOM      7  C   UNL     1       5.154   3.867  15.617  0.00  0.00    +0.000 A 
ATOM      8  N   UNL     1       6.075   3.633  14.637  0.00  0.00    +0.000 N 
ATOM      9  N   UNL     1       7.126   4.479  14.650  0.00  0.00    +0.000 NA
ATOM     10  C   UNL     1       6.870   5.287  15.682  0.00  0.00    +0.000 A 
ATOM     11  N   UNL     1       7.633   6.313  16.130  0.00  0.00    +0.000 NA
ATOM     12  H   UNL     1       3.206   4.816  17.421  0.00  0.00    +0.000 HD
ATOM     13  H   UNL     1       6.050   2.916  13.917  0.00  0.00    +0.000 HD
ENDROOT
BRANCH   5  14
ATOM     14  C   UNL     1       3.642   5.382  19.408  0.00  0.00    +0.000 C 
BRANCH  14  15
ATOM     15  C   UNL     1       2.587   4.427  19.888  0.00  0.00    +0.000 A 
ATOM     16  C   UNL     1       1.535   3.788  19.271  0.00  0.00    +0.000 A 
ATOM     17  C   UNL     1       0.881   3.016  20.262  0.00  0.00    +0.000 A 
ATOM     18  C   UNL     1       1.575   3.239  21.431  0.00  0.00    +0.000 A 
ATOM     19  O   UNL     1       2.608   4.095  21.218  0.00  0.00    +0.000 OA
ENDBRANCH  14  15
ENDBRANCH   5  14
TORSDOF 2
ENDMDL
MODEL 8
REMARK VINA RESULT:      -7.0      2.929      5.392
REMARK  Name = 
REMARK  3 active torsions:
REMARK  status: ('A' for Active; 'I' for Inactive)
REMARK    1  A    between atoms: C_1  and  C_2
REMARK    2  A    between atoms: N_5  and  C_6
REMARK    3  A    between atoms: C_6  and  C_7
REMARK                            x       y       z     vdW  Elec       q    Type
REMARK                         _______ _______ _______ _____ _____    ______ ____
ROOT
ATOM      1  C   UNL     1       3.527   7.818  17.642  0.00  0.00    +0.000 C 
ATOM      2  C   UNL     1       4.259   6.621  17.109  0.00  0.00    +0.000 A 
ATOM      3  N   UNL     1       4.145   5.466  17.861  0.00  0.00    +0.000 NA
ATOM      4  C   UNL     1       4.760   4.327  17.449  0.00  0.00    +0.000 A 
ATOM      5  N   UNL     1       4.672   3.146  18.124  0.00  0.00    +0.000 N 
ATOM      6  C   UNL     1       5.469   4.495  16.262  0.00  0.00    +0.000 A 
ATOM      7  C   UNL     1       6.220   3.572  15.584  0.00  0.00    +0.000 A 
ATOM      8  N   UNL     1       6.722   4.257  14.515  0.00  0.00    +0.000 N 
ATOM      9  N   UNL     1       6.350   5.552  14.462  0.00  0.00    +0.000 NA
ATOM     10  C   UNL     1       5.580   5.706  15.542  0.00  0.00    +0.000 A 
ATOM     11  N   UNL     1       4.961   6.837  15.954  0.00  0.00    +0.000 NA
ATOM     12  H   UNL     1       4.722   2.282  17.594  0.00  0.00    +0.000 HD
ATOM     13  H   UNL     1       7.322   3.903  13.775  0.00  0.00    +0.000 HD
ENDROOT
BRANCH   5  14
ATOM     14  C   UNL     1       4.508   3.043  19.552  0.00  0.00    +0.000 C 
BRANCH  14  15
ATOM     15  C   UNL     1       3.063   2.979  19.956  0.00  0.00    +0.000 A 
ATOM     16  C   UNL     1       1.878   3.133  19.270  0.00  0.00    +0.000 A 
ATOM     17  C   UNL     1       0.832   2.970  20.209  0.00  0.00    +0.000 A 
ATOM     18  C   UNL     1       1.446   2.731  21.419  0.00  0.00    +0.000 A 
ATOM     19  O   UNL     1       2.798   2.739  21.279  0.00  0.00    +0.000 OA
ENDBRANCH  14  15
ENDBRANCH   5  14
TORSDOF 2
ENDMDL
MODEL 9
REMARK VINA RESULT:      -6.9      1.871      2.669
REMARK  Name = 
REMARK  3 active torsions:
REMARK  status: ('A' for Active; 'I' for Inactive)
REMARK    1  A    between atoms: C_1  and  C_2
REMARK    2  A    between atoms: N_5  and  C_6
REMARK    3  A    between atoms: C_6  and  C_7
REMARK                            x       y       z     vdW  Elec       q    Type
REMARK                         _______ _______ _______ _____ _____    ______ ____
ROOT
ATOM      1  C   UNL     1       2.370   7.085  19.665  0.00  0.00    +0.000 C 
ATOM      2  C   UNL     1       2.506   5.658  19.219  0.00  0.00    +0.000 A 
ATOM      3  N   UNL     1       3.689   5.342  18.578  0.00  0.00    +0.000 NA
ATOM      4  C   UNL     1       3.910   4.070  18.153  0.00  0.00    +0.000 A 
ATOM      5  N   UNL     1       5.061   3.677  17.537  0.00  0.00    +0.000 N 
ATOM      6  C   UNL     1       2.844   3.217  18.430  0.00  0.00    +0.000 A 
ATOM      7  C   UNL     1       2.719   1.888  18.120  0.00  0.00    +0.000 A 
ATOM      8  N   UNL     1       1.481   1.544  18.582  0.00  0.00    +0.000 N 
ATOM      9  N   UNL     1       0.803   2.557  19.160  0.00  0.00    +0.000 NA
ATOM     10  C   UNL     1       1.639   3.593  19.064  0.00  0.00    +0.000 A 
ATOM     11  N   UNL     1       1.427   4.861  19.491  0.00  0.00    +0.000 NA
ATOM     12  H   UNL     1       5.373   2.721  17.662  0.00  0.00    +0.000 HD
ATOM     13  H   UNL     1       1.032   0.632  18.543  0.00  0.00    +0.000 HD
ENDROOT
BRANCH   5  14
ATOM     14  C   UNL     1       5.872   4.543  16.719  0.00  0.00    +0.000 C 
BRANCH  14  15
ATOM     15  C   UNL     1       6.765   5.430  17.537  0.00  0.00    +0.000 A 
ATOM     16  C   UNL     1       7.227   6.718  17.377  0.00  0.00    +0.000 A 
ATOM     17  C   UNL     1       8.057   7.000  18.488  0.00  0.00    +0.000 A 
ATOM     18  C   UNL     1       8.057   5.858  19.259  0.00  0.00    +0.000 A 
ATOM     19  O   UNL     1       7.281   4.898  18.690  0.00  0.00    +0.000 OA
ENDBRANCH  14  15
ENDBRANCH   5  14
TORSDOF 2
ENDMDL
