MODEL 1
REMARK VINA RESULT:      -7.8      0.000      0.000
REMARK  Name = 
REMARK  10 active torsions:
REMARK  status: ('A' for Active; 'I' for Inactive)
REMARK    1  A    between atoms: C_1  and  C_2
REMARK    2  A    between atoms: C_2  and  C_3
REMARK    3  A    between atoms: C_3  and  C_4
REMARK    4  A    between atoms: C_9  and  N_10
REMARK    5  A    between atoms: N_10  and  S_11
REMARK    6  A    between atoms: S_11  and  C_14
REMARK    7  A    between atoms: C_18  and  N_19
REMARK    8  A    between atoms: N_22  and  C_23
REMARK    9  A    between atoms: C_23  and  C_24
REMARK   10  A    between atoms: C_24  and  C_25
REMARK                            x       y       z     vdW  Elec       q    Type
REMARK                         _______ _______ _______ _____ _____    ______ ____
ROOT
ATOM      1  C   UNL     1       4.345   4.764  18.837  0.00  0.00    +0.000 A 
ATOM      2  C   UNL     1       5.371   5.369  19.570  0.00  0.00    +0.000 A 
ATOM      3  C   UNL     1       6.664   5.372  19.058  0.00  0.00    +0.000 A 
ATOM      4  C   UNL     1       6.923   4.781  17.823  0.00  0.00    +0.000 A 
ATOM      5  C   UNL     1       5.900   4.182  17.075  0.00  0.00    +0.000 A 
ATOM      6  C   UNL     1       4.593   4.200  17.578  0.00  0.00    +0.000 A 
ENDROOT
BRANCH   5   7
ATOM      7  N   UNL     1       6.140   3.566  15.825  0.00  0.00    +0.000 N 
ATOM      8  C   UNL     1       6.360   4.247  14.650  0.00  0.00    +0.000 C 
ATOM      9  O   UNL     1       6.447   5.463  14.524  0.00  0.00    +0.000 OA
ATOM     10  N   UNL     1       6.529   3.405  13.571  0.00  0.00    +0.000 N 
ATOM     11  H   UNL     1       6.385   2.588  15.835  0.00  0.00    +0.000 HD
ATOM     12  H   UNL     1       6.302   2.425  13.665  0.00  0.00    +0.000 HD
BRANCH  10  13
ATOM     13  C   UNL     1       6.787   3.957  12.253  0.00  0.00    +0.000 C 
BRANCH  13  14
ATOM     14  C   UNL     1       5.798   3.441  11.209  0.00  0.00    +0.000 C 
BRANCH  14  15
ATOM     15  C   UNL     1       5.345   2.024  11.531  0.00  0.00    +0.000 C 
ATOM     16 CL   UNL     1       6.507   0.833  10.907  0.00  0.00    +0.000 Cl
ENDBRANCH  14  15
ENDBRANCH  13  14
ENDBRANCH  10  13
ENDBRANCH   5   7
BRANCH   1  17
ATOM     17  S   UNL     1       2.695   4.804  19.501  0.00  0.00    +0.000 S 
ATOM     18  O   UNL     1       2.563   3.709  20.439  0.00  0.00    +0.000 OA
ATOM     19  O   UNL     1       1.811   4.929  18.362  0.00  0.00    +0.000 OA
BRANCH  17  20
ATOM     20  N   UNL     1       2.614   6.269  20.327  0.00  0.00    +0.000 N 
ATOM     21  H   UNL     1       2.329   6.170  21.298  0.00  0.00    +0.000 HD
BRANCH  20  27
ATOM     22  C   UNL     1       1.336   8.373  20.291  0.00  0.00    +0.000 A 
ATOM     23  C   UNL     1       0.900   9.494  19.564  0.00  0.00    +0.000 A 
ATOM     24  C   UNL     1       1.310   9.699  18.245  0.00  0.00    +0.000 A 
ATOM     25  C   UNL     1       2.178   8.794  17.640  0.00  0.00    +0.000 A 
ATOM     26  C   UNL     1       2.631   7.681  18.350  0.00  0.00    +0.000 A 
ATOM     27  C   UNL     1       2.212   7.465  19.665  0.00  0.00    +0.000 A 
BRANCH  22  28
ATOM     28  C   UNL     1       0.824   8.180  21.704  0.00  0.00    +0.000 C 
BRANCH  28  30
ATOM     29  C   UNL     1      -0.549   9.848  23.071  0.00  0.00    +0.000 C 
ATOM     30  C   UNL     1       0.835   9.446  22.574  0.00  0.00    +0.000 C 
ENDBRANCH  28  30
ENDBRANCH  22  28
ENDBRANCH  20  27
ENDBRANCH  17  20
ENDBRANCH   1  17
TORSDOF 9
ENDMDL
MODEL 2
REMARK VINA RESULT:      -7.7      4.648      6.203
REMARK  Name = 
REMARK  10 active torsions:
REMARK  status: ('A' for Active; 'I' for Inactive)
REMARK    1  A    between atoms: C_1  and  C_2
REMARK    2  A    between atoms: C_2  and  C_3
REMARK    3  A    between atoms: C_3  and  C_4
REMARK    4  A    between atoms: C_9  and  N_10
REMARK    5  A    between atoms: N_10  and  S_11
REMARK    6  A    between atoms: S_11  and  C_14
REMARK    7  A    between atoms: C_18  and  N_19
REMARK    8  A    between atoms: N_22  and  C_23
REMARK    9  A    between atoms: C_23  and  C_24
REMARK   10  A    between atoms: C_24  and  C_25
REMARK                            x       y       z     vdW  Elec       q    Type
REMARK                         _______ _______ _______ _____ _____    ______ ____
ROOT
ATOM      1  C   UNL     1       5.244   4.275  17.628  0.00  0.00    +0.000 A 
ATOM      2  C   UNL     1       5.311   4.175  16.234  0.00  0.00    +0.000 A 
ATOM      3  C   UNL     1       6.228   4.954  15.538  0.00  0.00    +0.000 A 
ATOM      4  C   UNL     1       7.072   5.819  16.232  0.00  0.00    +0.000 A 
ATOM      5  C   UNL     1       7.021   5.919  17.629  0.00  0.00    +0.000 A 
ATOM      6  C   UNL     1       6.116   5.117  18.333  0.00  0.00    +0.000 A 
ENDROOT
BRANCH   5   7
ATOM      7  N   UNL     1       7.860   6.797  18.354  0.00  0.00    +0.000 N 
ATOM      8  C   UNL     1       7.984   8.144  18.099  0.00  0.00    +0.000 C 
ATOM      9  O   UNL     1       7.350   8.784  17.268  0.00  0.00    +0.000 OA
ATOM     10  N   UNL     1       8.897   8.760  18.928  0.00  0.00    +0.000 N 
ATOM     11  H   UNL     1       8.211   6.469  19.240  0.00  0.00    +0.000 HD
ATOM     12  H   UNL     1       9.515   8.195  19.494  0.00  0.00    +0.000 HD
BRANCH  10  13
ATOM     13  C   UNL     1       9.141  10.186  18.807  0.00  0.00    +0.000 C 
BRANCH  13  14
ATOM     14  C   UNL     1       9.369  10.848  20.165  0.00  0.00    +0.000 C 
BRANCH  14  15
ATOM     15  C   UNL     1      10.657  11.660  20.173  0.00  0.00    +0.000 C 
ATOM     16 CL   UNL     1      10.393  13.253  20.914  0.00  0.00    +0.000 Cl
ENDBRANCH  14  15
ENDBRANCH  13  14
ENDBRANCH  10  13
ENDBRANCH   5   7
BRANCH   1  17
ATOM     17  S   UNL     1       4.085   3.242  18.495  0.00  0.00    +0.000 S 
ATOM     18  O   UNL     1       4.482   3.193  19.887  0.00  0.00    +0.000 OA
ATOM     19  O   UNL     1       3.959   2.035  17.706  0.00  0.00    +0.000 OA
BRANCH  17  20
ATOM     20  N   UNL     1       2.616   4.055  18.354  0.00  0.00    +0.000 N 
ATOM     21  H   UNL     1       2.039   3.715  17.589  0.00  0.00    +0.000 HD
BRANCH  20  27
ATOM     22  C   UNL     1       2.216   5.866  19.972  0.00  0.00    +0.000 A 
ATOM     23  C   UNL     1       2.036   7.240  20.208  0.00  0.00    +0.000 A 
ATOM     24  C   UNL     1       2.130   8.166  19.167  0.00  0.00    +0.000 A 
ATOM     25  C   UNL     1       2.425   7.732  17.878  0.00  0.00    +0.000 A 
ATOM     26  C   UNL     1       2.618   6.373  17.626  0.00  0.00    +0.000 A 
ATOM     27  C   UNL     1       2.511   5.442  18.663  0.00  0.00    +0.000 A 
BRANCH  22  28
ATOM     28  C   UNL     1       2.058   4.904  21.133  0.00  0.00    +0.000 C 
BRANCH  28  30
ATOM     29  C   UNL     1       1.458   2.470  21.630  0.00  0.00    +0.000 C 
ATOM     30  C   UNL     1       1.083   3.744  20.883  0.00  0.00    +0.000 C 
ENDBRANCH  28  30
ENDBRANCH  22  28
ENDBRANCH  20  27
ENDBRANCH  17  20
ENDBRANCH   1  17
TORSDOF 9
ENDMDL
MODEL 3
REMARK VINA RESULT:      -7.6      4.390      5.920
REMARK  Name = 
REMARK  10 active torsions:
REMARK  status: ('A' for Active; 'I' for Inactive)
REMARK    1  A    between atoms: C_1  and  C_2
REMARK    2  A    between atoms: C_2  and  C_3
REMARK    3  A    between atoms: C_3  and  C_4
REMARK    4  A    between atoms: C_9  and  N_10
REMARK    5  A    between atoms: N_10  and  S_11
REMARK    6  A    between atoms: S_11  and  C_14
REMARK    7  A    between atoms: C_18  and  N_19
REMARK    8  A    between atoms: N_22  and  C_23
REMARK    9  A    between atoms: C_23  and  C_24
REMARK   10  A    between atoms: C_24  and  C_25
REMARK                            x       y       z     vdW  Elec       q    Type
REMARK                         _______ _______ _______ _____ _____    ______ ____
ROOT
ATOM      1  C   UNL     1       5.258   4.487  17.118  0.00  0.00    +0.000 A 
ATOM      2  C   UNL     1       5.621   3.819  15.944  0.00  0.00    +0.000 A 
ATOM      3  C   UNL     1       6.515   4.421  15.065  0.00  0.00    +0.000 A 
ATOM      4  C   UNL     1       7.044   5.675  15.365  0.00  0.00    +0.000 A 
ATOM      5  C   UNL     1       6.697   6.347  16.544  0.00  0.00    +0.000 A 
ATOM      6  C   UNL     1       5.815   5.732  17.441  0.00  0.00    +0.000 A 
ENDROOT
BRANCH   5   7
ATOM      7  N   UNL     1       7.211   7.625  16.865  0.00  0.00    +0.000 N 
ATOM      8  C   UNL     1       7.987   7.899  17.968  0.00  0.00    +0.000 C 
ATOM      9  O   UNL     1       8.396   7.082  18.785  0.00  0.00    +0.000 OA
ATOM     10  N   UNL     1       8.324   9.232  18.064  0.00  0.00    +0.000 N 
ATOM     11  H   UNL     1       7.200   8.320  16.135  0.00  0.00    +0.000 HD
ATOM     12  H   UNL     1       7.854   9.907  17.476  0.00  0.00    +0.000 HD
BRANCH  10  13
ATOM     13  C   UNL     1       9.154   9.694  19.161  0.00  0.00    +0.000 C 
BRANCH  13  14
ATOM     14  C   UNL     1       9.348  11.210  19.138  0.00  0.00    +0.000 C 
BRANCH  14  15
ATOM     15  C   UNL     1       8.843  11.810  17.834  0.00  0.00    +0.000 C 
ATOM     16 CL   UNL     1       9.114  13.567  17.803  0.00  0.00    +0.000 Cl
ENDBRANCH  14  15
ENDBRANCH  13  14
ENDBRANCH  10  13
ENDBRANCH   5   7
BRANCH   1  17
ATOM     17  S   UNL     1       4.138   3.678  18.239  0.00  0.00    +0.000 S 
ATOM     18  O   UNL     1       4.631   3.877  19.586  0.00  0.00    +0.000 OA
ATOM     19  O   UNL     1       3.929   2.350  17.703  0.00  0.00    +0.000 OA
BRANCH  17  20
ATOM     20  N   UNL     1       2.683   4.503  18.040  0.00  0.00    +0.000 N 
ATOM     21  H   UNL     1       2.277   4.387  17.115  0.00  0.00    +0.000 HD
BRANCH  20  27
ATOM     22  C   UNL     1       2.027   5.802  20.025  0.00  0.00    +0.000 A 
ATOM     23  C   UNL     1       1.730   7.056  20.589  0.00  0.00    +0.000 A 
ATOM     24  C   UNL     1       1.836   8.226  19.835  0.00  0.00    +0.000 A 
ATOM     25  C   UNL     1       2.261   8.161  18.511  0.00  0.00    +0.000 A 
ATOM     26  C   UNL     1       2.572   6.928  17.937  0.00  0.00    +0.000 A 
ATOM     27  C   UNL     1       2.453   5.753  18.684  0.00  0.00    +0.000 A 
BRANCH  22  28
ATOM     28  C   UNL     1       1.851   4.563  20.879  0.00  0.00    +0.000 C 
BRANCH  28  30
ATOM     29  C   UNL     1       1.258   2.186  20.147  0.00  0.00    +0.000 C 
ATOM     30  C   UNL     1       0.752   3.601  20.403  0.00  0.00    +0.000 C 
ENDBRANCH  28  30
ENDBRANCH  22  28
ENDBRANCH  20  27
ENDBRANCH  17  20
ENDBRANCH   1  17
TORSDOF 9
ENDMDL
MODEL 4
REMARK VINA RESULT:      -7.5      4.329      6.522
REMARK  Name = 
REMARK  10 active torsions:
REMARK  status: ('A' for Active; 'I' for Inactive)
REMARK    1  A    between atoms: C_1  and  C_2
REMARK    2  A    between atoms: C_2  and  C_3
REMARK    3  A    between atoms: C_3  and  C_4
REMARK    4  A    between atoms: C_9  and  N_10
REMARK    5  A    between atoms: N_10  and  S_11
REMARK    6  A    between atoms: S_11  and  C_14
REMARK    7  A    between atoms: C_18  and  N_19
REMARK    8  A    between atoms: N_22  and  C_23
REMARK    9  A    between atoms: C_23  and  C_24
REMARK   10  A    between atoms: C_24  and  C_25
REMARK                            x       y       z     vdW  Elec       q    Type
REMARK                         _______ _______ _______ _____ _____    ______ ____
ROOT
ATOM      1  C   UNL     1       1.283   9.064  20.151  0.00  0.00    +0.000 A 
ATOM      2  C   UNL     1       1.172   9.913  19.045  0.00  0.00    +0.000 A 
ATOM      3  C   UNL     1       1.733   9.530  17.832  0.00  0.00    +0.000 A 
ATOM      4  C   UNL     1       2.392   8.306  17.728  0.00  0.00    +0.000 A 
ATOM      5  C   UNL     1       2.500   7.443  18.827  0.00  0.00    +0.000 A 
ATOM      6  C   UNL     1       1.914   7.816  20.042  0.00  0.00    +0.000 A 
ENDROOT
BRANCH   5   7
ATOM      7  N   UNL     1       3.174   6.202  18.748  0.00  0.00    +0.000 N 
ATOM      8  C   UNL     1       2.628   5.050  18.229  0.00  0.00    +0.000 C 
ATOM      9  O   UNL     1       1.525   4.944  17.707  0.00  0.00    +0.000 OA
ATOM     10  N   UNL     1       3.486   3.973  18.309  0.00  0.00    +0.000 N 
ATOM     11  H   UNL     1       4.175   6.216  18.870  0.00  0.00    +0.000 HD
ATOM     12  H   UNL     1       4.319   4.042  18.876  0.00  0.00    +0.000 HD
BRANCH  10  13
ATOM     13  C   UNL     1       3.077   2.680  17.792  0.00  0.00    +0.000 C 
BRANCH  13  14
ATOM     14  C   UNL     1       2.330   1.852  18.837  0.00  0.00    +0.000 C 
BRANCH  14  15
ATOM     15  C   UNL     1       2.599   2.368  20.244  0.00  0.00    +0.000 C 
ATOM     16 CL   UNL     1       1.134   3.100  20.937  0.00  0.00    +0.000 Cl
ENDBRANCH  14  15
ENDBRANCH  13  14
ENDBRANCH  10  13
ENDBRANCH   5   7
BRANCH   1  17
ATOM     17  S   UNL     1       0.528   9.564  21.681  0.00  0.00    +0.000 S 
ATOM     18  O   UNL     1       1.529   9.484  22.724  0.00  0.00    +0.000 OA
ATOM     19  O   UNL     1      -0.714   8.825  21.773  0.00  0.00    +0.000 OA
BRANCH  17  20
ATOM     20  N   UNL     1       0.103  11.174  21.428  0.00  0.00    +0.000 N 
ATOM     21  H   UNL     1       0.866  11.825  21.598  0.00  0.00    +0.000 HD
BRANCH  20  27
ATOM     22  C   UNL     1      -2.041  12.143  20.702  0.00  0.00    +0.000 A 
ATOM     23  C   UNL     1      -3.293  12.674  21.056  0.00  0.00    +0.000 A 
ATOM     24  C   UNL     1      -3.701  12.724  22.390  0.00  0.00    +0.000 A 
ATOM     25  C   UNL     1      -2.870  12.224  23.389  0.00  0.00    +0.000 A 
ATOM     26  C   UNL     1      -1.628  11.682  23.056  0.00  0.00    +0.000 A 
ATOM     27  C   UNL     1      -1.210  11.644  21.723  0.00  0.00    +0.000 A 
BRANCH  22  28
ATOM     28  C   UNL     1      -1.633  12.155  19.243  0.00  0.00    +0.000 C 
BRANCH  28  30
ATOM     29  C   UNL     1      -2.219  10.149  17.771  0.00  0.00    +0.000 C 
ATOM     30  C   UNL     1      -2.650  11.518  18.283  0.00  0.00    +0.000 C 
ENDBRANCH  28  30
ENDBRANCH  22  28
ENDBRANCH  20  27
ENDBRANCH  17  20
ENDBRANCH   1  17
TORSDOF 9
ENDMDL
MODEL 5
REMARK VINA RESULT:      -7.4      4.340      5.964
REMARK  Name = 
REMARK  10 active torsions:
REMARK  status: ('A' for Active; 'I' for Inactive)
REMARK    1  A    between atoms: C_1  and  C_2
REMARK    2  A    between atoms: C_2  and  C_3
REMARK    3  A    between atoms: C_3  and  C_4
REMARK    4  A    between atoms: C_9  and  N_10
REMARK    5  A    between atoms: N_10  and  S_11
REMARK    6  A    between atoms: S_11  and  C_14
REMARK    7  A    between atoms: C_18  and  N_19
REMARK    8  A    between atoms: N_22  and  C_23
REMARK    9  A    between atoms: C_23  and  C_24
REMARK   10  A    between atoms: C_24  and  C_25
REMARK                            x       y       z     vdW  Elec       q    Type
REMARK                         _______ _______ _______ _____ _____    ______ ____
ROOT
ATOM      1  C   UNL     1       5.152   4.313  16.751  0.00  0.00    +0.000 A 
ATOM      2  C   UNL     1       5.679   3.579  15.682  0.00  0.00    +0.000 A 
ATOM      3  C   UNL     1       6.712   4.123  14.926  0.00  0.00    +0.000 A 
ATOM      4  C   UNL     1       7.214   5.384  15.241  0.00  0.00    +0.000 A 
ATOM      5  C   UNL     1       6.701   6.122  16.316  0.00  0.00    +0.000 A 
ATOM      6  C   UNL     1       5.678   5.567  17.094  0.00  0.00    +0.000 A 
ENDROOT
BRANCH   5   7
ATOM      7  N   UNL     1       7.186   7.409  16.648  0.00  0.00    +0.000 N 
ATOM      8  C   UNL     1       7.859   7.712  17.810  0.00  0.00    +0.000 C 
ATOM      9  O   UNL     1       8.192   6.917  18.681  0.00  0.00    +0.000 OA
ATOM     10  N   UNL     1       8.187   9.048  17.901  0.00  0.00    +0.000 N 
ATOM     11  H   UNL     1       7.242   8.085  15.902  0.00  0.00    +0.000 HD
ATOM     12  H   UNL     1       7.774   9.706  17.255  0.00  0.00    +0.000 HD
BRANCH  10  13
ATOM     13  C   UNL     1       8.915   9.539  19.056  0.00  0.00    +0.000 C 
BRANCH  13  14
ATOM     14  C   UNL     1       9.857  10.688  18.698  0.00  0.00    +0.000 C 
BRANCH  14  15
ATOM     15  C   UNL     1       9.123  12.022  18.691  0.00  0.00    +0.000 C 
ATOM     16 CL   UNL     1       9.780  13.096  17.438  0.00  0.00    +0.000 Cl
ENDBRANCH  14  15
ENDBRANCH  13  14
ENDBRANCH  10  13
ENDBRANCH   5   7
BRANCH   1  17
ATOM     17  S   UNL     1       3.855   3.580  17.721  0.00  0.00    +0.000 S 
ATOM     18  O   UNL     1       4.093   2.154  17.784  0.00  0.00    +0.000 OA
ATOM     19  O   UNL     1       2.615   4.113  17.196  0.00  0.00    +0.000 OA
BRANCH  17  20
ATOM     20  N   UNL     1       4.049   4.254  19.252  0.00  0.00    +0.000 N 
ATOM     21  H   UNL     1       4.374   3.587  19.948  0.00  0.00    +0.000 HD
BRANCH  20  27
ATOM     22  C   UNL     1       2.271   5.045  20.761  0.00  0.00    +0.000 A 
ATOM     23  C   UNL     1       1.380   6.070  21.124  0.00  0.00    +0.000 A 
ATOM     24  C   UNL     1       1.386   7.296  20.457  0.00  0.00    +0.000 A 
ATOM     25  C   UNL     1       2.296   7.522  19.428  0.00  0.00    +0.000 A 
ATOM     26  C   UNL     1       3.196   6.521  19.061  0.00  0.00    +0.000 A 
ATOM     27  C   UNL     1       3.184   5.287  19.717  0.00  0.00    +0.000 A 
BRANCH  22  28
ATOM     28  C   UNL     1       2.190   3.720  21.491  0.00  0.00    +0.000 C 
BRANCH  28  30
ATOM     29  C   UNL     1       0.771   2.697  19.627  0.00  0.00    +0.000 C 
ATOM     30  C   UNL     1       0.972   2.856  21.129  0.00  0.00    +0.000 C 
ENDBRANCH  28  30
ENDBRANCH  22  28
ENDBRANCH  20  27
ENDBRANCH  17  20
ENDBRANCH   1  17
TORSDOF 9
ENDMDL
MODEL 6
REMARK VINA RESULT:      -7.4      4.253      9.255
REMARK  Name = 
REMARK  10 active torsions:
REMARK  status: ('A' for Active; 'I' for Inactive)
REMARK    1  A    between atoms: C_1  and  C_2
REMARK    2  A    between atoms: C_2  and  C_3
REMARK    3  A    between atoms: C_3  and  C_4
REMARK    4  A    between atoms: C_9  and  N_10
REMARK    5  A    between atoms: N_10  and  S_11
REMARK    6  A    between atoms: S_11  and  C_14
REMARK    7  A    between atoms: C_18  and  N_19
REMARK    8  A    between atoms: N_22  and  C_23
REMARK    9  A    between atoms: C_23  and  C_24
REMARK   10  A    between atoms: C_24  and  C_25
REMARK                            x       y       z     vdW  Elec       q    Type
REMARK                         _______ _______ _______ _____ _____    ______ ____
ROOT
ATOM      1  C   UNL     1       2.609   5.629  18.871  0.00  0.00    +0.000 A 
ATOM      2  C   UNL     1       2.777   6.376  17.700  0.00  0.00    +0.000 A 
ATOM      3  C   UNL     1       2.524   7.744  17.721  0.00  0.00    +0.000 A 
ATOM      4  C   UNL     1       2.114   8.355  18.904  0.00  0.00    +0.000 A 
ATOM      5  C   UNL     1       1.955   7.618  20.085  0.00  0.00    +0.000 A 
ATOM      6  C   UNL     1       2.233   6.246  20.072  0.00  0.00    +0.000 A 
ENDROOT
BRANCH   5   7
ATOM      7  N   UNL     1       1.529   8.215  21.295  0.00  0.00    +0.000 N 
ATOM      8  C   UNL     1       0.447   9.057  21.411  0.00  0.00    +0.000 C 
ATOM      9  O   UNL     1      -0.334   9.357  20.516  0.00  0.00    +0.000 OA
ATOM     10  N   UNL     1       0.275   9.529  22.695  0.00  0.00    +0.000 N 
ATOM     11  H   UNL     1       1.897   7.828  22.151  0.00  0.00    +0.000 HD
ATOM     12  H   UNL     1       1.010   9.397  23.376  0.00  0.00    +0.000 HD
BRANCH  10  13
ATOM     13  C   UNL     1      -0.831  10.419  22.999  0.00  0.00    +0.000 C 
BRANCH  13  14
ATOM     14  C   UNL     1      -0.584  11.839  22.493  0.00  0.00    +0.000 C 
BRANCH  14  15
ATOM     15  C   UNL     1      -1.694  12.782  22.932  0.00  0.00    +0.000 C 
ATOM     16 CL   UNL     1      -3.047  11.874  23.644  0.00  0.00    +0.000 Cl
ENDBRANCH  14  15
ENDBRANCH  13  14
ENDBRANCH  10  13
ENDBRANCH   5   7
BRANCH   1  17
ATOM     17  S   UNL     1       2.972   3.889  18.822  0.00  0.00    +0.000 S 
ATOM     18  O   UNL     1       1.854   3.216  18.195  0.00  0.00    +0.000 OA
ATOM     19  O   UNL     1       3.410   3.536  20.156  0.00  0.00    +0.000 OA
BRANCH  17  20
ATOM     20  N   UNL     1       4.329   3.774  17.832  0.00  0.00    +0.000 N 
ATOM     21  H   UNL     1       4.569   2.817  17.585  0.00  0.00    +0.000 HD
BRANCH  20  27
ATOM     22  C   UNL     1       6.001   5.277  16.828  0.00  0.00    +0.000 A 
ATOM     23  C   UNL     1       7.125   6.102  17.005  0.00  0.00    +0.000 A 
ATOM     24  C   UNL     1       7.663   6.322  18.274  0.00  0.00    +0.000 A 
ATOM     25  C   UNL     1       7.072   5.734  19.389  0.00  0.00    +0.000 A 
ATOM     26  C   UNL     1       5.948   4.920  19.235  0.00  0.00    +0.000 A 
ATOM     27  C   UNL     1       5.416   4.686  17.965  0.00  0.00    +0.000 A 
BRANCH  22  28
ATOM     28  C   UNL     1       5.488   5.040  15.422  0.00  0.00    +0.000 C 
BRANCH  28  30
ATOM     29  C   UNL     1       5.695   3.740  13.231  0.00  0.00    +0.000 C 
ATOM     30  C   UNL     1       6.300   4.028  14.600  0.00  0.00    +0.000 C 
ENDBRANCH  28  30
ENDBRANCH  22  28
ENDBRANCH  20  27
ENDBRANCH  17  20
ENDBRANCH   1  17
TORSDOF 9
ENDMDL
MODEL 7
REMARK VINA RESULT:      -7.3      5.156      6.625
REMARK  Name = 
REMARK  10 active torsions:
REMARK  status: ('A' for Active; 'I' for Inactive)
REMARK    1  A    between atoms: C_1  and  C_2
REMARK    2  A    between atoms: C_2  and  C_3
REMARK    3  A    between atoms: C_3  and  C_4
REMARK    4  A    between atoms: C_9  and  N_10
REMARK    5  A    between atoms: N_10  and  S_11
REMARK    6  A    between atoms: S_11  and  C_14
REMARK    7  A    between atoms: C_18  and  N_19
REMARK    8  A    between atoms: N_22  and  C_23
REMARK    9  A    between atoms: C_23  and  C_24
REMARK   10  A    between atoms: C_24  and  C_25
REMARK                            x       y       z     vdW  Elec       q    Type
REMARK                         _______ _______ _______ _____ _____    ______ ____
ROOT
ATOM      1  C   UNL     1       6.160   5.625  17.546  0.00  0.00    +0.000 A 
ATOM      2  C   UNL     1       6.862   4.955  18.554  0.00  0.00    +0.000 A 
ATOM      3  C   UNL     1       7.899   5.607  19.212  0.00  0.00    +0.000 A 
ATOM      4  C   UNL     1       8.224   6.917  18.868  0.00  0.00    +0.000 A 
ATOM      5  C   UNL     1       7.520   7.602  17.868  0.00  0.00    +0.000 A 
ATOM      6  C   UNL     1       6.460   6.956  17.221  0.00  0.00    +0.000 A 
ENDROOT
BRANCH   5   7
ATOM      7  N   UNL     1       7.839   8.928  17.494  0.00  0.00    +0.000 N 
ATOM      8  C   UNL     1       8.600   9.790  18.250  0.00  0.00    +0.000 C 
ATOM      9  O   UNL     1       9.161   9.523  19.306  0.00  0.00    +0.000 OA
ATOM     10  N   UNL     1       8.726  11.035  17.671  0.00  0.00    +0.000 N 
ATOM     11  H   UNL     1       7.692   9.180  16.528  0.00  0.00    +0.000 HD
ATOM     12  H   UNL     1       8.136  11.282  16.889  0.00  0.00    +0.000 HD
BRANCH  10  13
ATOM     13  C   UNL     1       9.511  12.064  18.328  0.00  0.00    +0.000 C 
BRANCH  13  14
ATOM     14  C   UNL     1      10.971  12.051  17.877  0.00  0.00    +0.000 C 
BRANCH  14  15
ATOM     15  C   UNL     1      11.916  11.976  19.068  0.00  0.00    +0.000 C 
ATOM     16 CL   UNL     1      11.006  11.989  20.595  0.00  0.00    +0.000 Cl
ENDBRANCH  14  15
ENDBRANCH  13  14
ENDBRANCH  10  13
ENDBRANCH   5   7
BRANCH   1  17
ATOM     17  S   UNL     1       4.818   4.778  16.744  0.00  0.00    +0.000 S 
ATOM     18  O   UNL     1       4.890   3.379  17.106  0.00  0.00    +0.000 OA
ATOM     19  O   UNL     1       4.852   5.200  15.359  0.00  0.00    +0.000 OA
BRANCH  17  20
ATOM     20  N   UNL     1       3.433   5.465  17.413  0.00  0.00    +0.000 N 
ATOM     21  H   UNL     1       3.562   6.431  17.704  0.00  0.00    +0.000 HD
BRANCH  20  27
ATOM     22  C   UNL     1       2.047   5.154  19.423  0.00  0.00    +0.000 A 
ATOM     23  C   UNL     1       1.221   4.310  20.187  0.00  0.00    +0.000 A 
ATOM     24  C   UNL     1       0.893   3.029  19.739  0.00  0.00    +0.000 A 
ATOM     25  C   UNL     1       1.370   2.580  18.511  0.00  0.00    +0.000 A 
ATOM     26  C   UNL     1       2.182   3.407  17.733  0.00  0.00    +0.000 A 
ATOM     27  C   UNL     1       2.525   4.685  18.185  0.00  0.00    +0.000 A 
BRANCH  22  28
ATOM     28  C   UNL     1       2.405   6.516  19.981  0.00  0.00    +0.000 C 
BRANCH  28  30
ATOM     29  C   UNL     1       1.324   8.654  20.874  0.00  0.00    +0.000 C 
ATOM     30  C   UNL     1       1.351   7.130  20.914  0.00  0.00    +0.000 C 
ENDBRANCH  28  30
ENDBRANCH  22  28
ENDBRANCH  20  27
ENDBRANCH  17  20
ENDBRANCH   1  17
TORSDOF 9
ENDMDL
MODEL 8
REMARK VINA RESULT:      -7.3      3.777      8.132
REMARK  Name = 
REMARK  10 active torsions:
REMARK  status: ('A' for Active; 'I' for Inactive)
REMARK    1  A    between atoms: C_1  and  C_2
REMARK    2  A    between atoms: C_2  and  C_3
REMARK    3  A    between atoms: C_3  and  C_4
REMARK    4  A    between atoms: C_9  and  N_10
REMARK    5  A    between atoms: N_10  and  S_11
REMARK    6  A    between atoms: S_11  and  C_14
REMARK    7  A    between atoms: C_18  and  N_19
REMARK    8  A    between atoms: N_22  and  C_23
REMARK    9  A    between atoms: C_23  and  C_24
REMARK   10  A    between atoms: C_24  and  C_25
REMARK                            x       y       z     vdW  Elec       q    Type
REMARK                         _______ _______ _______ _____ _____    ______ ____
ROOT
ATOM      1  C   UNL     1       2.612   4.536  18.656  0.00  0.00    +0.000 A 
ATOM      2  C   UNL     1       2.446   4.297  20.025  0.00  0.00    +0.000 A 
ATOM      3  C   UNL     1       2.203   5.367  20.879  0.00  0.00    +0.000 A 
ATOM      4  C   UNL     1       2.120   6.660  20.366  0.00  0.00    +0.000 A 
ATOM      5  C   UNL     1       2.273   6.908  18.995  0.00  0.00    +0.000 A 
ATOM      6  C   UNL     1       2.494   5.830  18.130  0.00  0.00    +0.000 A 
ENDROOT
BRANCH   5   7
ATOM      7  N   UNL     1       2.204   8.213  18.453  0.00  0.00    +0.000 N 
ATOM      8  C   UNL     1       1.471   9.245  18.994  0.00  0.00    +0.000 C 
ATOM      9  O   UNL     1       0.836   9.209  20.040  0.00  0.00    +0.000 OA
ATOM     10  N   UNL     1       1.548  10.400  18.246  0.00  0.00    +0.000 N 
ATOM     11  H   UNL     1       2.901   8.462  17.768  0.00  0.00    +0.000 HD
ATOM     12  H   UNL     1       1.944  10.366  17.316  0.00  0.00    +0.000 HD
BRANCH  10  13
ATOM     13  C   UNL     1       0.846  11.594  18.680  0.00  0.00    +0.000 C 
BRANCH  13  14
ATOM     14  C   UNL     1       1.534  12.872  18.204  0.00  0.00    +0.000 C 
BRANCH  14  15
ATOM     15  C   UNL     1       2.536  13.376  19.233  0.00  0.00    +0.000 C 
ATOM     16 CL   UNL     1       3.861  14.260  18.442  0.00  0.00    +0.000 Cl
ENDBRANCH  14  15
ENDBRANCH  13  14
ENDBRANCH  10  13
ENDBRANCH   5   7
BRANCH   1  17
ATOM     17  S   UNL     1       2.889   3.145  17.583  0.00  0.00    +0.000 S 
ATOM     18  O   UNL     1       2.312   3.454  16.291  0.00  0.00    +0.000 OA
ATOM     19  O   UNL     1       2.476   1.976  18.331  0.00  0.00    +0.000 OA
BRANCH  17  20
ATOM     20  N   UNL     1       4.565   3.052  17.446  0.00  0.00    +0.000 N 
ATOM     21  H   UNL     1       4.950   2.175  17.787  0.00  0.00    +0.000 HD
BRANCH  20  27
ATOM     22  C   UNL     1       5.772   4.973  16.489  0.00  0.00    +0.000 A 
ATOM     23  C   UNL     1       6.648   6.054  16.689  0.00  0.00    +0.000 A 
ATOM     24  C   UNL     1       7.136   6.358  17.961  0.00  0.00    +0.000 A 
ATOM     25  C   UNL     1       6.738   5.595  19.056  0.00  0.00    +0.000 A 
ATOM     26  C   UNL     1       5.860   4.526  18.880  0.00  0.00    +0.000 A 
ATOM     27  C   UNL     1       5.381   4.209  17.606  0.00  0.00    +0.000 A 
BRANCH  22  28
ATOM     28  C   UNL     1       5.310   4.664  15.079  0.00  0.00    +0.000 C 
BRANCH  28  30
ATOM     29  C   UNL     1       5.809   3.556  12.830  0.00  0.00    +0.000 C 
ATOM     30  C   UNL     1       6.346   3.943  14.203  0.00  0.00    +0.000 C 
ENDBRANCH  28  30
ENDBRANCH  22  28
ENDBRANCH  20  27
ENDBRANCH  17  20
ENDBRANCH   1  17
TORSDOF 9
ENDMDL
MODEL 9
REMARK VINA RESULT:      -7.3      5.135      9.039
REMARK  Name = 
REMARK  10 active torsions:
REMARK  status: ('A' for Active; 'I' for Inactive)
REMARK    1  A    between atoms: C_1  and  C_2
REMARK    2  A    between atoms: C_2  and  C_3
REMARK    3  A    between atoms: C_3  and  C_4
REMARK    4  A    between atoms: C_9  and  N_10
REMARK    5  A    between atoms: N_10  and  S_11
REMARK    6  A    between atoms: S_11  and  C_14
REMARK    7  A    between atoms: C_18  and  N_19
REMARK    8  A    between atoms: N_22  and  C_23
REMARK    9  A    between atoms: C_23  and  C_24
REMARK   10  A    between atoms: C_24  and  C_25
REMARK                            x       y       z     vdW  Elec       q    Type
REMARK                         _______ _______ _______ _____ _____    ______ ____
ROOT
ATOM      1  C   UNL     1       1.751   8.277  19.068  0.00  0.00    +0.000 A 
ATOM      2  C   UNL     1       1.683   8.387  20.461  0.00  0.00    +0.000 A 
ATOM      3  C   UNL     1       0.854   9.348  21.029  0.00  0.00    +0.000 A 
ATOM      4  C   UNL     1       0.097  10.184  20.211  0.00  0.00    +0.000 A 
ATOM      5  C   UNL     1       0.148  10.074  18.815  0.00  0.00    +0.000 A 
ATOM      6  C   UNL     1       0.964   9.092  18.241  0.00  0.00    +0.000 A 
ENDROOT
BRANCH   5   7
ATOM      7  N   UNL     1      -0.602  10.918  17.964  0.00  0.00    +0.000 N 
ATOM      8  C   UNL     1      -1.744  10.537  17.297  0.00  0.00    +0.000 C 
ATOM      9  O   UNL     1      -2.308   9.453  17.391  0.00  0.00    +0.000 OA
ATOM     10  N   UNL     1      -2.257  11.541  16.503  0.00  0.00    +0.000 N 
ATOM     11  H   UNL     1      -0.422  11.909  18.025  0.00  0.00    +0.000 HD
ATOM     12  H   UNL     1      -1.699  12.363  16.320  0.00  0.00    +0.000 HD
BRANCH  10  13
ATOM     13  C   UNL     1      -3.471  11.315  15.740  0.00  0.00    +0.000 C 
BRANCH  13  14
ATOM     14  C   UNL     1      -4.669  11.012  16.639  0.00  0.00    +0.000 C 
BRANCH  14  15
ATOM     15  C   UNL     1      -5.313  12.294  17.148  0.00  0.00    +0.000 C 
ATOM     16 CL   UNL     1      -6.965  11.981  17.726  0.00  0.00    +0.000 Cl
ENDBRANCH  14  15
ENDBRANCH  13  14
ENDBRANCH  10  13
ENDBRANCH   5   7
BRANCH   1  17
ATOM     17  S   UNL     1       2.794   7.019  18.368  0.00  0.00    +0.000 S 
ATOM     18  O   UNL     1       3.881   7.673  17.670  0.00  0.00    +0.000 OA
ATOM     19  O   UNL     1       1.907   6.100  17.686  0.00  0.00    +0.000 OA
BRANCH  17  20
ATOM     20  N   UNL     1       3.399   6.190  19.704  0.00  0.00    +0.000 N 
ATOM     21  H   UNL     1       4.374   6.400  19.903  0.00  0.00    +0.000 HD
BRANCH  20  27
ATOM     22  C   UNL     1       3.591   3.750  19.443  0.00  0.00    +0.000 A 
ATOM     23  C   UNL     1       3.064   2.473  19.709  0.00  0.00    +0.000 A 
ATOM     24  C   UNL     1       1.929   2.317  20.507  0.00  0.00    +0.000 A 
ATOM     25  C   UNL     1       1.315   3.435  21.066  0.00  0.00    +0.000 A 
ATOM     26  C   UNL     1       1.830   4.709  20.822  0.00  0.00    +0.000 A 
ATOM     27  C   UNL     1       2.958   4.870  20.012  0.00  0.00    +0.000 A 
BRANCH  22  28
ATOM     28  C   UNL     1       4.799   3.861  18.534  0.00  0.00    +0.000 C 
BRANCH  28  30
ATOM     29  C   UNL     1       5.666   4.117  16.143  0.00  0.00    +0.000 C 
ATOM     30  C   UNL     1       4.495   3.722  17.035  0.00  0.00    +0.000 C 
ENDBRANCH  28  30
ENDBRANCH  22  28
ENDBRANCH  20  27
ENDBRANCH  17  20
ENDBRANCH   1  17
TORSDOF 9
ENDMDL
