MODEL 1
REMARK VINA RESULT:      -5.9      0.000      0.000
REMARK  Name = 
REMARK  8 active torsions:
REMARK  status: ('A' for Active; 'I' for Inactive)
REMARK    1  A    between atoms: C_1  and  C_2
REMARK    2  A    between atoms: C_2  and  N_3
REMARK    3  A    between atoms: N_3  and  C_4
REMARK    4  A    between atoms: N_3  and  C_5
REMARK    5  A    between atoms: C_5  and  C_6
REMARK    6  A    between atoms: C_12  and  C_13
REMARK    7  A    between atoms: C_13  and  O_15
REMARK    8  A    between atoms: O_15  and  C_16
REMARK                            x       y       z     vdW  Elec       q    Type
REMARK                         _______ _______ _______ _____ _____    ______ ____
ROOT
ATOM      1  C   UNL     1       3.810   4.502  17.597  0.00  0.00    +0.000 A 
ATOM      2  C   UNL     1       3.787   3.109  17.365  0.00  0.00    +0.000 A 
ATOM      3  C   UNL     1       2.675   2.339  17.702  0.00  0.00    +0.000 A 
ATOM      4  C   UNL     1       1.575   2.951  18.282  0.00  0.00    +0.000 A 
ATOM      5  F   UNL     1       0.490   2.220  18.570  0.00  0.00    +0.000 F 
ATOM      6  C   UNL     1       1.578   4.310  18.561  0.00  0.00    +0.000 A 
ATOM      7  C   UNL     1       2.698   5.091  18.238  0.00  0.00    +0.000 A 
ENDROOT
BRANCH   7   8
ATOM      8  C   UNL     1       2.568   6.538  18.553  0.00  0.00    +0.000 C 
ATOM      9  O   UNL     1       2.310   7.381  17.709  0.00  0.00    +0.000 OA
BRANCH   8  10
ATOM     10  O   UNL     1       2.650   6.751  19.889  0.00  0.00    +0.000 OA
ATOM     11  C   UNL     1       1.772   7.776  20.364  0.00  0.00    +0.000 C 
ENDBRANCH   8  10
ENDBRANCH   7   8
BRANCH   1  12
ATOM     12  C   UNL     1       4.986   5.283  17.041  0.00  0.00    +0.000 C 
BRANCH  12  13
ATOM     13  N   UNL     1       6.190   4.437  16.851  0.00  0.00    +0.000 NA
ATOM     14  C   UNL     1       7.158   4.735  17.907  0.00  0.00    +0.000 C 
BRANCH  13  16
ATOM     15  C   UNL     1       5.935   4.028  14.383  0.00  0.00    +0.000 C 
ATOM     16  C   UNL     1       6.766   4.636  15.506  0.00  0.00    +0.000 C 
ENDBRANCH  13  16
ENDBRANCH  12  13
ENDBRANCH   1  12
TORSDOF 5
ENDMDL
MODEL 2
REMARK VINA RESULT:      -5.8      3.446      5.704
REMARK  Name = 
REMARK  8 active torsions:
REMARK  status: ('A' for Active; 'I' for Inactive)
REMARK    1  A    between atoms: C_1  and  C_2
REMARK    2  A    between atoms: C_2  and  N_3
REMARK    3  A    between atoms: N_3  and  C_4
REMARK    4  A    between atoms: N_3  and  C_5
REMARK    5  A    between atoms: C_5  and  C_6
REMARK    6  A    between atoms: C_12  and  C_13
REMARK    7  A    between atoms: C_13  and  O_15
REMARK    8  A    between atoms: O_15  and  C_16
REMARK                            x       y       z     vdW  Elec       q    Type
REMARK                         _______ _______ _______ _____ _____    ______ ____
ROOT
ATOM      1  C   UNL     1       5.137   4.556  17.659  0.00  0.00    +0.000 A 
ATOM      2  C   UNL     1       5.438   4.698  19.032  0.00  0.00    +0.000 A 
ATOM      3  C   UNL     1       6.549   5.426  19.455  0.00  0.00    +0.000 A 
ATOM      4  C   UNL     1       7.376   6.014  18.512  0.00  0.00    +0.000 A 
ATOM      5  F   UNL     1       8.421   6.747  18.917  0.00  0.00    +0.000 F 
ATOM      6  C   UNL     1       7.134   5.862  17.155  0.00  0.00    +0.000 A 
ATOM      7  C   UNL     1       6.026   5.120  16.717  0.00  0.00    +0.000 A 
ENDROOT
BRANCH   7   8
ATOM      8  C   UNL     1       5.851   5.059  15.243  0.00  0.00    +0.000 C 
ATOM      9  O   UNL     1       5.504   6.019  14.574  0.00  0.00    +0.000 OA
BRANCH   8  10
ATOM     10  O   UNL     1       6.244   3.854  14.760  0.00  0.00    +0.000 OA
ATOM     11  C   UNL     1       6.185   3.760  13.333  0.00  0.00    +0.000 C 
ENDBRANCH   8  10
ENDBRANCH   7   8
BRANCH   1  12
ATOM     12  C   UNL     1       3.818   3.898  17.299  0.00  0.00    +0.000 C 
BRANCH  12  13
ATOM     13  N   UNL     1       3.146   3.292  18.475  0.00  0.00    +0.000 NA
ATOM     14  C   UNL     1       3.224   1.835  18.375  0.00  0.00    +0.000 C 
BRANCH  13  16
ATOM     15  C   UNL     1       1.273   3.957  20.016  0.00  0.00    +0.000 C 
ATOM     16  C   UNL     1       1.750   3.762  18.582  0.00  0.00    +0.000 C 
ENDBRANCH  13  16
ENDBRANCH  12  13
ENDBRANCH   1  12
TORSDOF 5
ENDMDL
MODEL 3
REMARK VINA RESULT:      -5.8      2.373      3.678
REMARK  Name = 
REMARK  8 active torsions:
REMARK  status: ('A' for Active; 'I' for Inactive)
REMARK    1  A    between atoms: C_1  and  C_2
REMARK    2  A    between atoms: C_2  and  N_3
REMARK    3  A    between atoms: N_3  and  C_4
REMARK    4  A    between atoms: N_3  and  C_5
REMARK    5  A    between atoms: C_5  and  C_6
REMARK    6  A    between atoms: C_12  and  C_13
REMARK    7  A    between atoms: C_13  and  O_15
REMARK    8  A    between atoms: O_15  and  C_16
REMARK                            x       y       z     vdW  Elec       q    Type
REMARK                         _______ _______ _______ _____ _____    ______ ____
ROOT
ATOM      1  C   UNL     1       4.131   5.333  17.080  0.00  0.00    +0.000 A 
ATOM      2  C   UNL     1       4.352   6.725  16.971  0.00  0.00    +0.000 A 
ATOM      3  C   UNL     1       3.562   7.637  17.669  0.00  0.00    +0.000 A 
ATOM      4  C   UNL     1       2.538   7.171  18.478  0.00  0.00    +0.000 A 
ATOM      5  F   UNL     1       1.804   8.044  19.180  0.00  0.00    +0.000 F 
ATOM      6  C   UNL     1       2.267   5.814  18.578  0.00  0.00    +0.000 A 
ATOM      7  C   UNL     1       3.048   4.888  17.869  0.00  0.00    +0.000 A 
ENDROOT
BRANCH   7   8
ATOM      8  C   UNL     1       2.684   3.463  18.084  0.00  0.00    +0.000 C 
ATOM      9  O   UNL     1       2.335   2.722  17.180  0.00  0.00    +0.000 OA
BRANCH   8  10
ATOM     10  O   UNL     1       2.913   3.096  19.370  0.00  0.00    +0.000 OA
ATOM     11  C   UNL     1       4.242   2.619  19.604  0.00  0.00    +0.000 C 
ENDBRANCH   8  10
ENDBRANCH   7   8
BRANCH   1  12
ATOM     12  C   UNL     1       5.144   4.413  16.426  0.00  0.00    +0.000 C 
BRANCH  12  13
ATOM     13  N   UNL     1       6.485   5.039  16.304  0.00  0.00    +0.000 NA
ATOM     14  C   UNL     1       7.055   4.702  15.000  0.00  0.00    +0.000 C 
BRANCH  13  16
ATOM     15  C   UNL     1       7.629   5.715  18.439  0.00  0.00    +0.000 C 
ATOM     16  C   UNL     1       7.364   4.620  17.413  0.00  0.00    +0.000 C 
ENDBRANCH  13  16
ENDBRANCH  12  13
ENDBRANCH   1  12
TORSDOF 5
ENDMDL
MODEL 4
REMARK VINA RESULT:      -5.7      2.412      3.645
REMARK  Name = 
REMARK  8 active torsions:
REMARK  status: ('A' for Active; 'I' for Inactive)
REMARK    1  A    between atoms: C_1  and  C_2
REMARK    2  A    between atoms: C_2  and  N_3
REMARK    3  A    between atoms: N_3  and  C_4
REMARK    4  A    between atoms: N_3  and  C_5
REMARK    5  A    between atoms: C_5  and  C_6
REMARK    6  A    between atoms: C_12  and  C_13
REMARK    7  A    between atoms: C_13  and  O_15
REMARK    8  A    between atoms: O_15  and  C_16
REMARK                            x       y       z     vdW  Elec       q    Type
REMARK                         _______ _______ _______ _____ _____    ______ ____
ROOT
ATOM      1  C   UNL     1       4.013   6.088  17.706  0.00  0.00    +0.000 A 
ATOM      2  C   UNL     1       3.362   7.339  17.784  0.00  0.00    +0.000 A 
ATOM      3  C   UNL     1       2.469   7.624  18.816  0.00  0.00    +0.000 A 
ATOM      4  C   UNL     1       2.211   6.661  19.778  0.00  0.00    +0.000 A 
ATOM      5  F   UNL     1       1.385   6.946  20.793  0.00  0.00    +0.000 F 
ATOM      6  C   UNL     1       2.802   5.408  19.710  0.00  0.00    +0.000 A 
ATOM      7  C   UNL     1       3.692   5.106  18.668  0.00  0.00    +0.000 A 
ENDROOT
BRANCH   7   8
ATOM      8  C   UNL     1       4.288   3.745  18.723  0.00  0.00    +0.000 C 
ATOM      9  O   UNL     1       5.194   3.447  19.485  0.00  0.00    +0.000 OA
BRANCH   8  10
ATOM     10  O   UNL     1       3.610   2.889  17.920  0.00  0.00    +0.000 OA
ATOM     11  C   UNL     1       3.496   1.566  18.455  0.00  0.00    +0.000 C 
ENDBRANCH   8  10
ENDBRANCH   7   8
BRANCH   1  12
ATOM     12  C   UNL     1       5.094   5.930  16.653  0.00  0.00    +0.000 C 
BRANCH  12  13
ATOM     13  N   UNL     1       6.437   5.711  17.247  0.00  0.00    +0.000 NA
ATOM     14  C   UNL     1       7.171   6.977  17.253  0.00  0.00    +0.000 C 
BRANCH  13  16
ATOM     15  C   UNL     1       6.675   4.431  15.095  0.00  0.00    +0.000 C 
ATOM     16  C   UNL     1       7.169   4.655  16.520  0.00  0.00    +0.000 C 
ENDBRANCH  13  16
ENDBRANCH  12  13
ENDBRANCH   1  12
TORSDOF 5
ENDMDL
MODEL 5
REMARK VINA RESULT:      -5.7      3.214      5.575
REMARK  Name = 
REMARK  8 active torsions:
REMARK  status: ('A' for Active; 'I' for Inactive)
REMARK    1  A    between atoms: C_1  and  C_2
REMARK    2  A    between atoms: C_2  and  N_3
REMARK    3  A    between atoms: N_3  and  C_4
REMARK    4  A    between atoms: N_3  and  C_5
REMARK    5  A    between atoms: C_5  and  C_6
REMARK    6  A    between atoms: C_12  and  C_13
REMARK    7  A    between atoms: C_13  and  O_15
REMARK    8  A    between atoms: O_15  and  C_16
REMARK                            x       y       z     vdW  Elec       q    Type
REMARK                         _______ _______ _______ _____ _____    ______ ____
ROOT
ATOM      1  C   UNL     1       5.245   4.878  17.819  0.00  0.00    +0.000 A 
ATOM      2  C   UNL     1       5.818   4.799  19.108  0.00  0.00    +0.000 A 
ATOM      3  C   UNL     1       6.953   5.539  19.440  0.00  0.00    +0.000 A 
ATOM      4  C   UNL     1       7.532   6.360  18.486  0.00  0.00    +0.000 A 
ATOM      5  F   UNL     1       8.598   7.102  18.814  0.00  0.00    +0.000 F 
ATOM      6  C   UNL     1       7.020   6.432  17.198  0.00  0.00    +0.000 A 
ATOM      7  C   UNL     1       5.886   5.681  16.850  0.00  0.00    +0.000 A 
ENDROOT
BRANCH   7   8
ATOM      8  C   UNL     1       5.411   5.869  15.455  0.00  0.00    +0.000 C 
ATOM      9  O   UNL     1       5.107   6.959  14.997  0.00  0.00    +0.000 OA
BRANCH   8  10
ATOM     10  O   UNL     1       5.486   4.708  14.759  0.00  0.00    +0.000 OA
ATOM     11  C   UNL     1       6.720   4.539  14.054  0.00  0.00    +0.000 C 
ENDBRANCH   8  10
ENDBRANCH   7   8
BRANCH   1  12
ATOM     12  C   UNL     1       3.917   4.177  17.603  0.00  0.00    +0.000 C 
BRANCH  12  13
ATOM     13  N   UNL     1       2.866   4.648  18.538  0.00  0.00    +0.000 NA
ATOM     14  C   UNL     1       1.721   3.741  18.471  0.00  0.00    +0.000 C 
BRANCH  13  16
ATOM     15  C   UNL     1       2.495   6.961  19.454  0.00  0.00    +0.000 C 
ATOM     16  C   UNL     1       2.482   6.042  18.238  0.00  0.00    +0.000 C 
ENDBRANCH  13  16
ENDBRANCH  12  13
ENDBRANCH   1  12
TORSDOF 5
ENDMDL
MODEL 6
REMARK VINA RESULT:      -5.7      1.179      1.732
REMARK  Name = 
REMARK  8 active torsions:
REMARK  status: ('A' for Active; 'I' for Inactive)
REMARK    1  A    between atoms: C_1  and  C_2
REMARK    2  A    between atoms: C_2  and  N_3
REMARK    3  A    between atoms: N_3  and  C_4
REMARK    4  A    between atoms: N_3  and  C_5
REMARK    5  A    between atoms: C_5  and  C_6
REMARK    6  A    between atoms: C_12  and  C_13
REMARK    7  A    between atoms: C_13  and  O_15
REMARK    8  A    between atoms: O_15  and  C_16
REMARK                            x       y       z     vdW  Elec       q    Type
REMARK                         _______ _______ _______ _____ _____    ______ ____
ROOT
ATOM      1  C   UNL     1       3.636   4.493  17.698  0.00  0.00    +0.000 A 
ATOM      2  C   UNL     1       3.633   3.117  17.378  0.00  0.00    +0.000 A 
ATOM      3  C   UNL     1       2.548   2.304  17.700  0.00  0.00    +0.000 A 
ATOM      4  C   UNL     1       1.456   2.854  18.352  0.00  0.00    +0.000 A 
ATOM      5  F   UNL     1       0.395   2.083  18.626  0.00  0.00    +0.000 F 
ATOM      6  C   UNL     1       1.440   4.192  18.716  0.00  0.00    +0.000 A 
ATOM      7  C   UNL     1       2.533   5.017  18.409  0.00  0.00    +0.000 A 
ENDROOT
BRANCH   7   8
ATOM      8  C   UNL     1       2.385   6.437  18.818  0.00  0.00    +0.000 C 
ATOM      9  O   UNL     1       2.651   6.837  19.940  0.00  0.00    +0.000 OA
BRANCH   8  10
ATOM     10  O   UNL     1       2.042   7.212  17.759  0.00  0.00    +0.000 OA
ATOM     11  C   UNL     1       2.407   8.587  17.910  0.00  0.00    +0.000 C 
ENDBRANCH   8  10
ENDBRANCH   7   8
BRANCH   1  12
ATOM     12  C   UNL     1       4.777   5.333  17.156  0.00  0.00    +0.000 C 
BRANCH  12  13
ATOM     13  N   UNL     1       6.083   4.977  17.765  0.00  0.00    +0.000 NA
ATOM     14  C   UNL     1       6.051   5.296  19.192  0.00  0.00    +0.000 C 
BRANCH  13  16
ATOM     15  C   UNL     1       7.471   7.068  17.598  0.00  0.00    +0.000 C 
ATOM     16  C   UNL     1       7.191   5.665  17.073  0.00  0.00    +0.000 C 
ENDBRANCH  13  16
ENDBRANCH  12  13
ENDBRANCH   1  12
TORSDOF 5
ENDMDL
MODEL 7
REMARK VINA RESULT:      -5.7      0.638      1.083
REMARK  Name = 
REMARK  8 active torsions:
REMARK  status: ('A' for Active; 'I' for Inactive)
REMARK    1  A    between atoms: C_1  and  C_2
REMARK    2  A    between atoms: C_2  and  N_3
REMARK    3  A    between atoms: N_3  and  C_4
REMARK    4  A    between atoms: N_3  and  C_5
REMARK    5  A    between atoms: C_5  and  C_6
REMARK    6  A    between atoms: C_12  and  C_13
REMARK    7  A    between atoms: C_13  and  O_15
REMARK    8  A    between atoms: O_15  and  C_16
REMARK                            x       y       z     vdW  Elec       q    Type
REMARK                         _______ _______ _______ _____ _____    ______ ____
ROOT
ATOM      1  C   UNL     1       3.698   4.467  17.656  0.00  0.00    +0.000 A 
ATOM      2  C   UNL     1       3.627   3.087  17.361  0.00  0.00    +0.000 A 
ATOM      3  C   UNL     1       2.504   2.334  17.701  0.00  0.00    +0.000 A 
ATOM      4  C   UNL     1       1.443   2.948  18.346  0.00  0.00    +0.000 A 
ATOM      5  F   UNL     1       0.347   2.236  18.637  0.00  0.00    +0.000 F 
ATOM      6  C   UNL     1       1.495   4.292  18.686  0.00  0.00    +0.000 A 
ATOM      7  C   UNL     1       2.626   5.056  18.361  0.00  0.00    +0.000 A 
ENDROOT
BRANCH   7   8
ATOM      8  C   UNL     1       2.549   6.490  18.745  0.00  0.00    +0.000 C 
ATOM      9  O   UNL     1       2.615   6.872  19.902  0.00  0.00    +0.000 OA
BRANCH   8  10
ATOM     10  O   UNL     1       2.522   7.284  17.646  0.00  0.00    +0.000 OA
ATOM     11  C   UNL     1       1.992   8.590  17.892  0.00  0.00    +0.000 C 
ENDBRANCH   8  10
ENDBRANCH   7   8
BRANCH   1  12
ATOM     12  C   UNL     1       4.878   5.240  17.096  0.00  0.00    +0.000 C 
BRANCH  12  13
ATOM     13  N   UNL     1       6.166   4.527  17.286  0.00  0.00    +0.000 NA
ATOM     14  C   UNL     1       6.911   5.162  18.372  0.00  0.00    +0.000 C 
BRANCH  13  16
ATOM     15  C   UNL     1       6.088   4.305  14.782  0.00  0.00    +0.000 C 
ATOM     16  C   UNL     1       6.941   4.498  16.030  0.00  0.00    +0.000 C 
ENDBRANCH  13  16
ENDBRANCH  12  13
ENDBRANCH   1  12
TORSDOF 5
ENDMDL
MODEL 8
REMARK VINA RESULT:      -5.6      3.093      5.163
REMARK  Name = 
REMARK  8 active torsions:
REMARK  status: ('A' for Active; 'I' for Inactive)
REMARK    1  A    between atoms: C_1  and  C_2
REMARK    2  A    between atoms: C_2  and  N_3
REMARK    3  A    between atoms: N_3  and  C_4
REMARK    4  A    between atoms: N_3  and  C_5
REMARK    5  A    between atoms: C_5  and  C_6
REMARK    6  A    between atoms: C_12  and  C_13
REMARK    7  A    between atoms: C_13  and  O_15
REMARK    8  A    between atoms: O_15  and  C_16
REMARK                            x       y       z     vdW  Elec       q    Type
REMARK                         _______ _______ _______ _____ _____    ______ ____
ROOT
ATOM      1  C   UNL     1       4.648   5.214  18.150  0.00  0.00    +0.000 A 
ATOM      2  C   UNL     1       5.657   6.151  17.834  0.00  0.00    +0.000 A 
ATOM      3  C   UNL     1       6.228   6.195  16.563  0.00  0.00    +0.000 A 
ATOM      4  C   UNL     1       5.803   5.300  15.595  0.00  0.00    +0.000 A 
ATOM      5  F   UNL     1       6.321   5.367  14.362  0.00  0.00    +0.000 F 
ATOM      6  C   UNL     1       4.842   4.341  15.881  0.00  0.00    +0.000 A 
ATOM      7  C   UNL     1       4.271   4.279  17.161  0.00  0.00    +0.000 A 
ENDROOT
BRANCH   7   8
ATOM      8  C   UNL     1       3.229   3.233  17.335  0.00  0.00    +0.000 C 
ATOM      9  O   UNL     1       2.056   3.410  17.051  0.00  0.00    +0.000 OA
BRANCH   8  10
ATOM     10  O   UNL     1       3.784   2.058  17.724  0.00  0.00    +0.000 OA
ATOM     11  C   UNL     1       3.351   1.616  19.014  0.00  0.00    +0.000 C 
ENDBRANCH   8  10
ENDBRANCH   7   8
BRANCH   1  12
ATOM     12  C   UNL     1       3.964   5.353  19.497  0.00  0.00    +0.000 C 
BRANCH  12  13
ATOM     13  N   UNL     1       2.544   5.764  19.374  0.00  0.00    +0.000 NA
ATOM     14  C   UNL     1       2.478   7.209  19.160  0.00  0.00    +0.000 C 
BRANCH  13  16
ATOM     15  C   UNL     1       0.975   4.064  20.361  0.00  0.00    +0.000 C 
ATOM     16  C   UNL     1       1.770   5.348  20.561  0.00  0.00    +0.000 C 
ENDBRANCH  13  16
ENDBRANCH  12  13
ENDBRANCH   1  12
TORSDOF 5
ENDMDL
MODEL 9
REMARK VINA RESULT:      -5.6      2.902      4.508
REMARK  Name = 
REMARK  8 active torsions:
REMARK  status: ('A' for Active; 'I' for Inactive)
REMARK    1  A    between atoms: C_1  and  C_2
REMARK    2  A    between atoms: C_2  and  N_3
REMARK    3  A    between atoms: N_3  and  C_4
REMARK    4  A    between atoms: N_3  and  C_5
REMARK    5  A    between atoms: C_5  and  C_6
REMARK    6  A    between atoms: C_12  and  C_13
REMARK    7  A    between atoms: C_13  and  O_15
REMARK    8  A    between atoms: O_15  and  C_16
REMARK                            x       y       z     vdW  Elec       q    Type
REMARK                         _______ _______ _______ _____ _____    ______ ____
ROOT
ATOM      1  C   UNL     1       4.056   5.472  18.687  0.00  0.00    +0.000 A 
ATOM      2  C   UNL     1       3.067   5.819  19.634  0.00  0.00    +0.000 A 
ATOM      3  C   UNL     1       2.306   6.978  19.491  0.00  0.00    +0.000 A 
ATOM      4  C   UNL     1       2.528   7.807  18.404  0.00  0.00    +0.000 A 
ATOM      5  F   UNL     1       1.771   8.900  18.243  0.00  0.00    +0.000 F 
ATOM      6  C   UNL     1       3.517   7.519  17.475  0.00  0.00    +0.000 A 
ATOM      7  C   UNL     1       4.299   6.362  17.617  0.00  0.00    +0.000 A 
ENDROOT
BRANCH   7   8
ATOM      8  C   UNL     1       5.300   6.143  16.541  0.00  0.00    +0.000 C 
ATOM      9  O   UNL     1       5.168   5.297  15.672  0.00  0.00    +0.000 OA
BRANCH   8  10
ATOM     10  O   UNL     1       6.283   7.075  16.600  0.00  0.00    +0.000 OA
ATOM     11  C   UNL     1       7.342   6.739  17.501  0.00  0.00    +0.000 C 
ENDBRANCH   8  10
ENDBRANCH   7   8
BRANCH   1  12
ATOM     12  C   UNL     1       4.711   4.111  18.829  0.00  0.00    +0.000 C 
BRANCH  12  13
ATOM     13  N   UNL     1       3.778   3.083  19.354  0.00  0.00    +0.000 NA
ATOM     14  C   UNL     1       4.524   2.136  20.183  0.00  0.00    +0.000 C 
BRANCH  13  16
ATOM     15  C   UNL     1       1.548   2.418  18.401  0.00  0.00    +0.000 C 
ATOM     16  C   UNL     1       3.065   2.407  18.253  0.00  0.00    +0.000 C 
ENDBRANCH  13  16
ENDBRANCH  12  13
ENDBRANCH   1  12
TORSDOF 5
ENDMDL
