MODEL 1
REMARK VINA RESULT:      -8.8      0.000      0.000
REMARK  Name = 
REMARK  11 active torsions:
REMARK  status: ('A' for Active; 'I' for Inactive)
REMARK    1  A    between atoms: C_1  and  C_2
REMARK    2  A    between atoms: C_2  and  N_3
REMARK    3  A    between atoms: C_8  and  C_10
REMARK    4  A    between atoms: C_15  and  C_16
REMARK    5  A    between atoms: C_16  and  O_17
REMARK    6  A    between atoms: C_16  and  C_18
REMARK    7  A    between atoms: C_16  and  C_24
REMARK    8  A    between atoms: N_30  and  C_31
REMARK    9  A    between atoms: C_31  and  C_32
REMARK   10  A    between atoms: C_32  and  O_33
REMARK   11  A    between atoms: O_33  and  C_34
REMARK                            x       y       z     vdW  Elec       q    Type
REMARK                         _______ _______ _______ _____ _____    ______ ____
ROOT
ATOM      1  C   UNL     1       0.880  10.413  20.046  0.00  0.00    +0.000 A 
ATOM      2  C   UNL     1       1.364  10.958  18.855  0.00  0.00    +0.000 A 
ATOM      3  C   UNL     1       1.940  10.135  17.864  0.00  0.00    +0.000 A 
ATOM      4  C   UNL     1       2.213   8.783  18.150  0.00  0.00    +0.000 A 
ATOM      5  N   UNL     1       2.882   7.850  17.402  0.00  0.00    +0.000 NA
ATOM      6  C   UNL     1       3.103   6.802  18.199  0.00  0.00    +0.000 A 
ATOM      7  N   UNL     1       2.479   7.023  19.430  0.00  0.00    +0.000 N 
ATOM      8  C   UNL     1       1.829   8.257  19.374  0.00  0.00    +0.000 A 
ATOM      9  C   UNL     1       1.037   9.017  20.272  0.00  0.00    +0.000 A 
ENDROOT
BRANCH   1  15
ATOM     10  N   UNL     1      -3.050  12.764  23.724  0.00  0.00    +0.000 N 
ATOM     11  N   UNL     1      -2.100  13.697  23.586  0.00  0.00    +0.000 NA
ATOM     12  N   UNL     1      -1.189  13.138  22.799  0.00  0.00    +0.000 NA
ATOM     13  C   UNL     1      -1.638  11.882  22.482  0.00  0.00    +0.000 A 
ATOM     14  N   UNL     1      -0.966  11.014  21.638  0.00  0.00    +0.000 N 
ATOM     15  C   UNL     1       0.323  11.262  21.172  0.00  0.00    +0.000 C 
ATOM     16  O   UNL     1       1.049  12.151  21.623  0.00  0.00    +0.000 OA
ATOM     17  N   UNL     1      -2.835  11.610  23.035  0.00  0.00    +0.000 NA
ATOM     18  H   UNL     1      -1.476  10.176  21.416  0.00  0.00    +0.000 HD
BRANCH  10  20
ATOM     19  C   UNL     1      -5.519  12.916  24.082  0.00  0.00    +0.000 C 
ATOM     20  C   UNL     1      -4.120  12.965  24.683  0.00  0.00    +0.000 C 
ENDBRANCH  10  20
ENDBRANCH   1  15
BRANCH   6  21
ATOM     21  C   UNL     1       4.070   5.655  17.762  0.00  0.00    +0.000 C 
BRANCH  21  22
ATOM     22  C   UNL     1       5.529   6.040  18.144  0.00  0.00    +0.000 A 
ATOM     23  C   UNL     1       6.166   5.465  19.265  0.00  0.00    +0.000 A 
ATOM     24  C   UNL     1       7.513   5.712  19.541  0.00  0.00    +0.000 A 
ATOM     25  C   UNL     1       8.245   6.576  18.734  0.00  0.00    +0.000 A 
ATOM     26  C   UNL     1       7.630   7.195  17.650  0.00  0.00    +0.000 A 
ATOM     27  C   UNL     1       6.287   6.931  17.357  0.00  0.00    +0.000 A 
ENDBRANCH  21  22
BRANCH  21  28
ATOM     28  C   UNL     1       3.733   4.182  18.118  0.00  0.00    +0.000 A 
ATOM     29  C   UNL     1       4.471   3.424  19.045  0.00  0.00    +0.000 A 
ATOM     30  C   UNL     1       4.227   2.051  19.209  0.00  0.00    +0.000 A 
ATOM     31  C   UNL     1       3.203   1.426  18.503  0.00  0.00    +0.000 A 
ATOM     32  C   UNL     1       2.370   2.176  17.684  0.00  0.00    +0.000 A 
ATOM     33  C   UNL     1       2.614   3.542  17.522  0.00  0.00    +0.000 A 
ENDBRANCH  21  28
BRANCH  21  34
ATOM     34  O   UNL     1       3.982   5.651  16.322  0.00  0.00    +0.000 OA
ATOM     35  H   UNL     1       3.190   6.190  16.125  0.00  0.00    +0.000 HD
ENDBRANCH  21  34
ENDBRANCH   6  21
BRANCH   7  36
ATOM     36  C   UNL     1       2.589   6.180  20.612  0.00  0.00    +0.000 C 
BRANCH  36  37
ATOM     37  C   UNL     1       1.542   5.078  20.765  0.00  0.00    +0.000 C 
BRANCH  37  38
ATOM     38  O   UNL     1       2.074   4.013  21.538  0.00  0.00    +0.000 OA
ATOM     39  C   UNL     1       1.348   2.805  21.386  0.00  0.00    +0.000 C 
ENDBRANCH  37  38
ENDBRANCH  36  37
ENDBRANCH   7  36
TORSDOF 9
ENDMDL
MODEL 2
REMARK VINA RESULT:      -8.4      1.250      1.597
REMARK  Name = 
REMARK  11 active torsions:
REMARK  status: ('A' for Active; 'I' for Inactive)
REMARK    1  A    between atoms: C_1  and  C_2
REMARK    2  A    between atoms: C_2  and  N_3
REMARK    3  A    between atoms: C_8  and  C_10
REMARK    4  A    between atoms: C_15  and  C_16
REMARK    5  A    between atoms: C_16  and  O_17
REMARK    6  A    between atoms: C_16  and  C_18
REMARK    7  A    between atoms: C_16  and  C_24
REMARK    8  A    between atoms: N_30  and  C_31
REMARK    9  A    between atoms: C_31  and  C_32
REMARK   10  A    between atoms: C_32  and  O_33
REMARK   11  A    between atoms: O_33  and  C_34
REMARK                            x       y       z     vdW  Elec       q    Type
REMARK                         _______ _______ _______ _____ _____    ______ ____
ROOT
ATOM      1  C   UNL     1       0.920  10.175  20.005  0.00  0.00    +0.000 A 
ATOM      2  C   UNL     1       1.407  10.735  18.822  0.00  0.00    +0.000 A 
ATOM      3  C   UNL     1       2.008   9.928  17.833  0.00  0.00    +0.000 A 
ATOM      4  C   UNL     1       2.302   8.580  18.114  0.00  0.00    +0.000 A 
ATOM      5  N   UNL     1       2.996   7.663  17.368  0.00  0.00    +0.000 NA
ATOM      6  C   UNL     1       3.227   6.615  18.162  0.00  0.00    +0.000 A 
ATOM      7  N   UNL     1       2.586   6.818  19.387  0.00  0.00    +0.000 N 
ATOM      8  C   UNL     1       1.915   8.040  19.331  0.00  0.00    +0.000 A 
ATOM      9  C   UNL     1       1.099   8.781  20.224  0.00  0.00    +0.000 A 
ENDROOT
BRANCH   1  15
ATOM     10  N   UNL     1      -1.687  14.689  22.711  0.00  0.00    +0.000 N 
ATOM     11  N   UNL     1      -0.862  14.163  23.626  0.00  0.00    +0.000 NA
ATOM     12  N   UNL     1      -0.320  13.112  23.025  0.00  0.00    +0.000 NA
ATOM     13  C   UNL     1      -0.835  13.053  21.757  0.00  0.00    +0.000 A 
ATOM     14  N   UNL     1      -0.463  12.105  20.818  0.00  0.00    +0.000 N 
ATOM     15  C   UNL     1       0.335  11.008  21.129  0.00  0.00    +0.000 C 
ATOM     16  O   UNL     1       0.606  10.671  22.283  0.00  0.00    +0.000 OA
ATOM     17  N   UNL     1      -1.696  14.056  21.506  0.00  0.00    +0.000 NA
ATOM     18  H   UNL     1      -0.846  12.261  19.900  0.00  0.00    +0.000 HD
BRANCH  10  20
ATOM     19  C   UNL     1      -2.389  17.059  22.336  0.00  0.00    +0.000 C 
ATOM     20  C   UNL     1      -2.597  15.753  23.091  0.00  0.00    +0.000 C 
ENDBRANCH  10  20
ENDBRANCH   1  15
BRANCH   6  21
ATOM     21  C   UNL     1       4.220   5.488  17.729  0.00  0.00    +0.000 C 
BRANCH  21  22
ATOM     22  C   UNL     1       5.676   5.942  18.034  0.00  0.00    +0.000 A 
ATOM     23  C   UNL     1       6.308   6.939  17.260  0.00  0.00    +0.000 A 
ATOM     24  C   UNL     1       7.568   7.437  17.604  0.00  0.00    +0.000 A 
ATOM     25  C   UNL     1       8.249   6.918  18.699  0.00  0.00    +0.000 A 
ATOM     26  C   UNL     1       7.672   5.900  19.451  0.00  0.00    +0.000 A 
ATOM     27  C   UNL     1       6.401   5.416  19.123  0.00  0.00    +0.000 A 
ENDBRANCH  21  22
BRANCH  21  28
ATOM     28  C   UNL     1       3.954   4.019  18.156  0.00  0.00    +0.000 A 
ATOM     29  C   UNL     1       4.611   3.398  19.234  0.00  0.00    +0.000 A 
ATOM     30  C   UNL     1       4.457   2.024  19.475  0.00  0.00    +0.000 A 
ATOM     31  C   UNL     1       3.598   1.260  18.691  0.00  0.00    +0.000 A 
ATOM     32  C   UNL     1       2.833   1.872  17.707  0.00  0.00    +0.000 A 
ATOM     33  C   UNL     1       2.986   3.240  17.469  0.00  0.00    +0.000 A 
ENDBRANCH  21  28
BRANCH  21  34
ATOM     34  O   UNL     1       4.073   5.423  16.295  0.00  0.00    +0.000 OA
ATOM     35  H   UNL     1       3.215   4.973  16.159  0.00  0.00    +0.000 HD
ENDBRANCH  21  34
ENDBRANCH   6  21
BRANCH   7  36
ATOM     36  C   UNL     1       2.698   5.971  20.566  0.00  0.00    +0.000 C 
BRANCH  36  37
ATOM     37  C   UNL     1       1.482   5.111  20.908  0.00  0.00    +0.000 C 
BRANCH  37  38
ATOM     38  O   UNL     1       1.906   3.883  21.480  0.00  0.00    +0.000 OA
ATOM     39  C   UNL     1       1.201   2.765  20.968  0.00  0.00    +0.000 C 
ENDBRANCH  37  38
ENDBRANCH  36  37
ENDBRANCH   7  36
TORSDOF 9
ENDMDL
MODEL 3
REMARK VINA RESULT:      -8.4      0.932      1.268
REMARK  Name = 
REMARK  11 active torsions:
REMARK  status: ('A' for Active; 'I' for Inactive)
REMARK    1  A    between atoms: C_1  and  C_2
REMARK    2  A    between atoms: C_2  and  N_3
REMARK    3  A    between atoms: C_8  and  C_10
REMARK    4  A    between atoms: C_15  and  C_16
REMARK    5  A    between atoms: C_16  and  O_17
REMARK    6  A    between atoms: C_16  and  C_18
REMARK    7  A    between atoms: C_16  and  C_24
REMARK    8  A    between atoms: N_30  and  C_31
REMARK    9  A    between atoms: C_31  and  C_32
REMARK   10  A    between atoms: C_32  and  O_33
REMARK   11  A    between atoms: O_33  and  C_34
REMARK                            x       y       z     vdW  Elec       q    Type
REMARK                         _______ _______ _______ _____ _____    ______ ____
ROOT
ATOM      1  C   UNL     1       0.712  10.077  20.105  0.00  0.00    +0.000 A 
ATOM      2  C   UNL     1       1.191  10.709  18.956  0.00  0.00    +0.000 A 
ATOM      3  C   UNL     1       1.826   9.970  17.934  0.00  0.00    +0.000 A 
ATOM      4  C   UNL     1       2.159   8.620  18.153  0.00  0.00    +0.000 A 
ATOM      5  N   UNL     1       2.887   7.762  17.370  0.00  0.00    +0.000 NA
ATOM      6  C   UNL     1       3.145   6.684  18.115  0.00  0.00    +0.000 A 
ATOM      7  N   UNL     1       2.488   6.807  19.342  0.00  0.00    +0.000 N 
ATOM      8  C   UNL     1       1.779   8.010  19.338  0.00  0.00    +0.000 A 
ATOM      9  C   UNL     1       0.933   8.681  20.258  0.00  0.00    +0.000 A 
ENDROOT
BRANCH   1  15
ATOM     10  N   UNL     1      -2.417  14.150  22.954  0.00  0.00    +0.000 N 
ATOM     11  N   UNL     1      -1.426  13.822  23.793  0.00  0.00    +0.000 NA
ATOM     12  N   UNL     1      -0.758  12.862  23.166  0.00  0.00    +0.000 NA
ATOM     13  C   UNL     1      -1.371  12.658  21.958  0.00  0.00    +0.000 A 
ATOM     14  N   UNL     1      -0.921  11.756  21.008  0.00  0.00    +0.000 N 
ATOM     15  C   UNL     1       0.093  10.836  21.263  0.00  0.00    +0.000 C 
ATOM     16  O   UNL     1       0.530  10.602  22.392  0.00  0.00    +0.000 OA
ATOM     17  N   UNL     1      -2.423  13.476  21.772  0.00  0.00    +0.000 NA
ATOM     18  H   UNL     1      -1.412  11.801  20.131  0.00  0.00    +0.000 HD
BRANCH  10  20
ATOM     19  C   UNL     1      -3.210  15.695  24.753  0.00  0.00    +0.000 C 
ATOM     20  C   UNL     1      -3.469  15.045  23.400  0.00  0.00    +0.000 C 
ENDBRANCH  10  20
ENDBRANCH   1  15
BRANCH   6  21
ATOM     21  C   UNL     1       4.175   5.611  17.637  0.00  0.00    +0.000 C 
BRANCH  21  22
ATOM     22  C   UNL     1       5.602   6.029  18.095  0.00  0.00    +0.000 A 
ATOM     23  C   UNL     1       6.192   5.467  19.247  0.00  0.00    +0.000 A 
ATOM     24  C   UNL     1       7.518   5.745  19.595  0.00  0.00    +0.000 A 
ATOM     25  C   UNL     1       8.269   6.628  18.828  0.00  0.00    +0.000 A 
ATOM     26  C   UNL     1       7.698   7.235  17.714  0.00  0.00    +0.000 A 
ATOM     27  C   UNL     1       6.379   6.940  17.351  0.00  0.00    +0.000 A 
ENDBRANCH  21  22
BRANCH  21  28
ATOM     28  C   UNL     1       3.891   4.104  17.882  0.00  0.00    +0.000 A 
ATOM     29  C   UNL     1       2.823   3.412  17.279  0.00  0.00    +0.000 A 
ATOM     30  C   UNL     1       2.512   2.098  17.661  0.00  0.00    +0.000 A 
ATOM     31  C   UNL     1       3.295   1.428  18.596  0.00  0.00    +0.000 A 
ATOM     32  C   UNL     1       4.434   2.037  19.106  0.00  0.00    +0.000 A 
ATOM     33  C   UNL     1       4.743   3.345  18.726  0.00  0.00    +0.000 A 
ENDBRANCH  21  28
BRANCH  21  34
ATOM     34  O   UNL     1       4.134   5.700  16.197  0.00  0.00    +0.000 OA
ATOM     35  H   UNL     1       4.764   6.418  15.981  0.00  0.00    +0.000 HD
ENDBRANCH  21  34
ENDBRANCH   6  21
BRANCH   7  36
ATOM     36  C   UNL     1       2.615   5.907  20.479  0.00  0.00    +0.000 C 
BRANCH  36  37
ATOM     37  C   UNL     1       1.577   4.792  20.589  0.00  0.00    +0.000 C 
BRANCH  37  38
ATOM     38  O   UNL     1       2.208   3.583  20.983  0.00  0.00    +0.000 OA
ATOM     39  C   UNL     1       1.365   2.749  21.760  0.00  0.00    +0.000 C 
ENDBRANCH  37  38
ENDBRANCH  36  37
ENDBRANCH   7  36
TORSDOF 9
ENDMDL
MODEL 4
REMARK VINA RESULT:      -8.3      1.521      1.789
REMARK  Name = 
REMARK  11 active torsions:
REMARK  status: ('A' for Active; 'I' for Inactive)
REMARK    1  A    between atoms: C_1  and  C_2
REMARK    2  A    between atoms: C_2  and  N_3
REMARK    3  A    between atoms: C_8  and  C_10
REMARK    4  A    between atoms: C_15  and  C_16
REMARK    5  A    between atoms: C_16  and  O_17
REMARK    6  A    between atoms: C_16  and  C_18
REMARK    7  A    between atoms: C_16  and  C_24
REMARK    8  A    between atoms: N_30  and  C_31
REMARK    9  A    between atoms: C_31  and  C_32
REMARK   10  A    between atoms: C_32  and  O_33
REMARK   11  A    between atoms: O_33  and  C_34
REMARK                            x       y       z     vdW  Elec       q    Type
REMARK                         _______ _______ _______ _____ _____    ______ ____
ROOT
ATOM      1  C   UNL     1       0.740  10.302  19.827  0.00  0.00    +0.000 A 
ATOM      2  C   UNL     1       1.264  10.850  18.654  0.00  0.00    +0.000 A 
ATOM      3  C   UNL     1       1.909  10.035  17.700  0.00  0.00    +0.000 A 
ATOM      4  C   UNL     1       2.206   8.695  18.012  0.00  0.00    +0.000 A 
ATOM      5  N   UNL     1       2.936   7.774  17.306  0.00  0.00    +0.000 NA
ATOM      6  C   UNL     1       3.149   6.740  18.124  0.00  0.00    +0.000 A 
ATOM      7  N   UNL     1       2.462   6.954  19.321  0.00  0.00    +0.000 N 
ATOM      8  C   UNL     1       1.780   8.168  19.222  0.00  0.00    +0.000 A 
ATOM      9  C   UNL     1       0.926   8.913  20.074  0.00  0.00    +0.000 A 
ENDROOT
BRANCH   1  15
ATOM     10  N   UNL     1      -0.721  15.071  22.929  0.00  0.00    +0.000 N 
ATOM     11  N   UNL     1      -0.691  14.071  23.820  0.00  0.00    +0.000 NA
ATOM     12  N   UNL     1      -0.415  12.989  23.103  0.00  0.00    +0.000 NA
ATOM     13  C   UNL     1      -0.277  13.386  21.798  0.00  0.00    +0.000 A 
ATOM     14  N   UNL     1       0.057  12.528  20.764  0.00  0.00    +0.000 N 
ATOM     15  C   UNL     1       0.107  11.145  20.917  0.00  0.00    +0.000 C 
ATOM     16  O   UNL     1      -0.335  10.555  21.905  0.00  0.00    +0.000 OA
ATOM     17  N   UNL     1      -0.442  14.713  21.646  0.00  0.00    +0.000 NA
ATOM     18  H   UNL     1       0.230  12.989  19.886  0.00  0.00    +0.000 HD
BRANCH  10  20
ATOM     19  C   UNL     1      -0.136  17.482  23.229  0.00  0.00    +0.000 C 
ATOM     20  C   UNL     1      -1.185  16.383  23.338  0.00  0.00    +0.000 C 
ENDBRANCH  10  20
ENDBRANCH   1  15
BRANCH   6  21
ATOM     21  C   UNL     1       4.168   5.617  17.744  0.00  0.00    +0.000 C 
BRANCH  21  22
ATOM     22  C   UNL     1       5.600   6.062  18.157  0.00  0.00    +0.000 A 
ATOM     23  C   UNL     1       6.244   5.500  19.281  0.00  0.00    +0.000 A 
ATOM     24  C   UNL     1       7.574   5.804  19.585  0.00  0.00    +0.000 A 
ATOM     25  C   UNL     1       8.278   6.714  18.804  0.00  0.00    +0.000 A 
ATOM     26  C   UNL     1       7.654   7.321  17.719  0.00  0.00    +0.000 A 
ATOM     27  C   UNL     1       6.330   7.000  17.399  0.00  0.00    +0.000 A 
ENDBRANCH  21  22
BRANCH  21  28
ATOM     28  C   UNL     1       3.871   4.143  18.128  0.00  0.00    +0.000 A 
ATOM     29  C   UNL     1       4.576   3.449  19.129  0.00  0.00    +0.000 A 
ATOM     30  C   UNL     1       4.381   2.073  19.324  0.00  0.00    +0.000 A 
ATOM     31  C   UNL     1       3.436   1.379  18.573  0.00  0.00    +0.000 A 
ATOM     32  C   UNL     1       2.630   2.064  17.674  0.00  0.00    +0.000 A 
ATOM     33  C   UNL     1       2.824   3.433  17.482  0.00  0.00    +0.000 A 
ENDBRANCH  21  28
BRANCH  21  34
ATOM     34  O   UNL     1       4.123   5.575  16.302  0.00  0.00    +0.000 OA
ATOM     35  H   UNL     1       3.294   6.042  16.072  0.00  0.00    +0.000 HD
ENDBRANCH  21  34
ENDBRANCH   6  21
BRANCH   7  36
ATOM     36  C   UNL     1       2.539   6.126  20.516  0.00  0.00    +0.000 C 
BRANCH  36  37
ATOM     37  C   UNL     1       1.494   5.019  20.649  0.00  0.00    +0.000 C 
BRANCH  37  38
ATOM     38  O   UNL     1       1.980   3.999  21.509  0.00  0.00    +0.000 OA
ATOM     39  C   UNL     1       1.314   2.761  21.327  0.00  0.00    +0.000 C 
ENDBRANCH  37  38
ENDBRANCH  36  37
ENDBRANCH   7  36
TORSDOF 9
ENDMDL
MODEL 5
REMARK VINA RESULT:      -8.1      1.559      3.254
REMARK  Name = 
REMARK  11 active torsions:
REMARK  status: ('A' for Active; 'I' for Inactive)
REMARK    1  A    between atoms: C_1  and  C_2
REMARK    2  A    between atoms: C_2  and  N_3
REMARK    3  A    between atoms: C_8  and  C_10
REMARK    4  A    between atoms: C_15  and  C_16
REMARK    5  A    between atoms: C_16  and  O_17
REMARK    6  A    between atoms: C_16  and  C_18
REMARK    7  A    between atoms: C_16  and  C_24
REMARK    8  A    between atoms: N_30  and  C_31
REMARK    9  A    between atoms: C_31  and  C_32
REMARK   10  A    between atoms: C_32  and  O_33
REMARK   11  A    between atoms: O_33  and  C_34
REMARK                            x       y       z     vdW  Elec       q    Type
REMARK                         _______ _______ _______ _____ _____    ______ ____
ROOT
ATOM      1  C   UNL     1       0.960   9.848  19.688  0.00  0.00    +0.000 A 
ATOM      2  C   UNL     1       1.546  10.380  18.537  0.00  0.00    +0.000 A 
ATOM      3  C   UNL     1       2.275   9.558  17.651  0.00  0.00    +0.000 A 
ATOM      4  C   UNL     1       2.586   8.236  18.020  0.00  0.00    +0.000 A 
ATOM      5  N   UNL     1       3.386   7.318  17.390  0.00  0.00    +0.000 NA
ATOM      6  C   UNL     1       3.572   6.313  18.249  0.00  0.00    +0.000 A 
ATOM      7  N   UNL     1       2.800   6.539  19.393  0.00  0.00    +0.000 N 
ATOM      8  C   UNL     1       2.095   7.730  19.214  0.00  0.00    +0.000 A 
ATOM      9  C   UNL     1       1.165   8.473  19.986  0.00  0.00    +0.000 A 
ENDROOT
BRANCH   1  15
ATOM     10  N   UNL     1      -2.998  13.578  21.908  0.00  0.00    +0.000 N 
ATOM     11  N   UNL     1      -1.897  13.756  22.649  0.00  0.00    +0.000 NA
ATOM     12  N   UNL     1      -1.027  12.871  22.178  0.00  0.00    +0.000 NA
ATOM     13  C   UNL     1      -1.641  12.199  21.154  0.00  0.00    +0.000 A 
ATOM     14  N   UNL     1      -1.019  11.224  20.391  0.00  0.00    +0.000 N 
ATOM     15  C   UNL     1       0.232  10.702  20.709  0.00  0.00    +0.000 C 
ATOM     16  O   UNL     1       0.798  10.901  21.786  0.00  0.00    +0.000 OA
ATOM     17  N   UNL     1      -2.894  12.635  20.932  0.00  0.00    +0.000 NA
ATOM     18  H   UNL     1      -1.563  10.903  19.608  0.00  0.00    +0.000 HD
BRANCH  10  20
ATOM     19  C   UNL     1      -4.971  13.621  23.442  0.00  0.00    +0.000 C 
ATOM     20  C   UNL     1      -4.227  14.256  22.274  0.00  0.00    +0.000 C 
ENDBRANCH  10  20
ENDBRANCH   1  15
BRANCH   6  21
ATOM     21  C   UNL     1       4.643   5.210  17.970  0.00  0.00    +0.000 C 
BRANCH  21  22
ATOM     22  C   UNL     1       4.062   3.820  18.357  0.00  0.00    +0.000 A 
ATOM     23  C   UNL     1       2.943   3.283  17.686  0.00  0.00    +0.000 A 
ATOM     24  C   UNL     1       2.493   1.986  17.945  0.00  0.00    +0.000 A 
ATOM     25  C   UNL     1       3.119   1.210  18.914  0.00  0.00    +0.000 A 
ATOM     26  C   UNL     1       4.194   1.730  19.626  0.00  0.00    +0.000 A 
ATOM     27  C   UNL     1       4.662   3.021  19.352  0.00  0.00    +0.000 A 
ENDBRANCH  21  22
BRANCH  21  28
ATOM     28  C   UNL     1       5.386   5.184  16.607  0.00  0.00    +0.000 A 
ATOM     29  C   UNL     1       4.826   4.648  15.432  0.00  0.00    +0.000 A 
ATOM     30  C   UNL     1       5.598   4.498  14.270  0.00  0.00    +0.000 A 
ATOM     31  C   UNL     1       6.917   4.940  14.235  0.00  0.00    +0.000 A 
ATOM     32  C   UNL     1       7.455   5.596  15.335  0.00  0.00    +0.000 A 
ATOM     33  C   UNL     1       6.685   5.745  16.491  0.00  0.00    +0.000 A 
ENDBRANCH  21  28
BRANCH  21  34
ATOM     34  O   UNL     1       5.708   5.512  18.895  0.00  0.00    +0.000 OA
ATOM     35  H   UNL     1       6.077   6.359  18.572  0.00  0.00    +0.000 HD
ENDBRANCH  21  34
ENDBRANCH   6  21
BRANCH   7  36
ATOM     36  C   UNL     1       2.820   5.745  20.613  0.00  0.00    +0.000 C 
BRANCH  36  37
ATOM     37  C   UNL     1       1.657   4.775  20.816  0.00  0.00    +0.000 C 
BRANCH  37  38
ATOM     38  O   UNL     1       2.007   3.802  21.788  0.00  0.00    +0.000 OA
ATOM     39  C   UNL     1       1.336   2.567  21.597  0.00  0.00    +0.000 C 
ENDBRANCH  37  38
ENDBRANCH  36  37
ENDBRANCH   7  36
TORSDOF 9
ENDMDL
MODEL 6
REMARK VINA RESULT:      -8.1      1.298      3.248
REMARK  Name = 
REMARK  11 active torsions:
REMARK  status: ('A' for Active; 'I' for Inactive)
REMARK    1  A    between atoms: C_1  and  C_2
REMARK    2  A    between atoms: C_2  and  N_3
REMARK    3  A    between atoms: C_8  and  C_10
REMARK    4  A    between atoms: C_15  and  C_16
REMARK    5  A    between atoms: C_16  and  O_17
REMARK    6  A    between atoms: C_16  and  C_18
REMARK    7  A    between atoms: C_16  and  C_24
REMARK    8  A    between atoms: N_30  and  C_31
REMARK    9  A    between atoms: C_31  and  C_32
REMARK   10  A    between atoms: C_32  and  O_33
REMARK   11  A    between atoms: O_33  and  C_34
REMARK                            x       y       z     vdW  Elec       q    Type
REMARK                         _______ _______ _______ _____ _____    ______ ____
ROOT
ATOM      1  C   UNL     1       1.071  10.416  19.663  0.00  0.00    +0.000 A 
ATOM      2  C   UNL     1       1.629  10.768  18.432  0.00  0.00    +0.000 A 
ATOM      3  C   UNL     1       2.193   9.788  17.587  0.00  0.00    +0.000 A 
ATOM      4  C   UNL     1       2.376   8.476  18.063  0.00  0.00    +0.000 A 
ATOM      5  N   UNL     1       3.017   7.415  17.477  0.00  0.00    +0.000 NA
ATOM      6  C   UNL     1       3.146   6.475  18.416  0.00  0.00    +0.000 A 
ATOM      7  N   UNL     1       2.491   6.894  19.577  0.00  0.00    +0.000 N 
ATOM      8  C   UNL     1       1.916   8.142  19.328  0.00  0.00    +0.000 A 
ATOM      9  C   UNL     1       1.137   9.057  20.080  0.00  0.00    +0.000 A 
ENDROOT
BRANCH   1  15
ATOM     10  N   UNL     1      -2.649  12.986  23.413  0.00  0.00    +0.000 N 
ATOM     11  N   UNL     1      -1.972  13.993  22.848  0.00  0.00    +0.000 NA
ATOM     12  N   UNL     1      -1.096  13.402  22.044  0.00  0.00    +0.000 NA
ATOM     13  C   UNL     1      -1.291  12.050  22.150  0.00  0.00    +0.000 A 
ATOM     14  N   UNL     1      -0.583  11.110  21.419  0.00  0.00    +0.000 N 
ATOM     15  C   UNL     1       0.522  11.439  20.639  0.00  0.00    +0.000 C 
ATOM     16  O   UNL     1       1.089  12.532  20.691  0.00  0.00    +0.000 OA
ATOM     17  N   UNL     1      -2.290  11.740  22.997  0.00  0.00    +0.000 NA
ATOM     18  H   UNL     1      -0.918  10.167  21.525  0.00  0.00    +0.000 HD
BRANCH  10  20
ATOM     19  C   UNL     1      -3.430  14.649  25.107  0.00  0.00    +0.000 C 
ATOM     20  C   UNL     1      -3.569  13.259  24.501  0.00  0.00    +0.000 C 
ENDBRANCH  10  20
ENDBRANCH   1  15
BRANCH   6  21
ATOM     21  C   UNL     1       4.061   5.230  18.179  0.00  0.00    +0.000 C 
BRANCH  21  22
ATOM     22  C   UNL     1       3.198   3.938  18.260  0.00  0.00    +0.000 A 
ATOM     23  C   UNL     1       3.752   2.717  18.703  0.00  0.00    +0.000 A 
ATOM     24  C   UNL     1       2.955   1.584  18.894  0.00  0.00    +0.000 A 
ATOM     25  C   UNL     1       1.597   1.629  18.602  0.00  0.00    +0.000 A 
ATOM     26  C   UNL     1       1.033   2.804  18.117  0.00  0.00    +0.000 A 
ATOM     27  C   UNL     1       1.824   3.947  17.947  0.00  0.00    +0.000 A 
ENDBRANCH  21  22
BRANCH  21  28
ATOM     28  C   UNL     1       5.046   5.212  16.980  0.00  0.00    +0.000 A 
ATOM     29  C   UNL     1       4.736   4.631  15.736  0.00  0.00    +0.000 A 
ATOM     30  C   UNL     1       5.718   4.495  14.741  0.00  0.00    +0.000 A 
ATOM     31  C   UNL     1       7.002   4.994  14.941  0.00  0.00    +0.000 A 
ATOM     32  C   UNL     1       7.298   5.693  16.104  0.00  0.00    +0.000 A 
ATOM     33  C   UNL     1       6.320   5.828  17.093  0.00  0.00    +0.000 A 
ENDBRANCH  21  28
BRANCH  21  34
ATOM     34  O   UNL     1       4.955   5.230  19.311  0.00  0.00    +0.000 OA
ATOM     35  H   UNL     1       5.547   4.467  19.153  0.00  0.00    +0.000 HD
ENDBRANCH  21  34
ENDBRANCH   6  21
BRANCH   7  36
ATOM     36  C   UNL     1       2.507   6.215  20.865  0.00  0.00    +0.000 C 
BRANCH  36  37
ATOM     37  C   UNL     1       1.540   5.044  21.032  0.00  0.00    +0.000 C 
BRANCH  37  38
ATOM     38  O   UNL     1       2.193   3.973  21.698  0.00  0.00    +0.000 OA
ATOM     39  C   UNL     1       1.371   2.825  21.831  0.00  0.00    +0.000 C 
ENDBRANCH  37  38
ENDBRANCH  36  37
ENDBRANCH   7  36
TORSDOF 9
ENDMDL
MODEL 7
REMARK VINA RESULT:      -8.1      1.838      3.587
REMARK  Name = 
REMARK  11 active torsions:
REMARK  status: ('A' for Active; 'I' for Inactive)
REMARK    1  A    between atoms: C_1  and  C_2
REMARK    2  A    between atoms: C_2  and  N_3
REMARK    3  A    between atoms: C_8  and  C_10
REMARK    4  A    between atoms: C_15  and  C_16
REMARK    5  A    between atoms: C_16  and  O_17
REMARK    6  A    between atoms: C_16  and  C_18
REMARK    7  A    between atoms: C_16  and  C_24
REMARK    8  A    between atoms: N_30  and  C_31
REMARK    9  A    between atoms: C_31  and  C_32
REMARK   10  A    between atoms: C_32  and  O_33
REMARK   11  A    between atoms: O_33  and  C_34
REMARK                            x       y       z     vdW  Elec       q    Type
REMARK                         _______ _______ _______ _____ _____    ______ ____
ROOT
ATOM      1  C   UNL     1       0.784  10.102  19.968  0.00  0.00    +0.000 A 
ATOM      2  C   UNL     1       1.361  10.589  18.793  0.00  0.00    +0.000 A 
ATOM      3  C   UNL     1       2.031   9.722  17.902  0.00  0.00    +0.000 A 
ATOM      4  C   UNL     1       2.294   8.394  18.286  0.00  0.00    +0.000 A 
ATOM      5  N   UNL     1       3.036   7.432  17.652  0.00  0.00    +0.000 NA
ATOM      6  C   UNL     1       3.202   6.434  18.522  0.00  0.00    +0.000 A 
ATOM      7  N   UNL     1       2.472   6.712  19.682  0.00  0.00    +0.000 N 
ATOM      8  C   UNL     1       1.814   7.929  19.501  0.00  0.00    +0.000 A 
ATOM      9  C   UNL     1       0.938   8.724  20.284  0.00  0.00    +0.000 A 
ENDROOT
BRANCH   1  15
ATOM     10  N   UNL     1      -0.666  15.018  22.836  0.00  0.00    +0.000 N 
ATOM     11  N   UNL     1      -0.727  14.047  23.756  0.00  0.00    +0.000 NA
ATOM     12  N   UNL     1      -0.453  12.933  23.089  0.00  0.00    +0.000 NA
ATOM     13  C   UNL     1      -0.224  13.284  21.784  0.00  0.00    +0.000 A 
ATOM     14  N   UNL     1       0.136  12.381  20.796  0.00  0.00    +0.000 N 
ATOM     15  C   UNL     1       0.122  11.003  20.993  0.00  0.00    +0.000 C 
ATOM     16  O   UNL     1      -0.400  10.462  21.969  0.00  0.00    +0.000 OA
ATOM     17  N   UNL     1      -0.327  14.610  21.583  0.00  0.00    +0.000 NA
ATOM     18  H   UNL     1       0.378  12.807  19.917  0.00  0.00    +0.000 HD
BRANCH  10  20
ATOM     19  C   UNL     1      -1.200  16.627  24.674  0.00  0.00    +0.000 C 
ATOM     20  C   UNL     1      -1.100  16.360  23.178  0.00  0.00    +0.000 C 
ENDBRANCH  10  20
ENDBRANCH   1  15
BRANCH   6  21
ATOM     21  C   UNL     1       4.217   5.281  18.234  0.00  0.00    +0.000 C 
BRANCH  21  22
ATOM     22  C   UNL     1       3.471   3.916  18.280  0.00  0.00    +0.000 A 
ATOM     23  C   UNL     1       4.107   2.752  18.762  0.00  0.00    +0.000 A 
ATOM     24  C   UNL     1       3.406   1.554  18.921  0.00  0.00    +0.000 A 
ATOM     25  C   UNL     1       2.067   1.474  18.558  0.00  0.00    +0.000 A 
ATOM     26  C   UNL     1       1.426   2.592  18.034  0.00  0.00    +0.000 A 
ATOM     27  C   UNL     1       2.119   3.801  17.896  0.00  0.00    +0.000 A 
ENDBRANCH  21  22
BRANCH  21  28
ATOM     28  C   UNL     1       5.183   5.388  17.023  0.00  0.00    +0.000 A 
ATOM     29  C   UNL     1       4.900   4.839  15.759  0.00  0.00    +0.000 A 
ATOM     30  C   UNL     1       5.874   4.819  14.749  0.00  0.00    +0.000 A 
ATOM     31  C   UNL     1       7.120   5.404  14.956  0.00  0.00    +0.000 A 
ATOM     32  C   UNL     1       7.380   6.073  16.144  0.00  0.00    +0.000 A 
ATOM     33  C   UNL     1       6.410   6.092  17.149  0.00  0.00    +0.000 A 
ENDBRANCH  21  28
BRANCH  21  34
ATOM     34  O   UNL     1       5.123   5.322  19.355  0.00  0.00    +0.000 OA
ATOM     35  H   UNL     1       5.988   5.064  18.978  0.00  0.00    +0.000 HD
ENDBRANCH  21  34
ENDBRANCH   6  21
BRANCH   7  36
ATOM     36  C   UNL     1       2.490   5.937  20.915  0.00  0.00    +0.000 C 
BRANCH  36  37
ATOM     37  C   UNL     1       1.534   4.748  20.989  0.00  0.00    +0.000 C 
BRANCH  37  38
ATOM     38  O   UNL     1       2.191   3.639  21.583  0.00  0.00    +0.000 OA
ATOM     39  C   UNL     1       1.315   2.557  21.850  0.00  0.00    +0.000 C 
ENDBRANCH  37  38
ENDBRANCH  36  37
ENDBRANCH   7  36
TORSDOF 9
ENDMDL
MODEL 8
REMARK VINA RESULT:      -8.0      2.928     11.031
REMARK  Name = 
REMARK  11 active torsions:
REMARK  status: ('A' for Active; 'I' for Inactive)
REMARK    1  A    between atoms: C_1  and  C_2
REMARK    2  A    between atoms: C_2  and  N_3
REMARK    3  A    between atoms: C_8  and  C_10
REMARK    4  A    between atoms: C_15  and  C_16
REMARK    5  A    between atoms: C_16  and  O_17
REMARK    6  A    between atoms: C_16  and  C_18
REMARK    7  A    between atoms: C_16  and  C_24
REMARK    8  A    between atoms: N_30  and  C_31
REMARK    9  A    between atoms: C_31  and  C_32
REMARK   10  A    between atoms: C_32  and  O_33
REMARK   11  A    between atoms: O_33  and  C_34
REMARK                            x       y       z     vdW  Elec       q    Type
REMARK                         _______ _______ _______ _____ _____    ______ ____
ROOT
ATOM      1  C   UNL     1       0.823   8.610  21.084  0.00  0.00    +0.000 A 
ATOM      2  C   UNL     1       0.997   8.780  22.459  0.00  0.00    +0.000 A 
ATOM      3  C   UNL     1       0.248   9.743  23.170  0.00  0.00    +0.000 A 
ATOM      4  C   UNL     1      -0.537  10.675  22.466  0.00  0.00    +0.000 A 
ATOM      5  N   UNL     1      -1.225  11.766  22.932  0.00  0.00    +0.000 NA
ATOM      6  C   UNL     1      -1.595  12.475  21.863  0.00  0.00    +0.000 A 
ATOM      7  N   UNL     1      -1.234  11.780  20.705  0.00  0.00    +0.000 N 
ATOM      8  C   UNL     1      -0.633  10.579  21.087  0.00  0.00    +0.000 A 
ATOM      9  C   UNL     1      -0.078   9.471  20.398  0.00  0.00    +0.000 A 
ENDROOT
BRANCH   1  15
ATOM     10  N   UNL     1       3.822   3.755  19.693  0.00  0.00    +0.000 N 
ATOM     11  N   UNL     1       4.412   4.738  19.002  0.00  0.00    +0.000 NA
ATOM     12  N   UNL     1       3.695   5.821  19.278  0.00  0.00    +0.000 NA
ATOM     13  C   UNL     1       2.700   5.444  20.142  0.00  0.00    +0.000 A 
ATOM     14  N   UNL     1       1.777   6.323  20.685  0.00  0.00    +0.000 N 
ATOM     15  C   UNL     1       1.657   7.644  20.263  0.00  0.00    +0.000 C 
ATOM     16  O   UNL     1       2.201   8.086  19.249  0.00  0.00    +0.000 OA
ATOM     17  N   UNL     1       2.758   4.136  20.452  0.00  0.00    +0.000 NA
ATOM     18  H   UNL     1       1.181   5.915  21.386  0.00  0.00    +0.000 HD
BRANCH  10  20
ATOM     19  C   UNL     1       3.496   1.674  18.347  0.00  0.00    +0.000 C 
ATOM     20  C   UNL     1       4.232   2.380  19.478  0.00  0.00    +0.000 C 
ENDBRANCH  10  20
ENDBRANCH   1  15
BRANCH   6  21
ATOM     21  C   UNL     1      -2.173  13.918  22.022  0.00  0.00    +0.000 C 
BRANCH  21  22
ATOM     22  C   UNL     1      -3.646  13.939  21.522  0.00  0.00    +0.000 A 
ATOM     23  C   UNL     1      -4.198  15.093  20.925  0.00  0.00    +0.000 A 
ATOM     24  C   UNL     1      -5.478  15.080  20.363  0.00  0.00    +0.000 A 
ATOM     25  C   UNL     1      -6.256  13.930  20.427  0.00  0.00    +0.000 A 
ATOM     26  C   UNL     1      -5.757  12.792  21.053  0.00  0.00    +0.000 A 
ATOM     27  C   UNL     1      -4.467  12.795  21.595  0.00  0.00    +0.000 A 
ENDBRANCH  21  22
BRANCH  21  28
ATOM     28  C   UNL     1      -1.991  14.679  23.363  0.00  0.00    +0.000 A 
ATOM     29  C   UNL     1      -0.916  15.552  23.615  0.00  0.00    +0.000 A 
ATOM     30  C   UNL     1      -0.708  16.086  24.897  0.00  0.00    +0.000 A 
ATOM     31  C   UNL     1      -1.600  15.814  25.930  0.00  0.00    +0.000 A 
ATOM     32  C   UNL     1      -2.744  15.068  25.676  0.00  0.00    +0.000 A 
ATOM     33  C   UNL     1      -2.950  14.538  24.401  0.00  0.00    +0.000 A 
ENDBRANCH  21  28
BRANCH  21  34
ATOM     34  O   UNL     1      -1.389  14.714  21.109  0.00  0.00    +0.000 OA
ATOM     35  H   UNL     1      -0.566  14.200  20.984  0.00  0.00    +0.000 HD
ENDBRANCH  21  34
ENDBRANCH   6  21
BRANCH   7  36
ATOM     36  C   UNL     1      -1.346  12.271  19.339  0.00  0.00    +0.000 C 
BRANCH  36  37
ATOM     37  C   UNL     1      -2.541  11.772  18.529  0.00  0.00    +0.000 C 
BRANCH  37  38
ATOM     38  O   UNL     1      -2.124  10.754  17.633  0.00  0.00    +0.000 OA
ATOM     39  C   UNL     1      -3.078   9.714  17.498  0.00  0.00    +0.000 C 
ENDBRANCH  37  38
ENDBRANCH  36  37
ENDBRANCH   7  36
TORSDOF 9
ENDMDL
MODEL 9
REMARK VINA RESULT:      -7.9      1.278      3.191
REMARK  Name = 
REMARK  11 active torsions:
REMARK  status: ('A' for Active; 'I' for Inactive)
REMARK    1  A    between atoms: C_1  and  C_2
REMARK    2  A    between atoms: C_2  and  N_3
REMARK    3  A    between atoms: C_8  and  C_10
REMARK    4  A    between atoms: C_15  and  C_16
REMARK    5  A    between atoms: C_16  and  O_17
REMARK    6  A    between atoms: C_16  and  C_18
REMARK    7  A    between atoms: C_16  and  C_24
REMARK    8  A    between atoms: N_30  and  C_31
REMARK    9  A    between atoms: C_31  and  C_32
REMARK   10  A    between atoms: C_32  and  O_33
REMARK   11  A    between atoms: O_33  and  C_34
REMARK                            x       y       z     vdW  Elec       q    Type
REMARK                         _______ _______ _______ _____ _____    ______ ____
ROOT
ATOM      1  C   UNL     1       1.062  10.445  19.608  0.00  0.00    +0.000 A 
ATOM      2  C   UNL     1       1.667  10.774  18.392  0.00  0.00    +0.000 A 
ATOM      3  C   UNL     1       2.258   9.778  17.585  0.00  0.00    +0.000 A 
ATOM      4  C   UNL     1       2.419   8.474  18.091  0.00  0.00    +0.000 A 
ATOM      5  N   UNL     1       3.077   7.402  17.548  0.00  0.00    +0.000 NA
ATOM      6  C   UNL     1       3.170   6.478  18.507  0.00  0.00    +0.000 A 
ATOM      7  N   UNL     1       2.474   6.919  19.636  0.00  0.00    +0.000 N 
ATOM      8  C   UNL     1       1.913   8.164  19.344  0.00  0.00    +0.000 A 
ATOM      9  C   UNL     1       1.110   9.095  20.051  0.00  0.00    +0.000 A 
ENDROOT
BRANCH   1  15
ATOM     10  N   UNL     1      -2.859  13.204  23.001  0.00  0.00    +0.000 N 
ATOM     11  N   UNL     1      -2.058  14.171  22.537  0.00  0.00    +0.000 NA
ATOM     12  N   UNL     1      -1.142  13.534  21.817  0.00  0.00    +0.000 NA
ATOM     13  C   UNL     1      -1.439  12.197  21.868  0.00  0.00    +0.000 A 
ATOM     14  N   UNL     1      -0.721  11.223  21.193  0.00  0.00    +0.000 N 
ATOM     15  C   UNL     1       0.482  11.487  20.545  0.00  0.00    +0.000 C 
ATOM     16  O   UNL     1       1.113  12.537  20.684  0.00  0.00    +0.000 OA
ATOM     17  N   UNL     1      -2.542  11.944  22.596  0.00  0.00    +0.000 NA
ATOM     18  H   UNL     1      -1.128  10.304  21.240  0.00  0.00    +0.000 HD
BRANCH  10  20
ATOM     19  C   UNL     1      -4.430  12.313  24.729  0.00  0.00    +0.000 C 
ATOM     20  C   UNL     1      -3.870  13.522  23.991  0.00  0.00    +0.000 C 
ENDBRANCH  10  20
ENDBRANCH   1  15
BRANCH   6  21
ATOM     21  C   UNL     1       4.088   5.227  18.326  0.00  0.00    +0.000 C 
BRANCH  21  22
ATOM     22  C   UNL     1       3.227   3.937  18.444  0.00  0.00    +0.000 A 
ATOM     23  C   UNL     1       1.857   3.940  18.105  0.00  0.00    +0.000 A 
ATOM     24  C   UNL     1       1.108   2.760  18.091  0.00  0.00    +0.000 A 
ATOM     25  C   UNL     1       1.696   1.556  18.460  0.00  0.00    +0.000 A 
ATOM     26  C   UNL     1       3.033   1.529  18.846  0.00  0.00    +0.000 A 
ATOM     27  C   UNL     1       3.791   2.706  18.839  0.00  0.00    +0.000 A 
ENDBRANCH  21  22
BRANCH  21  28
ATOM     28  C   UNL     1       5.087   5.167  17.139  0.00  0.00    +0.000 A 
ATOM     29  C   UNL     1       6.353   5.782  17.164  0.00  0.00    +0.000 A 
ATOM     30  C   UNL     1       7.148   5.839  16.009  0.00  0.00    +0.000 A 
ATOM     31  C   UNL     1       6.729   5.228  14.831  0.00  0.00    +0.000 A 
ATOM     32  C   UNL     1       5.548   4.497  14.814  0.00  0.00    +0.000 A 
ATOM     33  C   UNL     1       4.758   4.441  15.965  0.00  0.00    +0.000 A 
ENDBRANCH  21  28
BRANCH  21  34
ATOM     34  O   UNL     1       4.970   5.269  19.468  0.00  0.00    +0.000 OA
ATOM     35  H   UNL     1       5.851   5.457  19.087  0.00  0.00    +0.000 HD
ENDBRANCH  21  34
ENDBRANCH   6  21
BRANCH   7  36
ATOM     36  C   UNL     1       2.441   6.264  20.936  0.00  0.00    +0.000 C 
BRANCH  36  37
ATOM     37  C   UNL     1       1.519   5.053  21.067  0.00  0.00    +0.000 C 
BRANCH  37  38
ATOM     38  O   UNL     1       2.205   3.993  21.716  0.00  0.00    +0.000 OA
ATOM     39  C   UNL     1       1.438   2.804  21.791  0.00  0.00    +0.000 C 
ENDBRANCH  37  38
ENDBRANCH  36  37
ENDBRANCH   7  36
TORSDOF 9
ENDMDL
