MODEL 1
REMARK VINA RESULT:      -8.0      0.000      0.000
REMARK  Name = 
REMARK  1 active torsions:
REMARK  status: ('A' for Active; 'I' for Inactive)
REMARK    1  A    between atoms: C_14  and  C_15
REMARK                            x       y       z     vdW  Elec       q    Type
REMARK                         _______ _______ _______ _____ _____    ______ ____
ROOT
ATOM      1  O   UNL     1       3.466   8.037  16.330  0.00  0.00    +0.000 OA
ATOM      2  C   UNL     1       3.271   7.579  17.442  0.00  0.00    +0.000 C 
ATOM      3  C   UNL     1       2.497   8.288  18.477  0.00  0.00    +0.000 A 
ATOM      4  O   UNL     1       2.178   9.591  18.345  0.00  0.00    +0.000 OA
ATOM      5  C   UNL     1       1.341  10.099  19.295  0.00  0.00    +0.000 A 
ATOM      6  C   UNL     1       1.101  11.464  19.204  0.00  0.00    +0.000 A 
ATOM      7  C   UNL     1       0.228  12.065  20.098  0.00  0.00    +0.000 A 
ATOM      8  C   UNL     1      -0.437  11.283  21.046  0.00  0.00    +0.000 A 
ATOM      9  C   UNL     1      -0.179   9.905  21.146  0.00  0.00    +0.000 A 
ATOM     10  C   UNL     1       0.752   9.309  20.291  0.00  0.00    +0.000 A 
ATOM     11  C   UNL     1       1.164   7.869  20.410  0.00  0.00    +0.000 A 
ATOM     12  O   UNL     1       0.700   7.143  21.269  0.00  0.00    +0.000 OA
ATOM     13  C   UNL     1       2.155   7.407  19.429  0.00  0.00    +0.000 A 
ATOM     14  C   UNL     1       2.622   6.065  19.002  0.00  0.00    +0.000 C 
ATOM     15  N   UNL     1       3.629   6.367  18.020  0.00  0.00    +0.000 N 
ATOM     16  C   UNL     1       4.853   5.864  17.634  0.00  0.00    +0.000 A 
ATOM     17  N   UNL     1       5.568   6.363  16.656  0.00  0.00    +0.000 NA
ATOM     18  C   UNL     1       6.746   5.673  16.499  0.00  0.00    +0.000 A 
ATOM     19  C   UNL     1       6.944   4.669  17.413  0.00  0.00    +0.000 A 
ATOM     20  S   UNL     1       5.604   4.595  18.493  0.00  0.00    +0.000 S 
ENDROOT
BRANCH  14  21
ATOM     21  C   UNL     1       2.509   4.740  19.709  0.00  0.00    +0.000 A 
ATOM     22  C   UNL     1       1.734   3.785  19.010  0.00  0.00    +0.000 A 
ATOM     23  C   UNL     1       0.986   2.846  19.700  0.00  0.00    +0.000 A 
ATOM     24  C   UNL     1       1.128   2.750  21.076  0.00  0.00    +0.000 A 
ATOM     25  C   UNL     1       2.103   3.509  21.732  0.00  0.00    +0.000 A 
ATOM     26  C   UNL     1       2.813   4.505  21.047  0.00  0.00    +0.000 A 
ENDBRANCH  14  21
TORSDOF 1
ENDMDL
MODEL 2
REMARK VINA RESULT:      -7.0      0.851      1.279
REMARK  Name = 
REMARK  1 active torsions:
REMARK  status: ('A' for Active; 'I' for Inactive)
REMARK    1  A    between atoms: C_14  and  C_15
REMARK                            x       y       z     vdW  Elec       q    Type
REMARK                         _______ _______ _______ _____ _____    ______ ____
ROOT
ATOM      1  O   UNL     1       2.959   8.402  16.849  0.00  0.00    +0.000 OA
ATOM      2  C   UNL     1       2.706   7.896  17.928  0.00  0.00    +0.000 C 
ATOM      3  C   UNL     1       2.037   8.625  19.019  0.00  0.00    +0.000 A 
ATOM      4  O   UNL     1       1.896   9.966  18.984  0.00  0.00    +0.000 OA
ATOM      5  C   UNL     1       1.138  10.512  19.978  0.00  0.00    +0.000 A 
ATOM      6  C   UNL     1       1.083  11.900  19.986  0.00  0.00    +0.000 A 
ATOM      7  C   UNL     1       0.302  12.547  20.932  0.00  0.00    +0.000 A 
ATOM      8  C   UNL     1      -0.460  11.795  21.829  0.00  0.00    +0.000 A 
ATOM      9  C   UNL     1      -0.391  10.392  21.828  0.00  0.00    +0.000 A 
ATOM     10  C   UNL     1       0.450   9.739  20.922  0.00  0.00    +0.000 A 
ATOM     11  C   UNL     1       0.664   8.251  20.933  0.00  0.00    +0.000 A 
ATOM     12  O   UNL     1       0.107   7.534  21.744  0.00  0.00    +0.000 OA
ATOM     13  C   UNL     1       1.581   7.733  19.911  0.00  0.00    +0.000 A 
ATOM     14  C   UNL     1       1.862   6.374  19.384  0.00  0.00    +0.000 C 
ATOM     15  N   UNL     1       2.898   6.607  18.414  0.00  0.00    +0.000 N 
ATOM     16  C   UNL     1       4.042   5.974  17.978  0.00  0.00    +0.000 A 
ATOM     17  N   UNL     1       4.816   6.441  17.030  0.00  0.00    +0.000 NA
ATOM     18  C   UNL     1       5.889   5.612  16.810  0.00  0.00    +0.000 A 
ATOM     19  C   UNL     1       5.952   4.528  17.648  0.00  0.00    +0.000 A 
ATOM     20  S   UNL     1       4.616   4.557  18.737  0.00  0.00    +0.000 S 
ENDROOT
BRANCH  14  21
ATOM     21  C   UNL     1       1.573   5.029  19.996  0.00  0.00    +0.000 A 
ATOM     22  C   UNL     1       2.118   4.862  21.291  0.00  0.00    +0.000 A 
ATOM     23  C   UNL     1       2.542   3.617  21.720  0.00  0.00    +0.000 A 
ATOM     24  C   UNL     1       2.284   2.507  20.930  0.00  0.00    +0.000 A 
ATOM     25  C   UNL     1       1.499   2.637  19.780  0.00  0.00    +0.000 A 
ATOM     26  C   UNL     1       1.125   3.904  19.309  0.00  0.00    +0.000 A 
ENDBRANCH  14  21
TORSDOF 1
ENDMDL
MODEL 3
REMARK VINA RESULT:      -6.9      1.606      4.176
REMARK  Name = 
REMARK  1 active torsions:
REMARK  status: ('A' for Active; 'I' for Inactive)
REMARK    1  A    between atoms: C_14  and  C_15
REMARK                            x       y       z     vdW  Elec       q    Type
REMARK                         _______ _______ _______ _____ _____    ______ ____
ROOT
ATOM      1  O   UNL     1       2.193   5.221  21.267  0.00  0.00    +0.000 OA
ATOM      2  C   UNL     1       2.504   5.697  20.189  0.00  0.00    +0.000 C 
ATOM      3  C   UNL     1       2.024   7.010  19.723  0.00  0.00    +0.000 A 
ATOM      4  O   UNL     1       1.012   7.648  20.345  0.00  0.00    +0.000 OA
ATOM      5  C   UNL     1       0.751   8.915  19.913  0.00  0.00    +0.000 A 
ATOM      6  C   UNL     1      -0.356   9.523  20.493  0.00  0.00    +0.000 A 
ATOM      7  C   UNL     1      -0.675  10.828  20.151  0.00  0.00    +0.000 A 
ATOM      8  C   UNL     1       0.147  11.532  19.268  0.00  0.00    +0.000 A 
ATOM      9  C   UNL     1       1.257  10.910  18.671  0.00  0.00    +0.000 A 
ATOM     10  C   UNL     1       1.541   9.572  18.961  0.00  0.00    +0.000 A 
ATOM     11  C   UNL     1       2.640   8.806  18.279  0.00  0.00    +0.000 A 
ATOM     12  O   UNL     1       3.344   9.321  17.431  0.00  0.00    +0.000 OA
ATOM     13  C   UNL     1       2.800   7.409  18.705  0.00  0.00    +0.000 A 
ATOM     14  C   UNL     1       3.877   6.403  18.526  0.00  0.00    +0.000 C 
ATOM     15  N   UNL     1       3.347   5.238  19.183  0.00  0.00    +0.000 N 
ATOM     16  C   UNL     1       3.350   3.874  18.988  0.00  0.00    +0.000 A 
ATOM     17  N   UNL     1       2.765   3.023  19.794  0.00  0.00    +0.000 NA
ATOM     18  C   UNL     1       2.918   1.731  19.351  0.00  0.00    +0.000 A 
ATOM     19  C   UNL     1       3.586   1.614  18.158  0.00  0.00    +0.000 A 
ATOM     20  S   UNL     1       4.034   3.178  17.588  0.00  0.00    +0.000 S 
ENDROOT
BRANCH  14  21
ATOM     21  C   UNL     1       4.994   6.363  17.518  0.00  0.00    +0.000 A 
ATOM     22  C   UNL     1       4.551   6.363  16.174  0.00  0.00    +0.000 A 
ATOM     23  C   UNL     1       5.270   5.696  15.196  0.00  0.00    +0.000 A 
ATOM     24  C   UNL     1       6.509   5.163  15.517  0.00  0.00    +0.000 A 
ATOM     25  C   UNL     1       7.069   5.405  16.775  0.00  0.00    +0.000 A 
ATOM     26  C   UNL     1       6.317   6.022  17.785  0.00  0.00    +0.000 A 
ENDBRANCH  14  21
TORSDOF 1
ENDMDL
MODEL 4
REMARK VINA RESULT:      -6.9      8.830     10.142
REMARK  Name = 
REMARK  1 active torsions:
REMARK  status: ('A' for Active; 'I' for Inactive)
REMARK    1  A    between atoms: C_14  and  C_15
REMARK                            x       y       z     vdW  Elec       q    Type
REMARK                         _______ _______ _______ _____ _____    ______ ____
ROOT
ATOM      1  O   UNL     1       6.269  15.760  20.598  0.00  0.00    +0.000 OA
ATOM      2  C   UNL     1       7.131  14.940  20.866  0.00  0.00    +0.000 C 
ATOM      3  C   UNL     1       7.119  14.140  22.103  0.00  0.00    +0.000 A 
ATOM      4  O   UNL     1       6.300  14.446  23.130  0.00  0.00    +0.000 OA
ATOM      5  C   UNL     1       6.276  13.553  24.160  0.00  0.00    +0.000 A 
ATOM      6  C   UNL     1       5.505  13.930  25.253  0.00  0.00    +0.000 A 
ATOM      7  C   UNL     1       5.383  13.068  26.332  0.00  0.00    +0.000 A 
ATOM      8  C   UNL     1       5.993  11.812  26.286  0.00  0.00    +0.000 A 
ATOM      9  C   UNL     1       6.785  11.440  25.186  0.00  0.00    +0.000 A 
ATOM     10  C   UNL     1       6.967  12.335  24.128  0.00  0.00    +0.000 A 
ATOM     11  C   UNL     1       7.887  12.056  22.973  0.00  0.00    +0.000 A 
ATOM     12  O   UNL     1       8.527  11.023  22.903  0.00  0.00    +0.000 OA
ATOM     13  C   UNL     1       7.959  13.106  21.948  0.00  0.00    +0.000 A 
ATOM     14  C   UNL     1       8.485  13.146  20.561  0.00  0.00    +0.000 C 
ATOM     15  N   UNL     1       8.248  14.508  20.161  0.00  0.00    +0.000 N 
ATOM     16  C   UNL     1       8.889  15.473  19.416  0.00  0.00    +0.000 A 
ATOM     17  N   UNL     1       8.405  16.672  19.208  0.00  0.00    +0.000 NA
ATOM     18  C   UNL     1       9.259  17.428  18.441  0.00  0.00    +0.000 A 
ATOM     19  C   UNL     1      10.434  16.801  18.112  0.00  0.00    +0.000 A 
ATOM     20  S   UNL     1      10.454  15.215  18.786  0.00  0.00    +0.000 S 
ENDROOT
BRANCH  14  21
ATOM     21  C   UNL     1       9.469  12.232  19.881  0.00  0.00    +0.000 A 
ATOM     22  C   UNL     1      10.710  12.127  20.553  0.00  0.00    +0.000 A 
ATOM     23  C   UNL     1      11.881  11.931  19.841  0.00  0.00    +0.000 A 
ATOM     24  C   UNL     1      11.808  11.680  18.480  0.00  0.00    +0.000 A 
ATOM     25  C   UNL     1      10.562  11.508  17.867  0.00  0.00    +0.000 A 
ATOM     26  C   UNL     1       9.378  11.771  18.571  0.00  0.00    +0.000 A 
ENDBRANCH  14  21
TORSDOF 1
ENDMDL
MODEL 5
REMARK VINA RESULT:      -6.9      1.375      1.854
REMARK  Name = 
REMARK  1 active torsions:
REMARK  status: ('A' for Active; 'I' for Inactive)
REMARK    1  A    between atoms: C_14  and  C_15
REMARK                            x       y       z     vdW  Elec       q    Type
REMARK                         _______ _______ _______ _____ _____    ______ ____
ROOT
ATOM      1  O   UNL     1       3.357   8.120  16.505  0.00  0.00    +0.000 OA
ATOM      2  C   UNL     1       3.271   7.348  17.444  0.00  0.00    +0.000 C 
ATOM      3  C   UNL     1       2.542   7.670  18.683  0.00  0.00    +0.000 A 
ATOM      4  O   UNL     1       2.145   8.930  18.956  0.00  0.00    +0.000 OA
ATOM      5  C   UNL     1       1.357   9.081  20.060  0.00  0.00    +0.000 A 
ATOM      6  C   UNL     1       1.039  10.393  20.385  0.00  0.00    +0.000 A 
ATOM      7  C   UNL     1       0.206  10.646  21.465  0.00  0.00    +0.000 A 
ATOM      8  C   UNL     1      -0.342   9.578  22.179  0.00  0.00    +0.000 A 
ATOM      9  C   UNL     1      -0.006   8.252  21.857  0.00  0.00    +0.000 A 
ATOM     10  C   UNL     1       0.888   7.997  20.813  0.00  0.00    +0.000 A 
ATOM     11  C   UNL     1       1.383   6.617  20.482  0.00  0.00    +0.000 A 
ATOM     12  O   UNL     1       1.023   5.643  21.116  0.00  0.00    +0.000 OA
ATOM     13  C   UNL     1       2.319   6.531  19.354  0.00  0.00    +0.000 A 
ATOM     14  C   UNL     1       2.822   5.405  18.527  0.00  0.00    +0.000 C 
ATOM     15  N   UNL     1       3.735   6.049  17.620  0.00  0.00    +0.000 N 
ATOM     16  C   UNL     1       4.950   5.769  17.035  0.00  0.00    +0.000 A 
ATOM     17  N   UNL     1       5.562   6.578  16.206  0.00  0.00    +0.000 NA
ATOM     18  C   UNL     1       6.759   6.050  15.787  0.00  0.00    +0.000 A 
ATOM     19  C   UNL     1       7.079   4.843  16.354  0.00  0.00    +0.000 A 
ATOM     20  S   UNL     1       5.830   4.364  17.442  0.00  0.00    +0.000 S 
ENDROOT
BRANCH  14  21
ATOM     21  C   UNL     1       2.833   3.929  18.821  0.00  0.00    +0.000 A 
ATOM     22  C   UNL     1       3.525   3.588  20.007  0.00  0.00    +0.000 A 
ATOM     23  C   UNL     1       4.200   2.383  20.107  0.00  0.00    +0.000 A 
ATOM     24  C   UNL     1       4.060   1.447  19.094  0.00  0.00    +0.000 A 
ATOM     25  C   UNL     1       3.154   1.675  18.053  0.00  0.00    +0.000 A 
ATOM     26  C   UNL     1       2.521   2.918  17.916  0.00  0.00    +0.000 A 
ENDBRANCH  14  21
TORSDOF 1
ENDMDL
MODEL 6
REMARK VINA RESULT:      -6.9      8.145     10.949
REMARK  Name = 
REMARK  1 active torsions:
REMARK  status: ('A' for Active; 'I' for Inactive)
REMARK    1  A    between atoms: C_14  and  C_15
REMARK                            x       y       z     vdW  Elec       q    Type
REMARK                         _______ _______ _______ _____ _____    ______ ____
ROOT
ATOM      1  O   UNL     1      -1.445  12.122  22.254  0.00  0.00    +0.000 OA
ATOM      2  C   UNL     1      -2.525  12.546  21.881  0.00  0.00    +0.000 C 
ATOM      3  C   UNL     1      -3.037  12.345  20.515  0.00  0.00    +0.000 A 
ATOM      4  O   UNL     1      -2.236  11.907  19.522  0.00  0.00    +0.000 OA
ATOM      5  C   UNL     1      -2.853  11.625  18.339  0.00  0.00    +0.000 A 
ATOM      6  C   UNL     1      -2.003  11.271  17.298  0.00  0.00    +0.000 A 
ATOM      7  C   UNL     1      -2.540  10.923  16.067  0.00  0.00    +0.000 A 
ATOM      8  C   UNL     1      -3.926  10.883  15.905  0.00  0.00    +0.000 A 
ATOM      9  C   UNL     1      -4.783  11.257  16.954  0.00  0.00    +0.000 A 
ATOM     10  C   UNL     1      -4.242  11.675  18.174  0.00  0.00    +0.000 A 
ATOM     11  C   UNL     1      -5.087  12.196  19.303  0.00  0.00    +0.000 A 
ATOM     12  O   UNL     1      -6.297  12.280  19.208  0.00  0.00    +0.000 OA
ATOM     13  C   UNL     1      -4.355  12.592  20.514  0.00  0.00    +0.000 A 
ATOM     14  C   UNL     1      -4.769  12.880  21.910  0.00  0.00    +0.000 C 
ATOM     15  N   UNL     1      -3.531  13.233  22.551  0.00  0.00    +0.000 N 
ATOM     16  C   UNL     1      -3.101  14.131  23.504  0.00  0.00    +0.000 A 
ATOM     17  N   UNL     1      -1.860  14.221  23.912  0.00  0.00    +0.000 NA
ATOM     18  C   UNL     1      -1.716  15.208  24.857  0.00  0.00    +0.000 A 
ATOM     19  C   UNL     1      -2.864  15.911  25.125  0.00  0.00    +0.000 A 
ATOM     20  S   UNL     1      -4.155  15.303  24.159  0.00  0.00    +0.000 S 
ENDROOT
BRANCH  14  21
ATOM     21  C   UNL     1      -6.127  13.235  22.455  0.00  0.00    +0.000 A 
ATOM     22  C   UNL     1      -6.710  14.368  21.840  0.00  0.00    +0.000 A 
ATOM     23  C   UNL     1      -7.537  15.212  22.561  0.00  0.00    +0.000 A 
ATOM     24  C   UNL     1      -7.914  14.850  23.845  0.00  0.00    +0.000 A 
ATOM     25  C   UNL     1      -7.560  13.594  24.349  0.00  0.00    +0.000 A 
ATOM     26  C   UNL     1      -6.670  12.768  23.648  0.00  0.00    +0.000 A 
ENDBRANCH  14  21
TORSDOF 1
ENDMDL
MODEL 7
REMARK VINA RESULT:      -6.6      9.105     10.694
REMARK  Name = 
REMARK  1 active torsions:
REMARK  status: ('A' for Active; 'I' for Inactive)
REMARK    1  A    between atoms: C_14  and  C_15
REMARK                            x       y       z     vdW  Elec       q    Type
REMARK                         _______ _______ _______ _____ _____    ______ ____
ROOT
ATOM      1  O   UNL     1       6.206  16.094  20.010  0.00  0.00    +0.000 OA
ATOM      2  C   UNL     1       7.229  15.483  20.265  0.00  0.00    +0.000 C 
ATOM      3  C   UNL     1       7.360  14.587  21.427  0.00  0.00    +0.000 A 
ATOM      4  O   UNL     1       6.447  14.588  22.419  0.00  0.00    +0.000 OA
ATOM      5  C   UNL     1       6.597  13.619  23.368  0.00  0.00    +0.000 A 
ATOM      6  C   UNL     1       5.710  13.693  24.436  0.00  0.00    +0.000 A 
ATOM      7  C   UNL     1       5.756  12.726  25.428  0.00  0.00    +0.000 A 
ATOM      8  C   UNL     1       6.656  11.664  25.318  0.00  0.00    +0.000 A 
ATOM      9  C   UNL     1       7.562  11.600  24.246  0.00  0.00    +0.000 A 
ATOM     10  C   UNL     1       7.565  12.611  23.280  0.00  0.00    +0.000 A 
ATOM     11  C   UNL     1       8.575  12.674  22.169  0.00  0.00    +0.000 A 
ATOM     12  O   UNL     1       9.450  11.836  22.055  0.00  0.00    +0.000 OA
ATOM     13  C   UNL     1       8.433  13.804  21.242  0.00  0.00    +0.000 A 
ATOM     14  C   UNL     1       8.994  14.104  19.901  0.00  0.00    +0.000 C 
ATOM     15  N   UNL     1       8.448  15.401  19.601  0.00  0.00    +0.000 N 
ATOM     16  C   UNL     1       8.865  16.559  18.983  0.00  0.00    +0.000 A 
ATOM     17  N   UNL     1       8.113  17.622  18.844  0.00  0.00    +0.000 NA
ATOM     18  C   UNL     1       8.788  18.631  18.201  0.00  0.00    +0.000 A 
ATOM     19  C   UNL     1      10.094  18.339  17.899  0.00  0.00    +0.000 A 
ATOM     20  S   UNL     1      10.472  16.746  18.438  0.00  0.00    +0.000 S 
ENDROOT
BRANCH  14  21
ATOM     21  C   UNL     1      10.200  13.522  19.214  0.00  0.00    +0.000 A 
ATOM     22  C   UNL     1       9.886  12.729  18.085  0.00  0.00    +0.000 A 
ATOM     23  C   UNL     1      10.675  11.642  17.748  0.00  0.00    +0.000 A 
ATOM     24  C   UNL     1      11.862  11.432  18.432  0.00  0.00    +0.000 A 
ATOM     25  C   UNL     1      12.307  12.377  19.362  0.00  0.00    +0.000 A 
ATOM     26  C   UNL     1      11.481  13.441  19.752  0.00  0.00    +0.000 A 
ENDBRANCH  14  21
TORSDOF 1
ENDMDL
MODEL 8
REMARK VINA RESULT:      -6.5      7.952     10.523
REMARK  Name = 
REMARK  1 active torsions:
REMARK  status: ('A' for Active; 'I' for Inactive)
REMARK    1  A    between atoms: C_14  and  C_15
REMARK                            x       y       z     vdW  Elec       q    Type
REMARK                         _______ _______ _______ _____ _____    ______ ____
ROOT
ATOM      1  O   UNL     1      -0.667  12.336  22.005  0.00  0.00    +0.000 OA
ATOM      2  C   UNL     1      -1.775  12.774  21.749  0.00  0.00    +0.000 C 
ATOM      3  C   UNL     1      -2.476  12.492  20.484  0.00  0.00    +0.000 A 
ATOM      4  O   UNL     1      -1.832  11.948  19.431  0.00  0.00    +0.000 OA
ATOM      5  C   UNL     1      -2.613  11.603  18.367  0.00  0.00    +0.000 A 
ATOM      6  C   UNL     1      -1.925  11.137  17.253  0.00  0.00    +0.000 A 
ATOM      7  C   UNL     1      -2.636  10.720  16.138  0.00  0.00    +0.000 A 
ATOM      8  C   UNL     1      -4.032  10.724  16.167  0.00  0.00    +0.000 A 
ATOM      9  C   UNL     1      -4.725  11.210  17.289  0.00  0.00    +0.000 A 
ATOM     10  C   UNL     1      -4.010  11.696  18.388  0.00  0.00    +0.000 A 
ATOM     11  C   UNL     1      -4.676  12.335  19.575  0.00  0.00    +0.000 A 
ATOM     12  O   UNL     1      -5.884  12.460  19.637  0.00  0.00    +0.000 OA
ATOM     13  C   UNL     1      -3.774  12.791  20.640  0.00  0.00    +0.000 A 
ATOM     14  C   UNL     1      -3.983  13.200  22.052  0.00  0.00    +0.000 C 
ATOM     15  N   UNL     1      -2.659  13.550  22.490  0.00  0.00    +0.000 N 
ATOM     16  C   UNL     1      -2.076  14.499  23.301  0.00  0.00    +0.000 A 
ATOM     17  N   UNL     1      -0.788  14.569  23.531  0.00  0.00    +0.000 NA
ATOM     18  C   UNL     1      -0.487  15.618  24.366  0.00  0.00    +0.000 A 
ATOM     19  C   UNL     1      -1.566  16.385  24.728  0.00  0.00    +0.000 A 
ATOM     20  S   UNL     1      -2.995  15.759  23.996  0.00  0.00    +0.000 S 
ENDROOT
BRANCH  14  21
ATOM     21  C   UNL     1      -5.242  13.649  22.744  0.00  0.00    +0.000 A 
ATOM     22  C   UNL     1      -5.627  12.821  23.824  0.00  0.00    +0.000 A 
ATOM     23  C   UNL     1      -6.965  12.640  24.130  0.00  0.00    +0.000 A 
ATOM     24  C   UNL     1      -7.916  13.402  23.470  0.00  0.00    +0.000 A 
ATOM     25  C   UNL     1      -7.514  14.419  22.598  0.00  0.00    +0.000 A 
ATOM     26  C   UNL     1      -6.166  14.559  22.238  0.00  0.00    +0.000 A 
ENDBRANCH  14  21
TORSDOF 1
ENDMDL
MODEL 9
REMARK VINA RESULT:      -6.5      4.601      7.536
REMARK  Name = 
REMARK  1 active torsions:
REMARK  status: ('A' for Active; 'I' for Inactive)
REMARK    1  A    between atoms: C_14  and  C_15
REMARK                            x       y       z     vdW  Elec       q    Type
REMARK                         _______ _______ _______ _____ _____    ______ ____
ROOT
ATOM      1  O   UNL     1      -1.927  13.992  20.113  0.00  0.00    +0.000 OA
ATOM      2  C   UNL     1      -1.157  13.291  19.480  0.00  0.00    +0.000 C 
ATOM      3  C   UNL     1       0.147  13.770  18.991  0.00  0.00    +0.000 A 
ATOM      4  O   UNL     1       0.456  15.083  18.990  0.00  0.00    +0.000 OA
ATOM      5  C   UNL     1       1.741  15.392  18.649  0.00  0.00    +0.000 A 
ATOM      6  C   UNL     1       2.018  16.751  18.555  0.00  0.00    +0.000 A 
ATOM      7  C   UNL     1       3.307  17.165  18.258  0.00  0.00    +0.000 A 
ATOM      8  C   UNL     1       4.320  16.216  18.106  0.00  0.00    +0.000 A 
ATOM      9  C   UNL     1       4.034  14.842  18.186  0.00  0.00    +0.000 A 
ATOM     10  C   UNL     1       2.721  14.420  18.417  0.00  0.00    +0.000 A 
ATOM     11  C   UNL     1       2.317  12.972  18.403  0.00  0.00    +0.000 A 
ATOM     12  O   UNL     1       3.123  12.087  18.187  0.00  0.00    +0.000 OA
ATOM     13  C   UNL     1       0.896  12.707  18.665  0.00  0.00    +0.000 A 
ATOM     14  C   UNL     1       0.133  11.483  19.015  0.00  0.00    +0.000 C 
ATOM     15  N   UNL     1      -1.224  11.956  19.095  0.00  0.00    +0.000 N 
ATOM     16  C   UNL     1      -2.480  11.495  18.770  0.00  0.00    +0.000 A 
ATOM     17  N   UNL     1      -3.581  12.173  18.978  0.00  0.00    +0.000 NA
ATOM     18  C   UNL     1      -4.685  11.477  18.547  0.00  0.00    +0.000 A 
ATOM     19  C   UNL     1      -4.402  10.273  17.954  0.00  0.00    +0.000 A 
ATOM     20  S   UNL     1      -2.698  10.016  17.946  0.00  0.00    +0.000 S 
ENDROOT
BRANCH  14  21
ATOM     21  C   UNL     1       0.507  10.035  18.839  0.00  0.00    +0.000 A 
ATOM     22  C   UNL     1       0.587   9.315  20.055  0.00  0.00    +0.000 A 
ATOM     23  C   UNL     1       1.493   8.278  20.199  0.00  0.00    +0.000 A 
ATOM     24  C   UNL     1       2.208   7.849  19.092  0.00  0.00    +0.000 A 
ATOM     25  C   UNL     1       1.924   8.379  17.829  0.00  0.00    +0.000 A 
ATOM     26  C   UNL     1       1.058   9.473  17.692  0.00  0.00    +0.000 A 
ENDBRANCH  14  21
TORSDOF 1
ENDMDL
