MODEL 1
REMARK VINA RESULT:      -7.1      0.000      0.000
REMARK  Name = 
REMARK  5 active torsions:
REMARK  status: ('A' for Active; 'I' for Inactive)
REMARK    1  A    between atoms: C_1  and  C_2
REMARK    2  A    between atoms: C_2  and  C_3
REMARK    3  A    between atoms: C_2  and  C_11
REMARK    4  A    between atoms: C_3  and  C_4
REMARK    5  A    between atoms: C_4  and  C_5
REMARK                            x       y       z     vdW  Elec       q    Type
REMARK                         _______ _______ _______ _____ _____    ______ ____
ROOT
ATOM      1  C   UNL     1       2.010   5.230  20.272  0.00  0.00    +0.000 C 
ENDROOT
BRANCH   1   3
ATOM      2  C   UNL     1       2.351   7.396  18.952  0.00  0.00    +0.000 C 
ATOM      3  C   UNL     1       2.391   5.862  18.915  0.00  0.00    +0.000 C 
BRANCH   3   4
ATOM      4  C   UNL     1       3.768   5.386  18.466  0.00  0.00    +0.000 A 
ATOM      5  C   UNL     1       3.943   4.798  17.203  0.00  0.00    +0.000 A 
ATOM      6  C   UNL     1       5.216   4.408  16.772  0.00  0.00    +0.000 A 
ATOM      7  C   UNL     1       6.313   4.603  17.601  0.00  0.00    +0.000 A 
ATOM      8  F   UNL     1       7.533   4.251  17.177  0.00  0.00    +0.000 F 
ATOM      9  C   UNL     1       6.163   5.161  18.863  0.00  0.00    +0.000 A 
ATOM     10  C   UNL     1       4.893   5.548  19.294  0.00  0.00    +0.000 A 
ENDBRANCH   3   4
ENDBRANCH   1   3
BRANCH   1  11
ATOM     11  C   UNL     1       0.972   4.105  20.164  0.00  0.00    +0.000 C 
BRANCH  11  12
ATOM     12  C   UNL     1       1.627   2.727  20.140  0.00  0.00    +0.000 C 
ATOM     13  C   UNL     1       1.817   2.198  18.728  0.00  0.00    +0.000 C 
ATOM     14  O   UNL     1       3.121   1.639  18.734  0.00  0.00    +0.000 OA
ATOM     15  C   UNL     1       3.694   2.124  19.856  0.00  0.00    +0.000 C 
ATOM     16  N   UNL     1       4.999   1.825  19.962  0.00  0.00    +0.000 N 
ATOM     17  N   UNL     1       2.980   2.776  20.711  0.00  0.00    +0.000 NA
ATOM     18  H   UNL     1       5.286   1.037  19.398  0.00  0.00    +0.000 HD
ATOM     19  H   UNL     1       5.324   1.802  20.921  0.00  0.00    +0.000 HD
ENDBRANCH  11  12
ENDBRANCH   1  11
TORSDOF 4
ENDMDL
MODEL 2
REMARK VINA RESULT:      -7.0      3.453      5.497
REMARK  Name = 
REMARK  5 active torsions:
REMARK  status: ('A' for Active; 'I' for Inactive)
REMARK    1  A    between atoms: C_1  and  C_2
REMARK    2  A    between atoms: C_2  and  C_3
REMARK    3  A    between atoms: C_2  and  C_11
REMARK    4  A    between atoms: C_3  and  C_4
REMARK    5  A    between atoms: C_4  and  C_5
REMARK                            x       y       z     vdW  Elec       q    Type
REMARK                         _______ _______ _______ _____ _____    ______ ____
ROOT
ATOM      1  C   UNL     1       4.429   6.020  17.991  0.00  0.00    +0.000 C 
ENDROOT
BRANCH   1   3
ATOM      2  C   UNL     1       4.035   3.862  16.673  0.00  0.00    +0.000 C 
ATOM      3  C   UNL     1       3.412   4.934  17.577  0.00  0.00    +0.000 C 
BRANCH   3   4
ATOM      4  C   UNL     1       2.789   4.281  18.806  0.00  0.00    +0.000 A 
ATOM      5  C   UNL     1       2.674   4.993  20.011  0.00  0.00    +0.000 A 
ATOM      6  C   UNL     1       2.056   4.410  21.124  0.00  0.00    +0.000 A 
ATOM      7  C   UNL     1       1.557   3.118  21.035  0.00  0.00    +0.000 A 
ATOM      8  F   UNL     1       0.946   2.570  22.092  0.00  0.00    +0.000 F 
ATOM      9  C   UNL     1       1.680   2.385  19.862  0.00  0.00    +0.000 A 
ATOM     10  C   UNL     1       2.297   2.965  18.753  0.00  0.00    +0.000 A 
ENDBRANCH   3   4
ENDBRANCH   1   3
BRANCH   1  11
ATOM     11  C   UNL     1       5.350   6.474  16.851  0.00  0.00    +0.000 C 
BRANCH  11  12
ATOM     12  C   UNL     1       6.822   6.232  17.178  0.00  0.00    +0.000 C 
ATOM     13  C   UNL     1       7.540   7.502  17.601  0.00  0.00    +0.000 C 
ATOM     14  O   UNL     1       8.333   7.106  18.708  0.00  0.00    +0.000 OA
ATOM     15  C   UNL     1       7.837   5.903  19.069  0.00  0.00    +0.000 C 
ATOM     16  N   UNL     1       8.365   5.427  20.208  0.00  0.00    +0.000 N 
ATOM     17  N   UNL     1       6.965   5.318  18.320  0.00  0.00    +0.000 NA
ATOM     18  H   UNL     1       9.255   5.840  20.452  0.00  0.00    +0.000 HD
ATOM     19  H   UNL     1       8.336   4.416  20.267  0.00  0.00    +0.000 HD
ENDBRANCH  11  12
ENDBRANCH   1  11
TORSDOF 4
ENDMDL
MODEL 3
REMARK VINA RESULT:      -7.0      3.380      4.978
REMARK  Name = 
REMARK  5 active torsions:
REMARK  status: ('A' for Active; 'I' for Inactive)
REMARK    1  A    between atoms: C_1  and  C_2
REMARK    2  A    between atoms: C_2  and  C_3
REMARK    3  A    between atoms: C_2  and  C_11
REMARK    4  A    between atoms: C_3  and  C_4
REMARK    5  A    between atoms: C_4  and  C_5
REMARK                            x       y       z     vdW  Elec       q    Type
REMARK                         _______ _______ _______ _____ _____    ______ ____
ROOT
ATOM      1  C   UNL     1       4.551   6.531  17.524  0.00  0.00    +0.000 C 
ENDROOT
BRANCH   1   3
ATOM      2  C   UNL     1       2.498   8.045  17.727  0.00  0.00    +0.000 C 
ATOM      3  C   UNL     1       3.368   6.980  18.409  0.00  0.00    +0.000 C 
BRANCH   3   4
ATOM      4  C   UNL     1       2.510   5.785  18.810  0.00  0.00    +0.000 A 
ATOM      5  C   UNL     1       2.093   4.851  17.848  0.00  0.00    +0.000 A 
ATOM      6  C   UNL     1       1.349   3.727  18.225  0.00  0.00    +0.000 A 
ATOM      7  C   UNL     1       1.018   3.538  19.560  0.00  0.00    +0.000 A 
ATOM      8  F   UNL     1       0.326   2.452  19.923  0.00  0.00    +0.000 F 
ATOM      9  C   UNL     1       1.397   4.460  20.527  0.00  0.00    +0.000 A 
ATOM     10  C   UNL     1       2.138   5.581  20.150  0.00  0.00    +0.000 A 
ENDBRANCH   3   4
ENDBRANCH   1   3
BRANCH   1  11
ATOM     11  C   UNL     1       5.578   5.658  18.258  0.00  0.00    +0.000 C 
BRANCH  11  12
ATOM     12  C   UNL     1       6.313   4.720  17.304  0.00  0.00    +0.000 C 
ATOM     13  C   UNL     1       5.371   4.020  16.338  0.00  0.00    +0.000 C 
ATOM     14  O   UNL     1       6.039   4.082  15.088  0.00  0.00    +0.000 OA
ATOM     15  C   UNL     1       7.011   5.002  15.267  0.00  0.00    +0.000 C 
ATOM     16  N   UNL     1       7.665   5.316  14.137  0.00  0.00    +0.000 N 
ATOM     17  N   UNL     1       7.248   5.464  16.448  0.00  0.00    +0.000 NA
ATOM     18  H   UNL     1       7.584   4.620  13.409  0.00  0.00    +0.000 HD
ATOM     19  H   UNL     1       8.607   5.649  14.303  0.00  0.00    +0.000 HD
ENDBRANCH  11  12
ENDBRANCH   1  11
TORSDOF 4
ENDMDL
MODEL 4
REMARK VINA RESULT:      -6.9      3.404      5.120
REMARK  Name = 
REMARK  5 active torsions:
REMARK  status: ('A' for Active; 'I' for Inactive)
REMARK    1  A    between atoms: C_1  and  C_2
REMARK    2  A    between atoms: C_2  and  C_3
REMARK    3  A    between atoms: C_2  and  C_11
REMARK    4  A    between atoms: C_3  and  C_4
REMARK    5  A    between atoms: C_4  and  C_5
REMARK                            x       y       z     vdW  Elec       q    Type
REMARK                         _______ _______ _______ _____ _____    ______ ____
ROOT
ATOM      1  C   UNL     1       4.657   6.546  17.538  0.00  0.00    +0.000 C 
ENDROOT
BRANCH   1   3
ATOM      2  C   UNL     1       2.566   8.008  17.739  0.00  0.00    +0.000 C 
ATOM      3  C   UNL     1       3.452   6.953  18.415  0.00  0.00    +0.000 C 
BRANCH   3   4
ATOM      4  C   UNL     1       2.619   5.732  18.787  0.00  0.00    +0.000 A 
ATOM      5  C   UNL     1       2.248   5.500  20.122  0.00  0.00    +0.000 A 
ATOM      6  C   UNL     1       1.441   4.407  20.454  0.00  0.00    +0.000 A 
ATOM      7  C   UNL     1       1.006   3.544  19.457  0.00  0.00    +0.000 A 
ATOM      8  F   UNL     1       0.214   2.512  19.774  0.00  0.00    +0.000 F 
ATOM      9  C   UNL     1       1.378   3.738  18.134  0.00  0.00    +0.000 A 
ATOM     10  C   UNL     1       2.185   4.827  17.802  0.00  0.00    +0.000 A 
ENDBRANCH   3   4
ENDBRANCH   1   3
BRANCH   1  11
ATOM     11  C   UNL     1       5.681   5.662  18.262  0.00  0.00    +0.000 C 
BRANCH  11  12
ATOM     12  C   UNL     1       6.407   4.727  17.299  0.00  0.00    +0.000 C 
ATOM     13  C   UNL     1       5.454   4.002  16.363  0.00  0.00    +0.000 C 
ATOM     14  O   UNL     1       6.089   4.063  15.097  0.00  0.00    +0.000 OA
ATOM     15  C   UNL     1       7.050   5.000  15.243  0.00  0.00    +0.000 C 
ATOM     16  N   UNL     1       7.670   5.314  14.094  0.00  0.00    +0.000 N 
ATOM     17  N   UNL     1       7.308   5.477  16.413  0.00  0.00    +0.000 NA
ATOM     18  H   UNL     1       7.582   4.609  13.375  0.00  0.00    +0.000 HD
ATOM     19  H   UNL     1       8.610   5.663  14.233  0.00  0.00    +0.000 HD
ENDBRANCH  11  12
ENDBRANCH   1  11
TORSDOF 4
ENDMDL
MODEL 5
REMARK VINA RESULT:      -6.8      3.348      5.312
REMARK  Name = 
REMARK  5 active torsions:
REMARK  status: ('A' for Active; 'I' for Inactive)
REMARK    1  A    between atoms: C_1  and  C_2
REMARK    2  A    between atoms: C_2  and  C_3
REMARK    3  A    between atoms: C_2  and  C_11
REMARK    4  A    between atoms: C_3  and  C_4
REMARK    5  A    between atoms: C_4  and  C_5
REMARK                            x       y       z     vdW  Elec       q    Type
REMARK                         _______ _______ _______ _____ _____    ______ ____
ROOT
ATOM      1  C   UNL     1       4.802   4.653  17.414  0.00  0.00    +0.000 C 
ENDROOT
BRANCH   1   3
ATOM      2  C   UNL     1       3.394   6.720  17.956  0.00  0.00    +0.000 C 
ATOM      3  C   UNL     1       4.174   5.526  18.523  0.00  0.00    +0.000 C 
BRANCH   3   4
ATOM      4  C   UNL     1       3.269   4.690  19.420  0.00  0.00    +0.000 A 
ATOM      5  C   UNL     1       3.698   3.442  19.903  0.00  0.00    +0.000 A 
ATOM      6  C   UNL     1       2.887   2.699  20.768  0.00  0.00    +0.000 A 
ATOM      7  C   UNL     1       1.648   3.198  21.149  0.00  0.00    +0.000 A 
ATOM      8  F   UNL     1       0.884   2.497  21.994  0.00  0.00    +0.000 F 
ATOM      9  C   UNL     1       1.192   4.417  20.667  0.00  0.00    +0.000 A 
ATOM     10  C   UNL     1       2.000   5.158  19.803  0.00  0.00    +0.000 A 
ENDBRANCH   3   4
ENDBRANCH   1   3
BRANCH   1  11
ATOM     11  C   UNL     1       5.695   5.433  16.441  0.00  0.00    +0.000 C 
BRANCH  11  12
ATOM     12  C   UNL     1       7.110   5.614  16.987  0.00  0.00    +0.000 C 
ATOM     13  C   UNL     1       7.389   7.044  17.416  0.00  0.00    +0.000 C 
ATOM     14  O   UNL     1       8.079   6.914  18.648  0.00  0.00    +0.000 OA
ATOM     15  C   UNL     1       7.872   5.632  19.020  0.00  0.00    +0.000 C 
ATOM     16  N   UNL     1       8.326   5.353  20.252  0.00  0.00    +0.000 N 
ATOM     17  N   UNL     1       7.313   4.809  18.199  0.00  0.00    +0.000 NA
ATOM     18  H   UNL     1       9.025   6.002  20.589  0.00  0.00    +0.000 HD
ATOM     19  H   UNL     1       8.559   4.376  20.378  0.00  0.00    +0.000 HD
ENDBRANCH  11  12
ENDBRANCH   1  11
TORSDOF 4
ENDMDL
MODEL 6
REMARK VINA RESULT:      -6.8      1.869      2.690
REMARK  Name = 
REMARK  5 active torsions:
REMARK  status: ('A' for Active; 'I' for Inactive)
REMARK    1  A    between atoms: C_1  and  C_2
REMARK    2  A    between atoms: C_2  and  C_3
REMARK    3  A    between atoms: C_2  and  C_11
REMARK    4  A    between atoms: C_3  and  C_4
REMARK    5  A    between atoms: C_4  and  C_5
REMARK                            x       y       z     vdW  Elec       q    Type
REMARK                         _______ _______ _______ _____ _____    ______ ____
ROOT
ATOM      1  C   UNL     1       4.069   3.414  17.254  0.00  0.00    +0.000 C 
ENDROOT
BRANCH   1   3
ATOM      2  C   UNL     1       2.845   5.545  17.967  0.00  0.00    +0.000 C 
ATOM      3  C   UNL     1       4.001   4.954  17.149  0.00  0.00    +0.000 C 
BRANCH   3   4
ATOM      4  C   UNL     1       5.321   5.583  17.582  0.00  0.00    +0.000 A 
ATOM      5  C   UNL     1       5.822   6.716  16.920  0.00  0.00    +0.000 A 
ATOM      6  C   UNL     1       7.008   7.322  17.350  0.00  0.00    +0.000 A 
ATOM      7  C   UNL     1       7.694   6.798  18.438  0.00  0.00    +0.000 A 
ATOM      8  F   UNL     1       8.814   7.393  18.862  0.00  0.00    +0.000 F 
ATOM      9  C   UNL     1       7.231   5.665  19.094  0.00  0.00    +0.000 A 
ATOM     10  C   UNL     1       6.050   5.059  18.664  0.00  0.00    +0.000 A 
ENDBRANCH   3   4
ENDBRANCH   1   3
BRANCH   1  11
ATOM     11  C   UNL     1       2.726   2.756  17.594  0.00  0.00    +0.000 C 
BRANCH  11  12
ATOM     12  C   UNL     1       2.781   2.001  18.920  0.00  0.00    +0.000 C 
ATOM     13  C   UNL     1       4.125   2.147  19.615  0.00  0.00    +0.000 C 
ATOM     14  O   UNL     1       3.794   2.363  20.977  0.00  0.00    +0.000 OA
ATOM     15  C   UNL     1       2.478   2.667  20.964  0.00  0.00    +0.000 C 
ATOM     16  N   UNL     1       2.007   3.057  22.159  0.00  0.00    +0.000 N 
ATOM     17  N   UNL     1       1.801   2.538  19.873  0.00  0.00    +0.000 NA
ATOM     18  H   UNL     1       2.578   2.764  22.940  0.00  0.00    +0.000 HD
ATOM     19  H   UNL     1       1.015   2.886  22.271  0.00  0.00    +0.000 HD
ENDBRANCH  11  12
ENDBRANCH   1  11
TORSDOF 4
ENDMDL
MODEL 7
REMARK VINA RESULT:      -6.7      3.291      5.228
REMARK  Name = 
REMARK  5 active torsions:
REMARK  status: ('A' for Active; 'I' for Inactive)
REMARK    1  A    between atoms: C_1  and  C_2
REMARK    2  A    between atoms: C_2  and  C_3
REMARK    3  A    between atoms: C_2  and  C_11
REMARK    4  A    between atoms: C_3  and  C_4
REMARK    5  A    between atoms: C_4  and  C_5
REMARK                            x       y       z     vdW  Elec       q    Type
REMARK                         _______ _______ _______ _____ _____    ______ ____
ROOT
ATOM      1  C   UNL     1       4.798   3.864  17.505  0.00  0.00    +0.000 C 
ENDROOT
BRANCH   1   3
ATOM      2  C   UNL     1       2.513   2.713  17.495  0.00  0.00    +0.000 C 
ATOM      3  C   UNL     1       3.270   4.042  17.370  0.00  0.00    +0.000 C 
BRANCH   3   4
ATOM      4  C   UNL     1       2.749   5.037  18.400  0.00  0.00    +0.000 A 
ATOM      5  C   UNL     1       2.209   4.588  19.617  0.00  0.00    +0.000 A 
ATOM      6  C   UNL     1       1.778   5.505  20.583  0.00  0.00    +0.000 A 
ATOM      7  C   UNL     1       1.883   6.867  20.335  0.00  0.00    +0.000 A 
ATOM      8  F   UNL     1       1.493   7.741  21.270  0.00  0.00    +0.000 F 
ATOM      9  C   UNL     1       2.392   7.335  19.132  0.00  0.00    +0.000 A 
ATOM     10  C   UNL     1       2.820   6.422  18.167  0.00  0.00    +0.000 A 
ENDBRANCH   3   4
ENDBRANCH   1   3
BRANCH   1  11
ATOM     11  C   UNL     1       5.604   4.556  16.397  0.00  0.00    +0.000 C 
BRANCH  11  12
ATOM     12  C   UNL     1       6.976   5.008  16.889  0.00  0.00    +0.000 C 
ATOM     13  C   UNL     1       7.074   6.517  17.035  0.00  0.00    +0.000 C 
ATOM     14  O   UNL     1       7.753   6.709  18.265  0.00  0.00    +0.000 OA
ATOM     15  C   UNL     1       7.696   5.506  18.876  0.00  0.00    +0.000 C 
ATOM     16  N   UNL     1       8.160   5.525  20.136  0.00  0.00    +0.000 N 
ATOM     17  N   UNL     1       7.255   4.480  18.231  0.00  0.00    +0.000 NA
ATOM     18  H   UNL     1       8.769   6.306  20.338  0.00  0.00    +0.000 HD
ATOM     19  H   UNL     1       8.507   4.625  20.445  0.00  0.00    +0.000 HD
ENDBRANCH  11  12
ENDBRANCH   1  11
TORSDOF 4
ENDMDL
MODEL 8
REMARK VINA RESULT:      -6.7      2.116      3.464
REMARK  Name = 
REMARK  5 active torsions:
REMARK  status: ('A' for Active; 'I' for Inactive)
REMARK    1  A    between atoms: C_1  and  C_2
REMARK    2  A    between atoms: C_2  and  C_3
REMARK    3  A    between atoms: C_2  and  C_11
REMARK    4  A    between atoms: C_3  and  C_4
REMARK    5  A    between atoms: C_4  and  C_5
REMARK                            x       y       z     vdW  Elec       q    Type
REMARK                         _______ _______ _______ _____ _____    ______ ____
ROOT
ATOM      1  C   UNL     1       3.999   4.002  16.820  0.00  0.00    +0.000 C 
ENDROOT
BRANCH   1   3
ATOM      2  C   UNL     1       5.568   4.172  14.806  0.00  0.00    +0.000 C 
ATOM      3  C   UNL     1       5.462   3.988  16.326  0.00  0.00    +0.000 C 
BRANCH   3   4
ATOM      4  C   UNL     1       6.283   5.055  17.039  0.00  0.00    +0.000 A 
ATOM      5  C   UNL     1       7.173   4.703  18.067  0.00  0.00    +0.000 A 
ATOM      6  C   UNL     1       7.964   5.678  18.686  0.00  0.00    +0.000 A 
ATOM      7  C   UNL     1       7.865   7.003  18.282  0.00  0.00    +0.000 A 
ATOM      8  F   UNL     1       8.638   7.930  18.859  0.00  0.00    +0.000 F 
ATOM      9  C   UNL     1       6.976   7.380  17.285  0.00  0.00    +0.000 A 
ATOM     10  C   UNL     1       6.186   6.408  16.669  0.00  0.00    +0.000 A 
ENDBRANCH   3   4
ENDBRANCH   1   3
BRANCH   1  11
ATOM     11  C   UNL     1       3.732   3.055  17.997  0.00  0.00    +0.000 C 
BRANCH  11  12
ATOM     12  C   UNL     1       3.089   3.780  19.177  0.00  0.00    +0.000 C 
ATOM     13  C   UNL     1       1.596   3.987  18.988  0.00  0.00    +0.000 C 
ATOM     14  O   UNL     1       1.035   3.673  20.253  0.00  0.00    +0.000 OA
ATOM     15  C   UNL     1       2.023   3.031  20.913  0.00  0.00    +0.000 C 
ATOM     16  N   UNL     1       1.631   2.514  22.089  0.00  0.00    +0.000 N 
ATOM     17  N   UNL     1       3.210   2.990  20.409  0.00  0.00    +0.000 NA
ATOM     18  H   UNL     1       0.794   2.938  22.465  0.00  0.00    +0.000 HD
ATOM     19  H   UNL     1       2.391   2.415  22.752  0.00  0.00    +0.000 HD
ENDBRANCH  11  12
ENDBRANCH   1  11
TORSDOF 4
ENDMDL
MODEL 9
REMARK VINA RESULT:      -6.7      2.598      4.303
REMARK  Name = 
REMARK  5 active torsions:
REMARK  status: ('A' for Active; 'I' for Inactive)
REMARK    1  A    between atoms: C_1  and  C_2
REMARK    2  A    between atoms: C_2  and  C_3
REMARK    3  A    between atoms: C_2  and  C_11
REMARK    4  A    between atoms: C_3  and  C_4
REMARK    5  A    between atoms: C_4  and  C_5
REMARK                            x       y       z     vdW  Elec       q    Type
REMARK                         _______ _______ _______ _____ _____    ______ ____
ROOT
ATOM      1  C   UNL     1       4.108   6.854  16.972  0.00  0.00    +0.000 C 
ENDROOT
BRANCH   1   3
ATOM      2  C   UNL     1       2.166   8.355  17.697  0.00  0.00    +0.000 C 
ATOM      3  C   UNL     1       3.181   7.288  18.129  0.00  0.00    +0.000 C 
BRANCH   3   4
ATOM      4  C   UNL     1       2.454   6.085  18.717  0.00  0.00    +0.000 A 
ATOM      5  C   UNL     1       1.901   5.103  17.877  0.00  0.00    +0.000 A 
ATOM      6  C   UNL     1       1.278   3.974  18.420  0.00  0.00    +0.000 A 
ATOM      7  C   UNL     1       1.203   3.825  19.798  0.00  0.00    +0.000 A 
ATOM      8  F   UNL     1       0.628   2.732  20.316  0.00  0.00    +0.000 F 
ATOM      9  C   UNL     1       1.721   4.791  20.650  0.00  0.00    +0.000 A 
ATOM     10  C   UNL     1       2.341   5.919  20.109  0.00  0.00    +0.000 A 
ENDBRANCH   3   4
ENDBRANCH   1   3
BRANCH   1  11
ATOM     11  C   UNL     1       5.601   6.900  17.322  0.00  0.00    +0.000 C 
BRANCH  11  12
ATOM     12  C   UNL     1       6.135   5.526  17.718  0.00  0.00    +0.000 C 
ATOM     13  C   UNL     1       6.099   5.299  19.220  0.00  0.00    +0.000 C 
ATOM     14  O   UNL     1       5.620   3.972  19.363  0.00  0.00    +0.000 OA
ATOM     15  C   UNL     1       5.115   3.659  18.150  0.00  0.00    +0.000 C 
ATOM     16  N   UNL     1       4.469   2.482  18.127  0.00  0.00    +0.000 N 
ATOM     17  N   UNL     1       5.304   4.455  17.153  0.00  0.00    +0.000 NA
ATOM     18  H   UNL     1       4.723   1.860  18.883  0.00  0.00    +0.000 HD
ATOM     19  H   UNL     1       4.459   2.052  17.210  0.00  0.00    +0.000 HD
ENDBRANCH  11  12
ENDBRANCH   1  11
TORSDOF 4
ENDMDL
