MODEL 1
REMARK VINA RESULT:      -7.0      0.000      0.000
REMARK  Name = 
REMARK  9 active torsions:
REMARK  status: ('A' for Active; 'I' for Inactive)
REMARK    1  A    between atoms: C_1  and  C_2
REMARK    2  A    between atoms: C_2  and  C_3
REMARK    3  A    between atoms: C_3  and  C_4
REMARK    4  A    between atoms: C_3  and  C_6
REMARK    5  A    between atoms: C_4  and  C_5
REMARK    6  A    between atoms: N_8  and  C_9
REMARK    7  A    between atoms: C_9  and  C_10
REMARK    8  A    between atoms: C_9  and  C_11
REMARK    9  A    between atoms: N_15  and  C_16
REMARK                            x       y       z     vdW  Elec       q    Type
REMARK                         _______ _______ _______ _____ _____    ______ ____
ROOT
ATOM      1  C   UNL     1       3.851   5.487  17.864  0.00  0.00    +0.000 C 
ATOM      2  C   UNL     1       3.505   6.970  17.982  0.00  0.00    +0.000 C 
ENDROOT
BRANCH   1   3
ATOM      3  C   UNL     1       5.268   5.236  18.234  0.00  0.00    +0.000 A 
ATOM      4  N   UNL     1       5.826   5.489  19.407  0.00  0.00    +0.000 NA
ATOM      5  N   UNL     1       7.137   5.106  19.301  0.00  0.00    +0.000 NA
ATOM      6  N   UNL     1       7.395   4.612  18.101  0.00  0.00    +0.000 NA
ATOM      7  N   UNL     1       6.235   4.685  17.424  0.00  0.00    +0.000 N 
BRANCH   7   8
ATOM      8  C   UNL     1       6.094   4.211  16.061  0.00  0.00    +0.000 C 
ATOM      9  C   UNL     1       5.602   5.123  14.946  0.00  0.00    +0.000 C 
ATOM     10  C   UNL     1       7.030   4.706  14.968  0.00  0.00    +0.000 C 
ENDBRANCH   7   8
ENDBRANCH   1   3
BRANCH   1  13
ATOM     11  C   UNL     1       1.899   4.038  18.245  0.00  0.00    +0.000 C 
ATOM     12  O   UNL     1       1.575   4.141  17.061  0.00  0.00    +0.000 OA
ATOM     13  N   UNL     1       3.008   4.684  18.735  0.00  0.00    +0.000 N 
ATOM     14  H   UNL     1       3.173   4.730  19.735  0.00  0.00    +0.000 HD
BRANCH  11  15
ATOM     15  C   UNL     1       1.106   3.195  19.251  0.00  0.00    +0.000 C 
BRANCH  15  17
ATOM     16  C   UNL     1       2.997   1.561  18.544  0.00  0.00    +0.000 C 
ATOM     17  C   UNL     1       1.654   1.748  19.232  0.00  0.00    +0.000 C 
ENDBRANCH  15  17
BRANCH  15  18
ATOM     18  C   UNL     1       1.087   3.838  20.652  0.00  0.00    +0.000 C 
ATOM     19  C   UNL     1       1.822   3.039  21.720  0.00  0.00    +0.000 C 
ENDBRANCH  15  18
ENDBRANCH  11  15
ENDBRANCH   1  13
TORSDOF 6
ENDMDL
MODEL 2
REMARK VINA RESULT:      -6.9      2.198      5.732
REMARK  Name = 
REMARK  9 active torsions:
REMARK  status: ('A' for Active; 'I' for Inactive)
REMARK    1  A    between atoms: C_1  and  C_2
REMARK    2  A    between atoms: C_2  and  C_3
REMARK    3  A    between atoms: C_3  and  C_4
REMARK    4  A    between atoms: C_3  and  C_6
REMARK    5  A    between atoms: C_4  and  C_5
REMARK    6  A    between atoms: N_8  and  C_9
REMARK    7  A    between atoms: C_9  and  C_10
REMARK    8  A    between atoms: C_9  and  C_11
REMARK    9  A    between atoms: N_15  and  C_16
REMARK                            x       y       z     vdW  Elec       q    Type
REMARK                         _______ _______ _______ _____ _____    ______ ____
ROOT
ATOM      1  C   UNL     1       3.618   5.540  19.183  0.00  0.00    +0.000 C 
ATOM      2  C   UNL     1       2.645   6.717  19.142  0.00  0.00    +0.000 C 
ENDROOT
BRANCH   1   3
ATOM      3  C   UNL     1       3.024   4.331  18.554  0.00  0.00    +0.000 A 
ATOM      4  N   UNL     1       2.773   4.162  17.267  0.00  0.00    +0.000 NA
ATOM      5  N   UNL     1       2.228   2.912  17.140  0.00  0.00    +0.000 NA
ATOM      6  N   UNL     1       2.151   2.304  18.312  0.00  0.00    +0.000 NA
ATOM      7  N   UNL     1       2.647   3.178  19.205  0.00  0.00    +0.000 N 
BRANCH   7   8
ATOM      8  C   UNL     1       2.761   2.872  20.618  0.00  0.00    +0.000 C 
ATOM      9  C   UNL     1       2.201   3.803  21.684  0.00  0.00    +0.000 C 
ATOM     10  C   UNL     1       1.531   2.499  21.432  0.00  0.00    +0.000 C 
ENDBRANCH   7   8
ENDBRANCH   1   3
BRANCH   1  13
ATOM     11  C   UNL     1       6.001   5.147  18.713  0.00  0.00    +0.000 C 
ATOM     12  O   UNL     1       6.029   4.240  19.547  0.00  0.00    +0.000 OA
ATOM     13  N   UNL     1       4.849   5.856  18.476  0.00  0.00    +0.000 N 
ATOM     14  H   UNL     1       4.874   6.702  17.915  0.00  0.00    +0.000 HD
BRANCH  11  15
ATOM     15  C   UNL     1       7.227   5.551  17.885  0.00  0.00    +0.000 C 
BRANCH  15  17
ATOM     16  C   UNL     1       6.641   4.355  15.655  0.00  0.00    +0.000 C 
ATOM     17  C   UNL     1       6.810   5.670  16.399  0.00  0.00    +0.000 C 
ENDBRANCH  15  17
BRANCH  15  18
ATOM     18  C   UNL     1       7.910   6.813  18.446  0.00  0.00    +0.000 C 
ATOM     19  C   UNL     1       7.795   8.040  17.551  0.00  0.00    +0.000 C 
ENDBRANCH  15  18
ENDBRANCH  11  15
ENDBRANCH   1  13
TORSDOF 6
ENDMDL
MODEL 3
REMARK VINA RESULT:      -6.6      1.092      1.833
REMARK  Name = 
REMARK  9 active torsions:
REMARK  status: ('A' for Active; 'I' for Inactive)
REMARK    1  A    between atoms: C_1  and  C_2
REMARK    2  A    between atoms: C_2  and  C_3
REMARK    3  A    between atoms: C_3  and  C_4
REMARK    4  A    between atoms: C_3  and  C_6
REMARK    5  A    between atoms: C_4  and  C_5
REMARK    6  A    between atoms: N_8  and  C_9
REMARK    7  A    between atoms: C_9  and  C_10
REMARK    8  A    between atoms: C_9  and  C_11
REMARK    9  A    between atoms: N_15  and  C_16
REMARK                            x       y       z     vdW  Elec       q    Type
REMARK                         _______ _______ _______ _____ _____    ______ ____
ROOT
ATOM      1  C   UNL     1       4.447   5.096  17.825  0.00  0.00    +0.000 C 
ATOM      2  C   UNL     1       4.113   6.567  18.064  0.00  0.00    +0.000 C 
ENDROOT
BRANCH   1   3
ATOM      3  C   UNL     1       5.912   4.859  17.910  0.00  0.00    +0.000 A 
ATOM      4  N   UNL     1       6.667   5.009  18.985  0.00  0.00    +0.000 NA
ATOM      5  N   UNL     1       7.944   4.685  18.609  0.00  0.00    +0.000 NA
ATOM      6  N   UNL     1       7.990   4.327  17.336  0.00  0.00    +0.000 NA
ATOM      7  N   UNL     1       6.727   4.428  16.887  0.00  0.00    +0.000 N 
BRANCH   7   8
ATOM      8  C   UNL     1       6.352   4.092  15.528  0.00  0.00    +0.000 C 
ATOM      9  C   UNL     1       5.671   5.103  14.615  0.00  0.00    +0.000 C 
ATOM     10  C   UNL     1       7.082   4.714  14.346  0.00  0.00    +0.000 C 
ENDBRANCH   7   8
ENDBRANCH   1   3
BRANCH   1  13
ATOM     11  C   UNL     1       3.459   2.949  18.507  0.00  0.00    +0.000 C 
ATOM     12  O   UNL     1       3.680   2.478  17.390  0.00  0.00    +0.000 OA
ATOM     13  N   UNL     1       3.794   4.246  18.808  0.00  0.00    +0.000 N 
ATOM     14  H   UNL     1       3.463   4.675  19.666  0.00  0.00    +0.000 HD
BRANCH  11  15
ATOM     15  C   UNL     1       2.805   2.140  19.633  0.00  0.00    +0.000 C 
BRANCH  15  17
ATOM     16  C   UNL     1       1.827   3.031  21.869  0.00  0.00    +0.000 C 
ATOM     17  C   UNL     1       3.048   2.868  20.978  0.00  0.00    +0.000 C 
ENDBRANCH  15  17
BRANCH  15  18
ATOM     18  C   UNL     1       1.321   1.845  19.342  0.00  0.00    +0.000 C 
ATOM     19  C   UNL     1       0.598   2.949  18.582  0.00  0.00    +0.000 C 
ENDBRANCH  15  18
ENDBRANCH  11  15
ENDBRANCH   1  13
TORSDOF 6
ENDMDL
MODEL 4
REMARK VINA RESULT:      -6.6      0.837      1.143
REMARK  Name = 
REMARK  9 active torsions:
REMARK  status: ('A' for Active; 'I' for Inactive)
REMARK    1  A    between atoms: C_1  and  C_2
REMARK    2  A    between atoms: C_2  and  C_3
REMARK    3  A    between atoms: C_3  and  C_4
REMARK    4  A    between atoms: C_3  and  C_6
REMARK    5  A    between atoms: C_4  and  C_5
REMARK    6  A    between atoms: N_8  and  C_9
REMARK    7  A    between atoms: C_9  and  C_10
REMARK    8  A    between atoms: C_9  and  C_11
REMARK    9  A    between atoms: N_15  and  C_16
REMARK                            x       y       z     vdW  Elec       q    Type
REMARK                         _______ _______ _______ _____ _____    ______ ____
ROOT
ATOM      1  C   UNL     1       4.102   5.390  17.423  0.00  0.00    +0.000 C 
ATOM      2  C   UNL     1       3.898   6.899  17.536  0.00  0.00    +0.000 C 
ENDROOT
BRANCH   1   3
ATOM      3  C   UNL     1       5.542   5.035  17.518  0.00  0.00    +0.000 A 
ATOM      4  N   UNL     1       6.192   4.688  18.616  0.00  0.00    +0.000 NA
ATOM      5  N   UNL     1       7.488   4.453  18.241  0.00  0.00    +0.000 NA
ATOM      6  N   UNL     1       7.648   4.633  16.939  0.00  0.00    +0.000 NA
ATOM      7  N   UNL     1       6.440   4.994  16.474  0.00  0.00    +0.000 N 
BRANCH   7   8
ATOM      8  C   UNL     1       6.190   5.259  15.071  0.00  0.00    +0.000 C 
ATOM      9  C   UNL     1       6.995   4.575  13.974  0.00  0.00    +0.000 C 
ATOM     10  C   UNL     1       5.573   4.191  14.179  0.00  0.00    +0.000 C 
ENDBRANCH   7   8
ENDBRANCH   1   3
BRANCH   1  13
ATOM     11  C   UNL     1       2.140   4.171  18.269  0.00  0.00    +0.000 C 
ATOM     12  O   UNL     1       1.571   4.308  17.186  0.00  0.00    +0.000 OA
ATOM     13  N   UNL     1       3.394   4.687  18.482  0.00  0.00    +0.000 N 
ATOM     14  H   UNL     1       3.785   4.715  19.418  0.00  0.00    +0.000 HD
BRANCH  11  15
ATOM     15  C   UNL     1       1.507   3.423  19.449  0.00  0.00    +0.000 C 
BRANCH  15  17
ATOM     16  C   UNL     1       3.179   1.612  18.629  0.00  0.00    +0.000 C 
ATOM     17  C   UNL     1       1.874   1.922  19.345  0.00  0.00    +0.000 C 
ENDBRANCH  15  17
BRANCH  15  18
ATOM     18  C   UNL     1       1.875   4.064  20.801  0.00  0.00    +0.000 C 
ATOM     19  C   UNL     1       1.550   5.548  20.901  0.00  0.00    +0.000 C 
ENDBRANCH  15  18
ENDBRANCH  11  15
ENDBRANCH   1  13
TORSDOF 6
ENDMDL
MODEL 5
REMARK VINA RESULT:      -6.6      2.130      5.736
REMARK  Name = 
REMARK  9 active torsions:
REMARK  status: ('A' for Active; 'I' for Inactive)
REMARK    1  A    between atoms: C_1  and  C_2
REMARK    2  A    between atoms: C_2  and  C_3
REMARK    3  A    between atoms: C_3  and  C_4
REMARK    4  A    between atoms: C_3  and  C_6
REMARK    5  A    between atoms: C_4  and  C_5
REMARK    6  A    between atoms: N_8  and  C_9
REMARK    7  A    between atoms: C_9  and  C_10
REMARK    8  A    between atoms: C_9  and  C_11
REMARK    9  A    between atoms: N_15  and  C_16
REMARK                            x       y       z     vdW  Elec       q    Type
REMARK                         _______ _______ _______ _____ _____    ______ ____
ROOT
ATOM      1  C   UNL     1       3.296   5.822  19.017  0.00  0.00    +0.000 C 
ATOM      2  C   UNL     1       2.634   7.195  18.924  0.00  0.00    +0.000 C 
ENDROOT
BRANCH   1   3
ATOM      3  C   UNL     1       2.330   4.739  18.696  0.00  0.00    +0.000 A 
ATOM      4  N   UNL     1       1.848   4.450  17.499  0.00  0.00    +0.000 NA
ATOM      5  N   UNL     1       0.997   3.390  17.670  0.00  0.00    +0.000 NA
ATOM      6  N   UNL     1       0.954   3.013  18.937  0.00  0.00    +0.000 NA
ATOM      7  N   UNL     1       1.784   3.845  19.590  0.00  0.00    +0.000 N 
BRANCH   7   8
ATOM      8  C   UNL     1       2.037   3.739  21.014  0.00  0.00    +0.000 C 
ATOM      9  C   UNL     1       1.385   2.656  21.861  0.00  0.00    +0.000 C 
ATOM     10  C   UNL     1       2.842   2.576  21.574  0.00  0.00    +0.000 C 
ENDBRANCH   7   8
ENDBRANCH   1   3
BRANCH   1  13
ATOM     11  C   UNL     1       5.508   4.945  18.391  0.00  0.00    +0.000 C 
ATOM     12  O   UNL     1       5.584   4.338  19.461  0.00  0.00    +0.000 OA
ATOM     13  N   UNL     1       4.413   5.718  18.091  0.00  0.00    +0.000 N 
ATOM     14  H   UNL     1       4.430   6.340  17.290  0.00  0.00    +0.000 HD
BRANCH  11  15
ATOM     15  C   UNL     1       6.608   4.887  17.325  0.00  0.00    +0.000 C 
BRANCH  15  17
ATOM     16  C   UNL     1       6.136   4.973  14.772  0.00  0.00    +0.000 C 
ATOM     17  C   UNL     1       6.048   4.180  16.066  0.00  0.00    +0.000 C 
ENDBRANCH  15  17
BRANCH  15  18
ATOM     18  C   UNL     1       7.212   6.276  17.045  0.00  0.00    +0.000 C 
ATOM     19  C   UNL     1       7.873   6.929  18.252  0.00  0.00    +0.000 C 
ENDBRANCH  15  18
ENDBRANCH  11  15
ENDBRANCH   1  13
TORSDOF 6
ENDMDL
MODEL 6
REMARK VINA RESULT:      -6.6      3.618      6.065
REMARK  Name = 
REMARK  9 active torsions:
REMARK  status: ('A' for Active; 'I' for Inactive)
REMARK    1  A    between atoms: C_1  and  C_2
REMARK    2  A    between atoms: C_2  and  C_3
REMARK    3  A    between atoms: C_3  and  C_4
REMARK    4  A    between atoms: C_3  and  C_6
REMARK    5  A    between atoms: C_4  and  C_5
REMARK    6  A    between atoms: N_8  and  C_9
REMARK    7  A    between atoms: C_9  and  C_10
REMARK    8  A    between atoms: C_9  and  C_11
REMARK    9  A    between atoms: N_15  and  C_16
REMARK                            x       y       z     vdW  Elec       q    Type
REMARK                         _______ _______ _______ _____ _____    ______ ____
ROOT
ATOM      1  C   UNL     1       5.841   5.008  15.571  0.00  0.00    +0.000 C 
ATOM      2  C   UNL     1       5.241   6.400  15.384  0.00  0.00    +0.000 C 
ENDROOT
BRANCH   1   3
ATOM      3  C   UNL     1       5.503   4.454  16.908  0.00  0.00    +0.000 A 
ATOM      4  N   UNL     1       4.414   3.770  17.219  0.00  0.00    +0.000 NA
ATOM      5  N   UNL     1       4.517   3.463  18.550  0.00  0.00    +0.000 NA
ATOM      6  N   UNL     1       5.645   3.928  19.061  0.00  0.00    +0.000 NA
ATOM      7  N   UNL     1       6.273   4.547  18.045  0.00  0.00    +0.000 N 
BRANCH   7   8
ATOM      8  C   UNL     1       7.573   5.171  18.195  0.00  0.00    +0.000 C 
ATOM      9  C   UNL     1       7.725   6.681  18.309  0.00  0.00    +0.000 C 
ATOM     10  C   UNL     1       7.968   5.833  19.507  0.00  0.00    +0.000 C 
ENDBRANCH   7   8
ENDBRANCH   1   3
BRANCH   1  13
ATOM     11  C   UNL     1       6.027   3.893  13.386  0.00  0.00    +0.000 C 
ATOM     12  O   UNL     1       7.063   4.513  13.143  0.00  0.00    +0.000 OA
ATOM     13  N   UNL     1       5.345   4.085  14.562  0.00  0.00    +0.000 N 
ATOM     14  H   UNL     1       4.414   3.700  14.684  0.00  0.00    +0.000 HD
BRANCH  11  15
ATOM     15  C   UNL     1       5.424   2.873  12.412  0.00  0.00    +0.000 C 
BRANCH  15  17
ATOM     16  C   UNL     1       3.945   3.615  10.409  0.00  0.00    +0.000 C 
ATOM     17  C   UNL     1       4.060   3.406  11.911  0.00  0.00    +0.000 C 
ENDBRANCH  15  17
BRANCH  15  18
ATOM     18  C   UNL     1       6.405   2.506  11.283  0.00  0.00    +0.000 C 
ATOM     19  C   UNL     1       6.555   1.010  11.042  0.00  0.00    +0.000 C 
ENDBRANCH  15  18
ENDBRANCH  11  15
ENDBRANCH   1  13
TORSDOF 6
ENDMDL
MODEL 7
REMARK VINA RESULT:      -6.5      2.283      6.003
REMARK  Name = 
REMARK  9 active torsions:
REMARK  status: ('A' for Active; 'I' for Inactive)
REMARK    1  A    between atoms: C_1  and  C_2
REMARK    2  A    between atoms: C_2  and  C_3
REMARK    3  A    between atoms: C_3  and  C_4
REMARK    4  A    between atoms: C_3  and  C_6
REMARK    5  A    between atoms: C_4  and  C_5
REMARK    6  A    between atoms: N_8  and  C_9
REMARK    7  A    between atoms: C_9  and  C_10
REMARK    8  A    between atoms: C_9  and  C_11
REMARK    9  A    between atoms: N_15  and  C_16
REMARK                            x       y       z     vdW  Elec       q    Type
REMARK                         _______ _______ _______ _____ _____    ______ ____
ROOT
ATOM      1  C   UNL     1       3.123   5.951  19.326  0.00  0.00    +0.000 C 
ATOM      2  C   UNL     1       2.239   7.054  19.906  0.00  0.00    +0.000 C 
ENDROOT
BRANCH   1   3
ATOM      3  C   UNL     1       2.303   4.839  18.780  0.00  0.00    +0.000 A 
ATOM      4  N   UNL     1       1.636   4.846  17.639  0.00  0.00    +0.000 NA
ATOM      5  N   UNL     1       1.025   3.624  17.539  0.00  0.00    +0.000 NA
ATOM      6  N   UNL     1       1.311   2.861  18.583  0.00  0.00    +0.000 NA
ATOM      7  N   UNL     1       2.112   3.607  19.365  0.00  0.00    +0.000 N 
BRANCH   7   8
ATOM      8  C   UNL     1       2.671   3.112  20.608  0.00  0.00    +0.000 C 
ATOM      9  C   UNL     1       2.259   3.690  21.955  0.00  0.00    +0.000 C 
ATOM     10  C   UNL     1       1.812   2.320  21.583  0.00  0.00    +0.000 C 
ENDBRANCH   7   8
ENDBRANCH   1   3
BRANCH   1  13
ATOM     11  C   UNL     1       5.185   5.907  17.985  0.00  0.00    +0.000 C 
ATOM     12  O   UNL     1       5.621   4.975  18.662  0.00  0.00    +0.000 OA
ATOM     13  N   UNL     1       3.959   6.464  18.252  0.00  0.00    +0.000 N 
ATOM     14  H   UNL     1       3.681   7.331  17.802  0.00  0.00    +0.000 HD
BRANCH  11  15
ATOM     15  C   UNL     1       5.962   6.511  16.808  0.00  0.00    +0.000 C 
BRANCH  15  17
ATOM     16  C   UNL     1       7.828   8.101  17.667  0.00  0.00    +0.000 C 
ATOM     17  C   UNL     1       7.440   6.698  17.229  0.00  0.00    +0.000 C 
ENDBRANCH  15  17
BRANCH  15  18
ATOM     18  C   UNL     1       5.778   5.691  15.516  0.00  0.00    +0.000 C 
ATOM     19  C   UNL     1       6.978   4.832  15.142  0.00  0.00    +0.000 C 
ENDBRANCH  15  18
ENDBRANCH  11  15
ENDBRANCH   1  13
TORSDOF 6
ENDMDL
MODEL 8
REMARK VINA RESULT:      -6.5      1.466      2.271
REMARK  Name = 
REMARK  9 active torsions:
REMARK  status: ('A' for Active; 'I' for Inactive)
REMARK    1  A    between atoms: C_1  and  C_2
REMARK    2  A    between atoms: C_2  and  C_3
REMARK    3  A    between atoms: C_3  and  C_4
REMARK    4  A    between atoms: C_3  and  C_6
REMARK    5  A    between atoms: C_4  and  C_5
REMARK    6  A    between atoms: N_8  and  C_9
REMARK    7  A    between atoms: C_9  and  C_10
REMARK    8  A    between atoms: C_9  and  C_11
REMARK    9  A    between atoms: N_15  and  C_16
REMARK                            x       y       z     vdW  Elec       q    Type
REMARK                         _______ _______ _______ _____ _____    ______ ____
ROOT
ATOM      1  C   UNL     1       4.033   6.212  17.220  0.00  0.00    +0.000 C 
ATOM      2  C   UNL     1       3.455   7.582  17.570  0.00  0.00    +0.000 C 
ENDROOT
BRANCH   1   3
ATOM      3  C   UNL     1       5.486   6.304  16.923  0.00  0.00    +0.000 A 
ATOM      4  N   UNL     1       6.326   7.209  17.398  0.00  0.00    +0.000 NA
ATOM      5  N   UNL     1       7.553   6.916  16.863  0.00  0.00    +0.000 NA
ATOM      6  N   UNL     1       7.492   5.847  16.085  0.00  0.00    +0.000 NA
ATOM      7  N   UNL     1       6.207   5.452  16.116  0.00  0.00    +0.000 N 
BRANCH   7   8
ATOM      8  C   UNL     1       5.732   4.283  15.402  0.00  0.00    +0.000 C 
ATOM      9  C   UNL     1       5.081   4.395  14.030  0.00  0.00    +0.000 C 
ATOM     10  C   UNL     1       6.441   3.802  14.145  0.00  0.00    +0.000 C 
ENDBRANCH   7   8
ENDBRANCH   1   3
BRANCH   1  13
ATOM     11  C   UNL     1       2.736   4.483  18.394  0.00  0.00    +0.000 C 
ATOM     12  O   UNL     1       1.842   4.561  17.550  0.00  0.00    +0.000 OA
ATOM     13  N   UNL     1       3.855   5.274  18.318  0.00  0.00    +0.000 N 
ATOM     14  H   UNL     1       4.503   5.323  19.097  0.00  0.00    +0.000 HD
BRANCH  11  15
ATOM     15  C   UNL     1       2.674   3.510  19.579  0.00  0.00    +0.000 C 
BRANCH  15  17
ATOM     16  C   UNL     1       1.623   5.525  20.838  0.00  0.00    +0.000 C 
ATOM     17  C   UNL     1       1.623   4.024  20.592  0.00  0.00    +0.000 C 
ENDBRANCH  15  17
BRANCH  15  18
ATOM     18  C   UNL     1       2.442   2.058  19.119  0.00  0.00    +0.000 C 
ATOM     19  C   UNL     1       3.586   1.466  18.307  0.00  0.00    +0.000 C 
ENDBRANCH  15  18
ENDBRANCH  11  15
ENDBRANCH   1  13
TORSDOF 6
ENDMDL
MODEL 9
REMARK VINA RESULT:      -6.5      1.175      1.664
REMARK  Name = 
REMARK  9 active torsions:
REMARK  status: ('A' for Active; 'I' for Inactive)
REMARK    1  A    between atoms: C_1  and  C_2
REMARK    2  A    between atoms: C_2  and  C_3
REMARK    3  A    between atoms: C_3  and  C_4
REMARK    4  A    between atoms: C_3  and  C_6
REMARK    5  A    between atoms: C_4  and  C_5
REMARK    6  A    between atoms: N_8  and  C_9
REMARK    7  A    between atoms: C_9  and  C_10
REMARK    8  A    between atoms: C_9  and  C_11
REMARK    9  A    between atoms: N_15  and  C_16
REMARK                            x       y       z     vdW  Elec       q    Type
REMARK                         _______ _______ _______ _____ _____    ______ ____
ROOT
ATOM      1  C   UNL     1       4.133   5.627  17.415  0.00  0.00    +0.000 C 
ATOM      2  C   UNL     1       4.078   7.137  17.192  0.00  0.00    +0.000 C 
ENDROOT
BRANCH   1   3
ATOM      3  C   UNL     1       5.537   5.153  17.529  0.00  0.00    +0.000 A 
ATOM      4  N   UNL     1       6.173   4.856  18.650  0.00  0.00    +0.000 NA
ATOM      5  N   UNL     1       7.436   4.468  18.287  0.00  0.00    +0.000 NA
ATOM      6  N   UNL     1       7.587   4.505  16.973  0.00  0.00    +0.000 NA
ATOM      7  N   UNL     1       6.407   4.928  16.486  0.00  0.00    +0.000 N 
BRANCH   7   8
ATOM      8  C   UNL     1       6.155   5.076  15.066  0.00  0.00    +0.000 C 
ATOM      9  C   UNL     1       7.245   4.827  14.032  0.00  0.00    +0.000 C 
ATOM     10  C   UNL     1       6.122   3.859  14.154  0.00  0.00    +0.000 C 
ENDBRANCH   7   8
ENDBRANCH   1   3
BRANCH   1  13
ATOM     11  C   UNL     1       2.162   4.730  18.581  0.00  0.00    +0.000 C 
ATOM     12  O   UNL     1       1.576   4.584  17.507  0.00  0.00    +0.000 OA
ATOM     13  N   UNL     1       3.430   5.253  18.632  0.00  0.00    +0.000 N 
ATOM     14  H   UNL     1       3.838   5.522  19.521  0.00  0.00    +0.000 HD
BRANCH  11  15
ATOM     15  C   UNL     1       1.534   4.343  19.926  0.00  0.00    +0.000 C 
BRANCH  15  17
ATOM     16  C   UNL     1       1.682   2.423  21.670  0.00  0.00    +0.000 C 
ATOM     17  C   UNL     1       1.868   2.861  20.226  0.00  0.00    +0.000 C 
ENDBRANCH  15  17
BRANCH  15  18
ATOM     18  C   UNL     1       1.941   5.315  21.051  0.00  0.00    +0.000 C 
ATOM     19  C   UNL     1       1.357   6.715  20.913  0.00  0.00    +0.000 C 
ENDBRANCH  15  18
ENDBRANCH  11  15
ENDBRANCH   1  13
TORSDOF 6
ENDMDL
