MODEL 1
REMARK VINA RESULT:      -8.1      0.000      0.000
REMARK  Name = 
REMARK  6 active torsions:
REMARK  status: ('A' for Active; 'I' for Inactive)
REMARK    1  A    between atoms: C_2  and  C_7
REMARK    2  A    between atoms: N_3  and  C_4
REMARK    3  A    between atoms: C_10  and  O_11
REMARK    4  A    between atoms: O_11  and  C_12
REMARK    5  A    between atoms: C_12  and  C_13
REMARK    6  A    between atoms: C_17  and  C_18
REMARK                            x       y       z     vdW  Elec       q    Type
REMARK                         _______ _______ _______ _____ _____    ______ ____
ROOT
ATOM      1  O   UNL     1       2.440   7.389  17.684  0.00  0.00    +0.000 OA
ENDROOT
BRANCH   1   5
ATOM      2  C   UNL     1       0.857   9.281  20.981  0.00  0.00    +0.000 A 
ATOM      3  C   UNL     1       1.458   8.026  21.117  0.00  0.00    +0.000 A 
ATOM      4  C   UNL     1       1.988   7.392  19.996  0.00  0.00    +0.000 A 
ATOM      5  C   UNL     1       1.926   8.051  18.780  0.00  0.00    +0.000 A 
ATOM      6  N   UNL     1       1.360   9.268  18.613  0.00  0.00    +0.000 NA
ATOM      7  C   UNL     1       0.841   9.859  19.720  0.00  0.00    +0.000 A 
BRANCH   2   9
ATOM      8  O   UNL     1       0.830   9.713  23.273  0.00  0.00    +0.000 OA
ATOM      9  C   UNL     1       0.331   9.961  22.181  0.00  0.00    +0.000 C 
ATOM     10  N   UNL     1      -0.735  10.827  22.001  0.00  0.00    +0.000 N 
ATOM     11  H   UNL     1      -1.236  10.844  21.121  0.00  0.00    +0.000 HD
BRANCH  10  12
ATOM     12  C   UNL     1      -1.338  11.479  23.124  0.00  0.00    +0.000 C 
ATOM     13  C   UNL     1      -1.416  12.980  23.173  0.00  0.00    +0.000 C 
ATOM     14  C   UNL     1      -2.668  12.168  23.015  0.00  0.00    +0.000 C 
ENDBRANCH  10  12
ENDBRANCH   2   9
ENDBRANCH   1   5
BRANCH   1  15
ATOM     15  C   UNL     1       3.862   7.228  17.781  0.00  0.00    +0.000 C 
BRANCH  15  16
ATOM     16  C   UNL     1       4.332   5.983  17.111  0.00  0.00    +0.000 A 
ATOM     17  C   UNL     1       5.168   5.888  16.022  0.00  0.00    +0.000 A 
ATOM     18  O   UNL     1       5.416   4.593  15.740  0.00  0.00    +0.000 OA
ATOM     19  N   UNL     1       4.743   3.792  16.633  0.00  0.00    +0.000 NA
ATOM     20  C   UNL     1       4.068   4.614  17.457  0.00  0.00    +0.000 A 
BRANCH  20  21
ATOM     21  C   UNL     1       3.220   4.051  18.515  0.00  0.00    +0.000 A 
ATOM     22  C   UNL     1       1.820   4.052  18.373  0.00  0.00    +0.000 A 
ATOM     23  C   UNL     1       0.994   3.574  19.396  0.00  0.00    +0.000 A 
ATOM     24  C   UNL     1       1.564   3.085  20.563  0.00  0.00    +0.000 A 
ATOM     25  F   UNL     1       0.777   2.641  21.551  0.00  0.00    +0.000 F 
ATOM     26  C   UNL     1       2.942   3.066  20.726  0.00  0.00    +0.000 A 
ATOM     27  C   UNL     1       3.766   3.555  19.709  0.00  0.00    +0.000 A 
ENDBRANCH  20  21
ENDBRANCH  15  16
ENDBRANCH   1  15
TORSDOF 6
ENDMDL
MODEL 2
REMARK VINA RESULT:      -7.9      3.313      4.500
REMARK  Name = 
REMARK  6 active torsions:
REMARK  status: ('A' for Active; 'I' for Inactive)
REMARK    1  A    between atoms: C_2  and  C_7
REMARK    2  A    between atoms: N_3  and  C_4
REMARK    3  A    between atoms: C_10  and  O_11
REMARK    4  A    between atoms: O_11  and  C_12
REMARK    5  A    between atoms: C_12  and  C_13
REMARK    6  A    between atoms: C_17  and  C_18
REMARK                            x       y       z     vdW  Elec       q    Type
REMARK                         _______ _______ _______ _____ _____    ______ ____
ROOT
ATOM      1  O   UNL     1       2.956   6.580  19.994  0.00  0.00    +0.000 OA
ENDROOT
BRANCH   1   5
ATOM      2  C   UNL     1       0.561   9.720  18.829  0.00  0.00    +0.000 A 
ATOM      3  C   UNL     1       1.354   9.060  17.887  0.00  0.00    +0.000 A 
ATOM      4  C   UNL     1       2.165   8.001  18.290  0.00  0.00    +0.000 A 
ATOM      5  C   UNL     1       2.128   7.618  19.620  0.00  0.00    +0.000 A 
ATOM      6  N   UNL     1       1.366   8.228  20.557  0.00  0.00    +0.000 NA
ATOM      7  C   UNL     1       0.595   9.264  20.139  0.00  0.00    +0.000 A 
BRANCH   2   9
ATOM      8  O   UNL     1      -0.133  11.947  18.823  0.00  0.00    +0.000 OA
ATOM      9  C   UNL     1      -0.323  10.818  18.386  0.00  0.00    +0.000 C 
ATOM     10  N   UNL     1      -1.349  10.491  17.515  0.00  0.00    +0.000 N 
ATOM     11  H   UNL     1      -1.583   9.521  17.343  0.00  0.00    +0.000 HD
BRANCH  10  12
ATOM     12  C   UNL     1      -2.282  11.490  17.087  0.00  0.00    +0.000 C 
ATOM     13  C   UNL     1      -3.356  11.141  16.094  0.00  0.00    +0.000 C 
ATOM     14  C   UNL     1      -3.721  11.458  17.515  0.00  0.00    +0.000 C 
ENDBRANCH  10  12
ENDBRANCH   2   9
ENDBRANCH   1   5
BRANCH   1  15
ATOM     15  C   UNL     1       2.271   5.321  19.971  0.00  0.00    +0.000 C 
BRANCH  15  16
ATOM     16  C   UNL     1       2.567   4.543  18.735  0.00  0.00    +0.000 A 
ATOM     17  C   UNL     1       1.740   3.646  18.098  0.00  0.00    +0.000 A 
ATOM     18  O   UNL     1       2.331   3.188  16.976  0.00  0.00    +0.000 OA
ATOM     19  N   UNL     1       3.573   3.765  16.843  0.00  0.00    +0.000 NA
ATOM     20  C   UNL     1       3.740   4.572  17.907  0.00  0.00    +0.000 A 
BRANCH  20  21
ATOM     21  C   UNL     1       4.996   5.316  18.067  0.00  0.00    +0.000 A 
ATOM     22  C   UNL     1       5.321   6.352  17.172  0.00  0.00    +0.000 A 
ATOM     23  C   UNL     1       6.540   7.031  17.274  0.00  0.00    +0.000 A 
ATOM     24  C   UNL     1       7.436   6.685  18.276  0.00  0.00    +0.000 A 
ATOM     25  F   UNL     1       8.609   7.322  18.367  0.00  0.00    +0.000 F 
ATOM     26  C   UNL     1       7.136   5.671  19.176  0.00  0.00    +0.000 A 
ATOM     27  C   UNL     1       5.924   4.984  19.066  0.00  0.00    +0.000 A 
ENDBRANCH  20  21
ENDBRANCH  15  16
ENDBRANCH   1  15
TORSDOF 6
ENDMDL
MODEL 3
REMARK VINA RESULT:      -7.7      3.817      8.835
REMARK  Name = 
REMARK  6 active torsions:
REMARK  status: ('A' for Active; 'I' for Inactive)
REMARK    1  A    between atoms: C_2  and  C_7
REMARK    2  A    between atoms: N_3  and  C_4
REMARK    3  A    between atoms: C_10  and  O_11
REMARK    4  A    between atoms: O_11  and  C_12
REMARK    5  A    between atoms: C_12  and  C_13
REMARK    6  A    between atoms: C_17  and  C_18
REMARK                            x       y       z     vdW  Elec       q    Type
REMARK                         _______ _______ _______ _____ _____    ______ ____
ROOT
ATOM      1  O   UNL     1       5.521   5.882  18.834  0.00  0.00    +0.000 OA
ENDROOT
BRANCH   1   5
ATOM      2  C   UNL     1       6.455   4.793  14.974  0.00  0.00    +0.000 A 
ATOM      3  C   UNL     1       5.404   5.682  15.214  0.00  0.00    +0.000 A 
ATOM      4  C   UNL     1       5.092   6.042  16.523  0.00  0.00    +0.000 A 
ATOM      5  C   UNL     1       5.866   5.523  17.547  0.00  0.00    +0.000 A 
ATOM      6  N   UNL     1       6.896   4.668  17.351  0.00  0.00    +0.000 NA
ATOM      7  C   UNL     1       7.171   4.325  16.066  0.00  0.00    +0.000 A 
BRANCH   2   9
ATOM      8  O   UNL     1       7.565   5.175  12.958  0.00  0.00    +0.000 OA
ATOM      9  C   UNL     1       6.802   4.446  13.581  0.00  0.00    +0.000 C 
ATOM     10  N   UNL     1       6.206   3.317  13.044  0.00  0.00    +0.000 N 
ATOM     11  H   UNL     1       5.437   2.866  13.526  0.00  0.00    +0.000 HD
BRANCH  10  12
ATOM     12  C   UNL     1       6.446   2.948  11.682  0.00  0.00    +0.000 C 
ATOM     13  C   UNL     1       7.412   1.842  11.358  0.00  0.00    +0.000 C 
ATOM     14  C   UNL     1       5.943   1.651  11.116  0.00  0.00    +0.000 C 
ENDBRANCH  10  12
ENDBRANCH   2   9
ENDBRANCH   1   5
BRANCH   1  15
ATOM     15  C   UNL     1       5.205   4.737  19.637  0.00  0.00    +0.000 C 
BRANCH  15  16
ATOM     16  C   UNL     1       3.905   4.120  19.247  0.00  0.00    +0.000 A 
ATOM     17  C   UNL     1       3.675   2.805  18.915  0.00  0.00    +0.000 A 
ATOM     18  O   UNL     1       2.361   2.611  18.679  0.00  0.00    +0.000 OA
ATOM     19  N   UNL     1       1.686   3.798  18.843  0.00  0.00    +0.000 NA
ATOM     20  C   UNL     1       2.605   4.724  19.168  0.00  0.00    +0.000 A 
BRANCH  20  21
ATOM     21  C   UNL     1       2.192   6.118  19.382  0.00  0.00    +0.000 A 
ATOM     22  C   UNL     1       2.319   7.059  18.343  0.00  0.00    +0.000 A 
ATOM     23  C   UNL     1       1.987   8.402  18.548  0.00  0.00    +0.000 A 
ATOM     24  C   UNL     1       1.518   8.810  19.788  0.00  0.00    +0.000 A 
ATOM     25  F   UNL     1       1.214  10.097  19.993  0.00  0.00    +0.000 F 
ATOM     26  C   UNL     1       1.378   7.901  20.828  0.00  0.00    +0.000 A 
ATOM     27  C   UNL     1       1.722   6.562  20.627  0.00  0.00    +0.000 A 
ENDBRANCH  20  21
ENDBRANCH  15  16
ENDBRANCH   1  15
TORSDOF 6
ENDMDL
MODEL 4
REMARK VINA RESULT:      -7.5      2.838      3.983
REMARK  Name = 
REMARK  6 active torsions:
REMARK  status: ('A' for Active; 'I' for Inactive)
REMARK    1  A    between atoms: C_2  and  C_7
REMARK    2  A    between atoms: N_3  and  C_4
REMARK    3  A    between atoms: C_10  and  O_11
REMARK    4  A    between atoms: O_11  and  C_12
REMARK    5  A    between atoms: C_12  and  C_13
REMARK    6  A    between atoms: C_17  and  C_18
REMARK                            x       y       z     vdW  Elec       q    Type
REMARK                         _______ _______ _______ _____ _____    ______ ____
ROOT
ATOM      1  O   UNL     1       3.064   6.495  19.111  0.00  0.00    +0.000 OA
ENDROOT
BRANCH   1   5
ATOM      2  C   UNL     1       0.636   9.714  19.943  0.00  0.00    +0.000 A 
ATOM      3  C   UNL     1       1.180   9.562  18.665  0.00  0.00    +0.000 A 
ATOM      4  C   UNL     1       2.004   8.472  18.393  0.00  0.00    +0.000 A 
ATOM      5  C   UNL     1       2.228   7.553  19.404  0.00  0.00    +0.000 A 
ATOM      6  N   UNL     1       1.711   7.664  20.649  0.00  0.00    +0.000 NA
ATOM      7  C   UNL     1       0.921   8.742  20.890  0.00  0.00    +0.000 A 
BRANCH   2   9
ATOM      8  O   UNL     1      -0.507  11.647  19.309  0.00  0.00    +0.000 OA
ATOM      9  C   UNL     1      -0.265  10.854  20.212  0.00  0.00    +0.000 C 
ATOM     10  N   UNL     1      -0.763  10.977  21.498  0.00  0.00    +0.000 N 
ATOM     11  H   UNL     1      -0.379  10.417  22.250  0.00  0.00    +0.000 HD
BRANCH  10  12
ATOM     12  C   UNL     1      -1.595  12.087  21.851  0.00  0.00    +0.000 C 
ATOM     13  C   UNL     1      -2.428  12.038  23.102  0.00  0.00    +0.000 C 
ATOM     14  C   UNL     1      -1.265  12.982  23.011  0.00  0.00    +0.000 C 
ENDBRANCH  10  12
ENDBRANCH   2   9
ENDBRANCH   1   5
BRANCH   1  15
ATOM     15  C   UNL     1       2.353   5.250  19.079  0.00  0.00    +0.000 C 
BRANCH  15  16
ATOM     16  C   UNL     1       3.180   4.118  19.584  0.00  0.00    +0.000 A 
ATOM     17  C   UNL     1       2.917   3.316  20.671  0.00  0.00    +0.000 A 
ATOM     18  O   UNL     1       3.863   2.361  20.780  0.00  0.00    +0.000 OA
ATOM     19  N   UNL     1       4.784   2.510  19.770  0.00  0.00    +0.000 NA
ATOM     20  C   UNL     1       4.398   3.578  19.049  0.00  0.00    +0.000 A 
BRANCH  20  21
ATOM     21  C   UNL     1       5.206   4.015  17.903  0.00  0.00    +0.000 A 
ATOM     22  C   UNL     1       4.738   3.812  16.592  0.00  0.00    +0.000 A 
ATOM     23  C   UNL     1       5.520   4.168  15.487  0.00  0.00    +0.000 A 
ATOM     24  C   UNL     1       6.770   4.736  15.688  0.00  0.00    +0.000 A 
ATOM     25  F   UNL     1       7.528   5.063  14.635  0.00  0.00    +0.000 F 
ATOM     26  C   UNL     1       7.253   4.952  16.972  0.00  0.00    +0.000 A 
ATOM     27  C   UNL     1       6.477   4.585  18.074  0.00  0.00    +0.000 A 
ENDBRANCH  20  21
ENDBRANCH  15  16
ENDBRANCH   1  15
TORSDOF 6
ENDMDL
MODEL 5
REMARK VINA RESULT:      -7.5      3.442      4.663
REMARK  Name = 
REMARK  6 active torsions:
REMARK  status: ('A' for Active; 'I' for Inactive)
REMARK    1  A    between atoms: C_2  and  C_7
REMARK    2  A    between atoms: N_3  and  C_4
REMARK    3  A    between atoms: C_10  and  O_11
REMARK    4  A    between atoms: O_11  and  C_12
REMARK    5  A    between atoms: C_12  and  C_13
REMARK    6  A    between atoms: C_17  and  C_18
REMARK                            x       y       z     vdW  Elec       q    Type
REMARK                         _______ _______ _______ _____ _____    ______ ____
ROOT
ATOM      1  O   UNL     1       3.071   6.651  19.602  0.00  0.00    +0.000 OA
ENDROOT
BRANCH   1   5
ATOM      2  C   UNL     1       0.554   9.840  18.933  0.00  0.00    +0.000 A 
ATOM      3  C   UNL     1       1.287   9.295  17.875  0.00  0.00    +0.000 A 
ATOM      4  C   UNL     1       2.139   8.218  18.111  0.00  0.00    +0.000 A 
ATOM      5  C   UNL     1       2.204   7.704  19.395  0.00  0.00    +0.000 A 
ATOM      6  N   UNL     1       1.503   8.200  20.439  0.00  0.00    +0.000 NA
ATOM      7  C   UNL     1       0.689   9.257  20.184  0.00  0.00    +0.000 A 
BRANCH   2   9
ATOM      8  O   UNL     1      -0.052  12.092  19.003  0.00  0.00    +0.000 OA
ATOM      9  C   UNL     1      -0.374  10.958  18.666  0.00  0.00    +0.000 C 
ATOM     10  N   UNL     1      -1.586  10.647  18.073  0.00  0.00    +0.000 N 
ATOM     11  H   UNL     1      -1.884   9.681  17.998  0.00  0.00    +0.000 HD
BRANCH  10  12
ATOM     12  C   UNL     1      -2.561  11.667  17.836  0.00  0.00    +0.000 C 
ATOM     13  C   UNL     1      -3.980  11.293  17.507  0.00  0.00    +0.000 C 
ATOM     14  C   UNL     1      -3.661  11.948  18.819  0.00  0.00    +0.000 C 
ENDBRANCH  10  12
ENDBRANCH   2   9
ENDBRANCH   1   5
BRANCH   1  15
ATOM     15  C   UNL     1       2.422   5.385  19.418  0.00  0.00    +0.000 C 
BRANCH  15  16
ATOM     16  C   UNL     1       3.352   4.241  19.641  0.00  0.00    +0.000 A 
ATOM     17  C   UNL     1       3.053   3.026  20.213  0.00  0.00    +0.000 A 
ATOM     18  O   UNL     1       4.137   2.224  20.187  0.00  0.00    +0.000 OA
ATOM     19  N   UNL     1       5.188   2.892  19.603  0.00  0.00    +0.000 NA
ATOM     20  C   UNL     1       4.737   4.118  19.284  0.00  0.00    +0.000 A 
BRANCH  20  21
ATOM     21  C   UNL     1       5.646   5.090  18.662  0.00  0.00    +0.000 A 
ATOM     22  C   UNL     1       6.858   5.427  19.292  0.00  0.00    +0.000 A 
ATOM     23  C   UNL     1       7.707   6.395  18.745  0.00  0.00    +0.000 A 
ATOM     24  C   UNL     1       7.353   7.024  17.559  0.00  0.00    +0.000 A 
ATOM     25  F   UNL     1       8.155   7.961  17.040  0.00  0.00    +0.000 F 
ATOM     26  C   UNL     1       6.166   6.706  16.914  0.00  0.00    +0.000 A 
ATOM     27  C   UNL     1       5.312   5.749  17.467  0.00  0.00    +0.000 A 
ENDBRANCH  20  21
ENDBRANCH  15  16
ENDBRANCH   1  15
TORSDOF 6
ENDMDL
MODEL 6
REMARK VINA RESULT:      -7.5      3.807      8.802
REMARK  Name = 
REMARK  6 active torsions:
REMARK  status: ('A' for Active; 'I' for Inactive)
REMARK    1  A    between atoms: C_2  and  C_7
REMARK    2  A    between atoms: N_3  and  C_4
REMARK    3  A    between atoms: C_10  and  O_11
REMARK    4  A    between atoms: O_11  and  C_12
REMARK    5  A    between atoms: C_12  and  C_13
REMARK    6  A    between atoms: C_17  and  C_18
REMARK                            x       y       z     vdW  Elec       q    Type
REMARK                         _______ _______ _______ _____ _____    ______ ____
ROOT
ATOM      1  O   UNL     1       5.549   5.808  18.865  0.00  0.00    +0.000 OA
ENDROOT
BRANCH   1   5
ATOM      2  C   UNL     1       6.481   4.888  14.961  0.00  0.00    +0.000 A 
ATOM      3  C   UNL     1       7.201   4.306  16.007  0.00  0.00    +0.000 A 
ATOM      4  C   UNL     1       6.882   4.625  17.324  0.00  0.00    +0.000 A 
ATOM      5  C   UNL     1       5.828   5.495  17.551  0.00  0.00    +0.000 A 
ATOM      6  N   UNL     1       5.104   6.070  16.563  0.00  0.00    +0.000 NA
ATOM      7  C   UNL     1       5.444   5.750  15.289  0.00  0.00    +0.000 A 
BRANCH   2   9
ATOM      8  O   UNL     1       7.549   5.238  12.917  0.00  0.00    +0.000 OA
ATOM      9  C   UNL     1       6.803   4.516  13.568  0.00  0.00    +0.000 C 
ATOM     10  N   UNL     1       6.204   3.374  13.064  0.00  0.00    +0.000 N 
ATOM     11  H   UNL     1       5.447   2.928  13.570  0.00  0.00    +0.000 HD
BRANCH  10  12
ATOM     12  C   UNL     1       6.420   2.980  11.705  0.00  0.00    +0.000 C 
ATOM     13  C   UNL     1       7.377   1.865  11.385  0.00  0.00    +0.000 C 
ATOM     14  C   UNL     1       5.905   1.675  11.171  0.00  0.00    +0.000 C 
ENDBRANCH  10  12
ENDBRANCH   2   9
ENDBRANCH   1   5
BRANCH   1  15
ATOM     15  C   UNL     1       5.159   4.649  19.615  0.00  0.00    +0.000 C 
BRANCH  15  16
ATOM     16  C   UNL     1       3.835   4.120  19.181  0.00  0.00    +0.000 A 
ATOM     17  C   UNL     1       3.535   2.829  18.812  0.00  0.00    +0.000 A 
ATOM     18  O   UNL     1       2.218   2.719  18.543  0.00  0.00    +0.000 OA
ATOM     19  N   UNL     1       1.610   3.939  18.720  0.00  0.00    +0.000 NA
ATOM     20  C   UNL     1       2.575   4.802  19.087  0.00  0.00    +0.000 A 
BRANCH  20  21
ATOM     21  C   UNL     1       2.240   6.212  19.325  0.00  0.00    +0.000 A 
ATOM     22  C   UNL     1       1.742   6.618  20.578  0.00  0.00    +0.000 A 
ATOM     23  C   UNL     1       1.363   7.945  20.803  0.00  0.00    +0.000 A 
ATOM     24  C   UNL     1       1.486   8.876  19.781  0.00  0.00    +0.000 A 
ATOM     25  F   UNL     1       1.109  10.143  19.988  0.00  0.00    +0.000 F 
ATOM     26  C   UNL     1       1.979   8.503  18.538  0.00  0.00    +0.000 A 
ATOM     27  C   UNL     1       2.347   7.175  18.309  0.00  0.00    +0.000 A 
ENDBRANCH  20  21
ENDBRANCH  15  16
ENDBRANCH   1  15
TORSDOF 6
ENDMDL
MODEL 7
REMARK VINA RESULT:      -7.5      3.907      8.903
REMARK  Name = 
REMARK  6 active torsions:
REMARK  status: ('A' for Active; 'I' for Inactive)
REMARK    1  A    between atoms: C_2  and  C_7
REMARK    2  A    between atoms: N_3  and  C_4
REMARK    3  A    between atoms: C_10  and  O_11
REMARK    4  A    between atoms: O_11  and  C_12
REMARK    5  A    between atoms: C_12  and  C_13
REMARK    6  A    between atoms: C_17  and  C_18
REMARK                            x       y       z     vdW  Elec       q    Type
REMARK                         _______ _______ _______ _____ _____    ______ ____
ROOT
ATOM      1  O   UNL     1       5.702   6.091  18.436  0.00  0.00    +0.000 OA
ENDROOT
BRANCH   1   5
ATOM      2  C   UNL     1       6.430   4.777  14.602  0.00  0.00    +0.000 A 
ATOM      3  C   UNL     1       7.239   4.342  15.655  0.00  0.00    +0.000 A 
ATOM      4  C   UNL     1       6.989   4.794  16.948  0.00  0.00    +0.000 A 
ATOM      5  C   UNL     1       5.914   5.644  17.148  0.00  0.00    +0.000 A 
ATOM      6  N   UNL     1       5.104   6.078  16.155  0.00  0.00    +0.000 NA
ATOM      7  C   UNL     1       5.379   5.630  14.903  0.00  0.00    +0.000 A 
BRANCH   2   9
ATOM      8  O   UNL     1       7.436   4.884  12.501  0.00  0.00    +0.000 OA
ATOM      9  C   UNL     1       6.681   4.264  13.240  0.00  0.00    +0.000 C 
ATOM     10  N   UNL     1       6.009   3.112  12.864  0.00  0.00    +0.000 N 
ATOM     11  H   UNL     1       5.252   2.754  13.434  0.00  0.00    +0.000 HD
BRANCH  10  12
ATOM     12  C   UNL     1       6.155   2.587  11.541  0.00  0.00    +0.000 C 
ATOM     13  C   UNL     1       7.337   1.721  11.199  0.00  0.00    +0.000 C 
ATOM     14  C   UNL     1       5.959   1.127  11.247  0.00  0.00    +0.000 C 
ENDBRANCH  10  12
ENDBRANCH   2   9
ENDBRANCH   1   5
BRANCH   1  15
ATOM     15  C   UNL     1       5.555   5.003  19.358  0.00  0.00    +0.000 C 
BRANCH  15  16
ATOM     16  C   UNL     1       4.278   4.262  19.152  0.00  0.00    +0.000 A 
ATOM     17  C   UNL     1       4.122   2.907  18.972  0.00  0.00    +0.000 A 
ATOM     18  O   UNL     1       2.812   2.601  18.879  0.00  0.00    +0.000 OA
ATOM     19  N   UNL     1       2.063   3.749  18.989  0.00  0.00    +0.000 NA
ATOM     20  C   UNL     1       2.933   4.765  19.136  0.00  0.00    +0.000 A 
BRANCH  20  21
ATOM     21  C   UNL     1       2.434   6.142  19.251  0.00  0.00    +0.000 A 
ATOM     22  C   UNL     1       2.486   7.006  18.142  0.00  0.00    +0.000 A 
ATOM     23  C   UNL     1       2.070   8.338  18.250  0.00  0.00    +0.000 A 
ATOM     24  C   UNL     1       1.594   8.810  19.465  0.00  0.00    +0.000 A 
ATOM     25  F   UNL     1       1.210  10.087  19.577  0.00  0.00    +0.000 F 
ATOM     26  C   UNL     1       1.527   7.976  20.573  0.00  0.00    +0.000 A 
ATOM     27  C   UNL     1       1.954   6.650  20.468  0.00  0.00    +0.000 A 
ENDBRANCH  20  21
ENDBRANCH  15  16
ENDBRANCH   1  15
TORSDOF 6
ENDMDL
MODEL 8
REMARK VINA RESULT:      -7.5      3.142      4.261
REMARK  Name = 
REMARK  6 active torsions:
REMARK  status: ('A' for Active; 'I' for Inactive)
REMARK    1  A    between atoms: C_2  and  C_7
REMARK    2  A    between atoms: N_3  and  C_4
REMARK    3  A    between atoms: C_10  and  O_11
REMARK    4  A    between atoms: O_11  and  C_12
REMARK    5  A    between atoms: C_12  and  C_13
REMARK    6  A    between atoms: C_17  and  C_18
REMARK                            x       y       z     vdW  Elec       q    Type
REMARK                         _______ _______ _______ _____ _____    ______ ____
ROOT
ATOM      1  O   UNL     1       3.101   6.409  19.017  0.00  0.00    +0.000 OA
ENDROOT
BRANCH   1   5
ATOM      2  C   UNL     1       0.916   9.899  19.100  0.00  0.00    +0.000 A 
ATOM      3  C   UNL     1       1.515   9.478  17.910  0.00  0.00    +0.000 A 
ATOM      4  C   UNL     1       2.255   8.298  17.891  0.00  0.00    +0.000 A 
ATOM      5  C   UNL     1       2.344   7.562  19.061  0.00  0.00    +0.000 A 
ATOM      6  N   UNL     1       1.770   7.934  20.228  0.00  0.00    +0.000 NA
ATOM      7  C   UNL     1       1.064   9.094  20.220  0.00  0.00    +0.000 A 
BRANCH   2   9
ATOM      8  O   UNL     1       0.651  12.206  19.320  0.00  0.00    +0.000 OA
ATOM      9  C   UNL     1       0.103  11.132  19.102  0.00  0.00    +0.000 C 
ATOM     10  N   UNL     1      -1.258  10.992  18.886  0.00  0.00    +0.000 N 
ATOM     11  H   UNL     1      -1.687  10.075  18.911  0.00  0.00    +0.000 HD
BRANCH  10  12
ATOM     12  C   UNL     1      -2.120  12.134  18.932  0.00  0.00    +0.000 C 
ATOM     13  C   UNL     1      -3.608  11.952  19.056  0.00  0.00    +0.000 C 
ATOM     14  C   UNL     1      -2.825  12.540  20.194  0.00  0.00    +0.000 C 
ENDBRANCH  10  12
ENDBRANCH   2   9
ENDBRANCH   1   5
BRANCH   1  15
ATOM     15  C   UNL     1       2.302   5.242  19.251  0.00  0.00    +0.000 C 
BRANCH  15  16
ATOM     16  C   UNL     1       3.117   4.093  19.736  0.00  0.00    +0.000 A 
ATOM     17  C   UNL     1       2.844   3.271  20.806  0.00  0.00    +0.000 A 
ATOM     18  O   UNL     1       3.781   2.306  20.899  0.00  0.00    +0.000 OA
ATOM     19  N   UNL     1       4.707   2.467  19.895  0.00  0.00    +0.000 NA
ATOM     20  C   UNL     1       4.333   3.552  19.195  0.00  0.00    +0.000 A 
BRANCH  20  21
ATOM     21  C   UNL     1       5.148   4.005  18.060  0.00  0.00    +0.000 A 
ATOM     22  C   UNL     1       4.712   3.775  16.742  0.00  0.00    +0.000 A 
ATOM     23  C   UNL     1       5.504   4.146  15.649  0.00  0.00    +0.000 A 
ATOM     24  C   UNL     1       6.731   4.756  15.869  0.00  0.00    +0.000 A 
ATOM     25  F   UNL     1       7.499   5.098  14.827  0.00  0.00    +0.000 F 
ATOM     26  C   UNL     1       7.182   5.000  17.159  0.00  0.00    +0.000 A 
ATOM     27  C   UNL     1       6.397   4.618  18.250  0.00  0.00    +0.000 A 
ENDBRANCH  20  21
ENDBRANCH  15  16
ENDBRANCH   1  15
TORSDOF 6
ENDMDL
MODEL 9
REMARK VINA RESULT:      -7.4      2.933      3.965
REMARK  Name = 
REMARK  6 active torsions:
REMARK  status: ('A' for Active; 'I' for Inactive)
REMARK    1  A    between atoms: C_2  and  C_7
REMARK    2  A    between atoms: N_3  and  C_4
REMARK    3  A    between atoms: C_10  and  O_11
REMARK    4  A    between atoms: O_11  and  C_12
REMARK    5  A    between atoms: C_12  and  C_13
REMARK    6  A    between atoms: C_17  and  C_18
REMARK                            x       y       z     vdW  Elec       q    Type
REMARK                         _______ _______ _______ _____ _____    ______ ____
ROOT
ATOM      1  O   UNL     1       2.835   6.485  19.856  0.00  0.00    +0.000 OA
ENDROOT
BRANCH   1   5
ATOM      2  C   UNL     1       0.760  10.002  19.326  0.00  0.00    +0.000 A 
ATOM      3  C   UNL     1       1.425   9.414  18.247  0.00  0.00    +0.000 A 
ATOM      4  C   UNL     1       2.128   8.226  18.436  0.00  0.00    +0.000 A 
ATOM      5  C   UNL     1       2.114   7.650  19.695  0.00  0.00    +0.000 A 
ATOM      6  N   UNL     1       1.474   8.186  20.759  0.00  0.00    +0.000 NA
ATOM      7  C   UNL     1       0.807   9.350  20.550  0.00  0.00    +0.000 A 
BRANCH   2   9
ATOM      8  O   UNL     1       0.533  12.193  18.560  0.00  0.00    +0.000 OA
ATOM      9  C   UNL     1      -0.012  11.242  19.108  0.00  0.00    +0.000 C 
ATOM     10  N   UNL     1      -1.315  11.266  19.576  0.00  0.00    +0.000 N 
ATOM     11  H   UNL     1      -1.650  10.536  20.193  0.00  0.00    +0.000 HD
BRANCH  10  12
ATOM     12  C   UNL     1      -2.108  12.452  19.454  0.00  0.00    +0.000 C 
ATOM     13  C   UNL     1      -3.406  12.572  20.204  0.00  0.00    +0.000 C 
ATOM     14  C   UNL     1      -2.237  13.433  20.584  0.00  0.00    +0.000 C 
ENDBRANCH  10  12
ENDBRANCH   2   9
ENDBRANCH   1   5
BRANCH   1  15
ATOM     15  C   UNL     1       1.991   5.327  19.797  0.00  0.00    +0.000 C 
BRANCH  15  16
ATOM     16  C   UNL     1       2.357   4.424  18.669  0.00  0.00    +0.000 A 
ATOM     17  C   UNL     1       1.578   3.440  18.105  0.00  0.00    +0.000 A 
ATOM     18  O   UNL     1       2.227   2.875  17.067  0.00  0.00    +0.000 OA
ATOM     19  N   UNL     1       3.459   3.466  16.919  0.00  0.00    +0.000 NA
ATOM     20  C   UNL     1       3.563   4.391  17.890  0.00  0.00    +0.000 A 
BRANCH  20  21
ATOM     21  C   UNL     1       4.794   5.182  18.016  0.00  0.00    +0.000 A 
ATOM     22  C   UNL     1       5.046   6.241  17.125  0.00  0.00    +0.000 A 
ATOM     23  C   UNL     1       6.241   6.967  17.192  0.00  0.00    +0.000 A 
ATOM     24  C   UNL     1       7.185   6.643  18.156  0.00  0.00    +0.000 A 
ATOM     25  F   UNL     1       8.336   7.324  18.214  0.00  0.00    +0.000 F 
ATOM     26  C   UNL     1       6.958   5.606  19.051  0.00  0.00    +0.000 A 
ATOM     27  C   UNL     1       5.771   4.873  18.976  0.00  0.00    +0.000 A 
ENDBRANCH  20  21
ENDBRANCH  15  16
ENDBRANCH   1  15
TORSDOF 6
ENDMDL
