MODEL 1
REMARK VINA RESULT:      -8.2      0.000      0.000
REMARK  Name = 
REMARK  8 active torsions:
REMARK  status: ('A' for Active; 'I' for Inactive)
REMARK    1  A    between atoms: C_1  and  C_2
REMARK    2  A    between atoms: C_2  and  C_3
REMARK    3  A    between atoms: C_3  and  C_4
REMARK    4  A    between atoms: C_4  and  C_5
REMARK    5  A    between atoms: C_5  and  C_6
REMARK    6  A    between atoms: C_6  and  C_7
REMARK    7  A    between atoms: C_7  and  N_8
REMARK    8  A    between atoms: N_11  and  C_12
REMARK                            x       y       z     vdW  Elec       q    Type
REMARK                         _______ _______ _______ _____ _____    ______ ____
ROOT
ATOM      1  C   UNL     1       9.410  10.974  17.695  0.00  0.00    +0.000 C 
ENDROOT
BRANCH   1   2
ATOM      2  C   UNL     1      10.159  12.260  18.101  0.00  0.00    +0.000 C 
ATOM      3  C   UNL     1      11.030  11.985  19.354  0.00  0.00    +0.000 C 
ATOM      4  O   UNL     1      12.039  11.303  19.422  0.00  0.00    +0.000 OA
ATOM      5  N   UNL     1      10.427  12.630  20.428  0.00  0.00    +0.000 N 
ATOM      6  C   UNL     1       9.301  13.348  20.039  0.00  0.00    +0.000 A 
ATOM      7  C   UNL     1       8.433  14.089  20.819  0.00  0.00    +0.000 A 
ATOM      8 CL   UNL     1       8.657  14.238  22.514  0.00  0.00    +0.000 Cl
ATOM      9  C   UNL     1       7.340  14.696  20.197  0.00  0.00    +0.000 A 
ATOM     10  C   UNL     1       7.143  14.546  18.813  0.00  0.00    +0.000 A 
ATOM     11 CL   UNL     1       5.771  15.268  18.067  0.00  0.00    +0.000 Cl
ATOM     12  C   UNL     1       8.028  13.798  18.037  0.00  0.00    +0.000 A 
ATOM     13  C   UNL     1       9.106  13.197  18.669  0.00  0.00    +0.000 A 
ATOM     14  H   UNL     1      10.784  12.576  21.373  0.00  0.00    +0.000 HD
BRANCH   2  16
ATOM     15  C   UNL     1      11.528  14.261  17.215  0.00  0.00    +0.000 C 
ATOM     16  C   UNL     1      10.936  12.886  16.929  0.00  0.00    +0.000 C 
ENDBRANCH   2  16
ENDBRANCH   1   2
BRANCH   1  17
ATOM     17  C   UNL     1       8.770  10.180  18.834  0.00  0.00    +0.000 C 
BRANCH  17  18
ATOM     18  C   UNL     1       8.749   8.683  18.513  0.00  0.00    +0.000 C 
BRANCH  18  19
ATOM     19  C   UNL     1       7.513   8.225  17.720  0.00  0.00    +0.000 C 
BRANCH  19  20
ATOM     20  N   UNL     1       7.594   6.844  17.226  0.00  0.00    +0.000 NA
ATOM     21  C   UNL     1       7.597   5.835  18.313  0.00  0.00    +0.000 C 
ATOM     22  C   UNL     1       6.266   5.662  19.077  0.00  0.00    +0.000 C 
ATOM     23  N   UNL     1       5.162   5.456  18.131  0.00  0.00    +0.000 N 
ATOM     24  C   UNL     1       5.082   6.413  17.015  0.00  0.00    +0.000 C 
ATOM     25  C   UNL     1       6.458   6.540  16.319  0.00  0.00    +0.000 C 
BRANCH  23  26
ATOM     26  C   UNL     1       4.190   4.513  18.366  0.00  0.00    +0.000 A 
ATOM     27  C   UNL     1       3.462   3.928  17.315  0.00  0.00    +0.000 A 
ATOM     28  C   UNL     1       2.414   3.036  17.552  0.00  0.00    +0.000 A 
ATOM     29  C   UNL     1       2.065   2.707  18.859  0.00  0.00    +0.000 A 
ATOM     30  C   UNL     1       2.780   3.263  19.912  0.00  0.00    +0.000 A 
ATOM     31 CL   UNL     1       2.333   2.896  21.534  0.00  0.00    +0.000 Cl
ATOM     32  C   UNL     1       3.837   4.143  19.671  0.00  0.00    +0.000 A 
ENDBRANCH  23  26
ENDBRANCH  19  20
ENDBRANCH  18  19
ENDBRANCH  17  18
ENDBRANCH   1  17
TORSDOF 7
ENDMDL
MODEL 2
REMARK VINA RESULT:      -8.1      6.477     10.045
REMARK  Name = 
REMARK  8 active torsions:
REMARK  status: ('A' for Active; 'I' for Inactive)
REMARK    1  A    between atoms: C_1  and  C_2
REMARK    2  A    between atoms: C_2  and  C_3
REMARK    3  A    between atoms: C_3  and  C_4
REMARK    4  A    between atoms: C_4  and  C_5
REMARK    5  A    between atoms: C_5  and  C_6
REMARK    6  A    between atoms: C_6  and  C_7
REMARK    7  A    between atoms: C_7  and  N_8
REMARK    8  A    between atoms: N_11  and  C_12
REMARK                            x       y       z     vdW  Elec       q    Type
REMARK                         _______ _______ _______ _____ _____    ______ ____
ROOT
ATOM      1  C   UNL     1       2.302   5.546  17.765  0.00  0.00    +0.000 C 
ENDROOT
BRANCH   1   2
ATOM      2  C   UNL     1       3.151   4.353  18.248  0.00  0.00    +0.000 C 
ATOM      3  C   UNL     1       3.577   4.577  19.722  0.00  0.00    +0.000 C 
ATOM      4  O   UNL     1       2.866   4.550  20.713  0.00  0.00    +0.000 OA
ATOM      5  N   UNL     1       4.937   4.863  19.722  0.00  0.00    +0.000 N 
ATOM      6  C   UNL     1       5.483   4.799  18.444  0.00  0.00    +0.000 A 
ATOM      7  C   UNL     1       6.783   5.043  18.043  0.00  0.00    +0.000 A 
ATOM      8 CL   UNL     1       8.000   5.488  19.170  0.00  0.00    +0.000 Cl
ATOM      9  C   UNL     1       7.085   4.950  16.683  0.00  0.00    +0.000 A 
ATOM     10  C   UNL     1       6.079   4.615  15.759  0.00  0.00    +0.000 A 
ATOM     11 CL   UNL     1       6.455   4.541  14.083  0.00  0.00    +0.000 Cl
ATOM     12  C   UNL     1       4.770   4.368  16.177  0.00  0.00    +0.000 A 
ATOM     13  C   UNL     1       4.485   4.470  17.531  0.00  0.00    +0.000 A 
ATOM     14  H   UNL     1       5.453   5.085  20.563  0.00  0.00    +0.000 HD
BRANCH   2  16
ATOM     15  C   UNL     1       3.283   1.780  18.405  0.00  0.00    +0.000 C 
ATOM     16  C   UNL     1       2.463   2.999  17.999  0.00  0.00    +0.000 C 
ENDBRANCH   2  16
ENDBRANCH   1   2
BRANCH   1  17
ATOM     17  C   UNL     1       2.440   6.840  18.567  0.00  0.00    +0.000 C 
BRANCH  17  18
ATOM     18  C   UNL     1       2.211   8.064  17.675  0.00  0.00    +0.000 C 
BRANCH  18  19
ATOM     19  C   UNL     1       2.321   9.409  18.412  0.00  0.00    +0.000 C 
BRANCH  19  20
ATOM     20  N   UNL     1       1.334  10.411  17.984  0.00  0.00    +0.000 NA
ATOM     21  C   UNL     1      -0.068   9.979  18.201  0.00  0.00    +0.000 C 
ATOM     22  C   UNL     1      -0.530   9.907  19.674  0.00  0.00    +0.000 C 
ATOM     23  N   UNL     1      -0.223  11.167  20.363  0.00  0.00    +0.000 N 
ATOM     24  C   UNL     1       1.150  11.673  20.200  0.00  0.00    +0.000 C 
ATOM     25  C   UNL     1       1.538  11.694  18.702  0.00  0.00    +0.000 C 
BRANCH  23  26
ATOM     26  C   UNL     1      -1.127  11.748  21.219  0.00  0.00    +0.000 A 
ATOM     27  C   UNL     1      -1.294  11.288  22.537  0.00  0.00    +0.000 A 
ATOM     28  C   UNL     1      -2.272  11.815  23.384  0.00  0.00    +0.000 A 
ATOM     29  C   UNL     1      -3.115  12.824  22.926  0.00  0.00    +0.000 A 
ATOM     30  C   UNL     1      -2.958  13.304  21.632  0.00  0.00    +0.000 A 
ATOM     31 CL   UNL     1      -4.019  14.524  21.039  0.00  0.00    +0.000 Cl
ATOM     32  C   UNL     1      -1.970  12.783  20.793  0.00  0.00    +0.000 A 
ENDBRANCH  23  26
ENDBRANCH  19  20
ENDBRANCH  18  19
ENDBRANCH  17  18
ENDBRANCH   1  17
TORSDOF 7
ENDMDL
MODEL 3
REMARK VINA RESULT:      -8.0      7.172     10.362
REMARK  Name = 
REMARK  8 active torsions:
REMARK  status: ('A' for Active; 'I' for Inactive)
REMARK    1  A    between atoms: C_1  and  C_2
REMARK    2  A    between atoms: C_2  and  C_3
REMARK    3  A    between atoms: C_3  and  C_4
REMARK    4  A    between atoms: C_4  and  C_5
REMARK    5  A    between atoms: C_5  and  C_6
REMARK    6  A    between atoms: C_6  and  C_7
REMARK    7  A    between atoms: C_7  and  N_8
REMARK    8  A    between atoms: N_11  and  C_12
REMARK                            x       y       z     vdW  Elec       q    Type
REMARK                         _______ _______ _______ _____ _____    ______ ____
ROOT
ATOM      1  C   UNL     1       2.349   6.607  17.525  0.00  0.00    +0.000 C 
ENDROOT
BRANCH   1   2
ATOM      2  C   UNL     1       2.905   5.273  18.060  0.00  0.00    +0.000 C 
ATOM      3  C   UNL     1       3.141   5.380  19.589  0.00  0.00    +0.000 C 
ATOM      4  O   UNL     1       2.298   5.452  20.468  0.00  0.00    +0.000 OA
ATOM      5  N   UNL     1       4.515   5.426  19.794  0.00  0.00    +0.000 N 
ATOM      6  C   UNL     1       5.224   5.301  18.604  0.00  0.00    +0.000 A 
ATOM      7  C   UNL     1       6.591   5.325  18.402  0.00  0.00    +0.000 A 
ATOM      8 CL   UNL     1       7.686   5.522  19.709  0.00  0.00    +0.000 Cl
ATOM      9  C   UNL     1       7.069   5.216  17.094  0.00  0.00    +0.000 A 
ATOM     10  C   UNL     1       6.168   5.087  16.023  0.00  0.00    +0.000 A 
ATOM     11 CL   UNL     1       6.768   4.992  14.414  0.00  0.00    +0.000 Cl
ATOM     12  C   UNL     1       4.789   5.060  16.241  0.00  0.00    +0.000 A 
ATOM     13  C   UNL     1       4.330   5.174  17.544  0.00  0.00    +0.000 A 
ATOM     14  H   UNL     1       4.932   5.532  20.710  0.00  0.00    +0.000 HD
BRANCH   2  16
ATOM     15  C   UNL     1       2.556   2.716  18.137  0.00  0.00    +0.000 C 
ATOM     16  C   UNL     1       2.043   4.066  17.649  0.00  0.00    +0.000 C 
ENDBRANCH   2  16
ENDBRANCH   1   2
BRANCH   1  17
ATOM     17  C   UNL     1       2.717   7.859  18.322  0.00  0.00    +0.000 C 
BRANCH  17  18
ATOM     18  C   UNL     1       1.864   9.055  17.889  0.00  0.00    +0.000 C 
BRANCH  18  19
ATOM     19  C   UNL     1       0.833   9.507  18.936  0.00  0.00    +0.000 C 
BRANCH  19  20
ATOM     20  N   UNL     1       1.030  10.880  19.420  0.00  0.00    +0.000 NA
ATOM     21  C   UNL     1       0.018  11.832  18.902  0.00  0.00    +0.000 C 
ATOM     22  C   UNL     1      -1.414  11.663  19.456  0.00  0.00    +0.000 C 
ATOM     23  N   UNL     1      -1.387  11.625  20.924  0.00  0.00    +0.000 N 
ATOM     24  C   UNL     1      -0.409  10.706  21.527  0.00  0.00    +0.000 C 
ATOM     25  C   UNL     1       0.990  10.928  20.904  0.00  0.00    +0.000 C 
BRANCH  23  26
ATOM     26  C   UNL     1      -2.321  12.303  21.670  0.00  0.00    +0.000 A 
ATOM     27  C   UNL     1      -2.474  12.067  23.047  0.00  0.00    +0.000 A 
ATOM     28  C   UNL     1      -3.479  12.687  23.794  0.00  0.00    +0.000 A 
ATOM     29  C   UNL     1      -4.365  13.564  23.172  0.00  0.00    +0.000 A 
ATOM     30  C   UNL     1      -4.222  13.821  21.815  0.00  0.00    +0.000 A 
ATOM     31 CL   UNL     1      -5.335  14.872  21.025  0.00  0.00    +0.000 Cl
ATOM     32  C   UNL     1      -3.207  13.210  21.075  0.00  0.00    +0.000 A 
ENDBRANCH  23  26
ENDBRANCH  19  20
ENDBRANCH  18  19
ENDBRANCH  17  18
ENDBRANCH   1  17
TORSDOF 7
ENDMDL
MODEL 4
REMARK VINA RESULT:      -8.0      1.703      2.016
REMARK  Name = 
REMARK  8 active torsions:
REMARK  status: ('A' for Active; 'I' for Inactive)
REMARK    1  A    between atoms: C_1  and  C_2
REMARK    2  A    between atoms: C_2  and  C_3
REMARK    3  A    between atoms: C_3  and  C_4
REMARK    4  A    between atoms: C_4  and  C_5
REMARK    5  A    between atoms: C_5  and  C_6
REMARK    6  A    between atoms: C_6  and  C_7
REMARK    7  A    between atoms: C_7  and  N_8
REMARK    8  A    between atoms: N_11  and  C_12
REMARK                            x       y       z     vdW  Elec       q    Type
REMARK                         _______ _______ _______ _____ _____    ______ ____
ROOT
ATOM      1  C   UNL     1       9.073  11.260  18.687  0.00  0.00    +0.000 C 
ENDROOT
BRANCH   1   2
ATOM      2  C   UNL     1       9.774  12.060  19.803  0.00  0.00    +0.000 C 
ATOM      3  C   UNL     1       8.876  12.091  21.067  0.00  0.00    +0.000 C 
ATOM      4  O   UNL     1       8.611  11.163  21.814  0.00  0.00    +0.000 OA
ATOM      5  N   UNL     1       8.374  13.382  21.187  0.00  0.00    +0.000 N 
ATOM      6  C   UNL     1       8.871  14.227  20.201  0.00  0.00    +0.000 A 
ATOM      7  C   UNL     1       8.586  15.562  19.979  0.00  0.00    +0.000 A 
ATOM      8 CL   UNL     1       7.495  16.425  20.984  0.00  0.00    +0.000 Cl
ATOM      9  C   UNL     1       9.188  16.194  18.889  0.00  0.00    +0.000 A 
ATOM     10  C   UNL     1      10.058  15.476  18.050  0.00  0.00    +0.000 A 
ATOM     11 CL   UNL     1      10.762  16.257  16.689  0.00  0.00    +0.000 Cl
ATOM     12  C   UNL     1      10.339  14.130  18.286  0.00  0.00    +0.000 A 
ATOM     13  C   UNL     1       9.730  13.515  19.369  0.00  0.00    +0.000 A 
ATOM     14  H   UNL     1       7.729  13.656  21.916  0.00  0.00    +0.000 HD
BRANCH   2  16
ATOM     15  C   UNL     1      12.123  11.565  18.854  0.00  0.00    +0.000 C 
ATOM     16  C   UNL     1      11.207  11.566  20.072  0.00  0.00    +0.000 C 
ENDBRANCH   2  16
ENDBRANCH   1   2
BRANCH   1  17
ATOM     17  C   UNL     1       8.924   9.758  18.925  0.00  0.00    +0.000 C 
BRANCH  17  18
ATOM     18  C   UNL     1       8.549   9.032  17.629  0.00  0.00    +0.000 C 
BRANCH  18  19
ATOM     19  C   UNL     1       7.351   8.078  17.765  0.00  0.00    +0.000 C 
BRANCH  19  20
ATOM     20  N   UNL     1       7.676   6.666  17.522  0.00  0.00    +0.000 NA
ATOM     21  C   UNL     1       7.608   5.832  18.746  0.00  0.00    +0.000 C 
ATOM     22  C   UNL     1       6.193   5.583  19.315  0.00  0.00    +0.000 C 
ATOM     23  N   UNL     1       5.302   5.090  18.257  0.00  0.00    +0.000 N 
ATOM     24  C   UNL     1       5.307   5.858  17.001  0.00  0.00    +0.000 C 
ATOM     25  C   UNL     1       6.758   6.079  16.513  0.00  0.00    +0.000 C 
BRANCH  23  26
ATOM     26  C   UNL     1       4.420   4.063  18.490  0.00  0.00    +0.000 A 
ATOM     27  C   UNL     1       3.910   3.278  17.442  0.00  0.00    +0.000 A 
ATOM     28  C   UNL     1       2.947   2.291  17.661  0.00  0.00    +0.000 A 
ATOM     29  C   UNL     1       2.466   2.064  18.948  0.00  0.00    +0.000 A 
ATOM     30  C   UNL     1       2.968   2.818  20.001  0.00  0.00    +0.000 A 
ATOM     31 CL   UNL     1       2.354   2.577  21.592  0.00  0.00    +0.000 Cl
ATOM     32  C   UNL     1       3.941   3.795  19.779  0.00  0.00    +0.000 A 
ENDBRANCH  23  26
ENDBRANCH  19  20
ENDBRANCH  18  19
ENDBRANCH  17  18
ENDBRANCH   1  17
TORSDOF 7
ENDMDL
MODEL 5
REMARK VINA RESULT:      -8.0      6.469     10.214
REMARK  Name = 
REMARK  8 active torsions:
REMARK  status: ('A' for Active; 'I' for Inactive)
REMARK    1  A    between atoms: C_1  and  C_2
REMARK    2  A    between atoms: C_2  and  C_3
REMARK    3  A    between atoms: C_3  and  C_4
REMARK    4  A    between atoms: C_4  and  C_5
REMARK    5  A    between atoms: C_5  and  C_6
REMARK    6  A    between atoms: C_6  and  C_7
REMARK    7  A    between atoms: C_7  and  N_8
REMARK    8  A    between atoms: N_11  and  C_12
REMARK                            x       y       z     vdW  Elec       q    Type
REMARK                         _______ _______ _______ _____ _____    ______ ____
ROOT
ATOM      1  C   UNL     1       2.376   5.374  17.745  0.00  0.00    +0.000 C 
ENDROOT
BRANCH   1   2
ATOM      2  C   UNL     1       3.244   4.180  18.191  0.00  0.00    +0.000 C 
ATOM      3  C   UNL     1       3.684   4.375  19.665  0.00  0.00    +0.000 C 
ATOM      4  O   UNL     1       2.984   4.319  20.663  0.00  0.00    +0.000 OA
ATOM      5  N   UNL     1       5.040   4.678  19.657  0.00  0.00    +0.000 N 
ATOM      6  C   UNL     1       5.572   4.648  18.372  0.00  0.00    +0.000 A 
ATOM      7  C   UNL     1       6.866   4.916  17.963  0.00  0.00    +0.000 A 
ATOM      8 CL   UNL     1       8.089   5.349  19.086  0.00  0.00    +0.000 Cl
ATOM      9  C   UNL     1       7.153   4.857  16.598  0.00  0.00    +0.000 A 
ATOM     10  C   UNL     1       6.141   4.532  15.678  0.00  0.00    +0.000 A 
ATOM     11 CL   UNL     1       6.499   4.500  13.996  0.00  0.00    +0.000 Cl
ATOM     12  C   UNL     1       4.840   4.261  16.104  0.00  0.00    +0.000 A 
ATOM     13  C   UNL     1       4.569   4.328  17.463  0.00  0.00    +0.000 A 
ATOM     14  H   UNL     1       5.563   4.886  20.498  0.00  0.00    +0.000 HD
BRANCH   2  16
ATOM     15  C   UNL     1       3.372   1.608  18.364  0.00  0.00    +0.000 C 
ATOM     16  C   UNL     1       2.569   2.824  17.919  0.00  0.00    +0.000 C 
ENDBRANCH   2  16
ENDBRANCH   1   2
BRANCH   1  17
ATOM     17  C   UNL     1       2.850   6.756  18.193  0.00  0.00    +0.000 C 
BRANCH  17  18
ATOM     18  C   UNL     1       1.873   7.844  17.737  0.00  0.00    +0.000 C 
BRANCH  18  19
ATOM     19  C   UNL     1       1.780   9.047  18.691  0.00  0.00    +0.000 C 
BRANCH  19  20
ATOM     20  N   UNL     1       1.115  10.223  18.113  0.00  0.00    +0.000 NA
ATOM     21  C   UNL     1      -0.365  10.131  18.146  0.00  0.00    +0.000 C 
ATOM     22  C   UNL     1      -1.016  10.241  19.543  0.00  0.00    +0.000 C 
ATOM     23  N   UNL     1      -0.517  11.432  20.242  0.00  0.00    +0.000 N 
ATOM     24  C   UNL     1       0.945  11.605  20.257  0.00  0.00    +0.000 C 
ATOM     25  C   UNL     1       1.516  11.461  18.827  0.00  0.00    +0.000 C 
BRANCH  23  26
ATOM     26  C   UNL     1      -1.365  12.245  20.955  0.00  0.00    +0.000 A 
ATOM     27  C   UNL     1      -2.656  12.551  20.489  0.00  0.00    +0.000 A 
ATOM     28  C   UNL     1      -3.489  13.447  21.163  0.00  0.00    +0.000 A 
ATOM     29  C   UNL     1      -3.045  14.064  22.329  0.00  0.00    +0.000 A 
ATOM     30  C   UNL     1      -1.778  13.765  22.815  0.00  0.00    +0.000 A 
ATOM     31 CL   UNL     1      -1.200  14.552  24.234  0.00  0.00    +0.000 Cl
ATOM     32  C   UNL     1      -0.953  12.859  22.145  0.00  0.00    +0.000 A 
ENDBRANCH  23  26
ENDBRANCH  19  20
ENDBRANCH  18  19
ENDBRANCH  17  18
ENDBRANCH   1  17
TORSDOF 7
ENDMDL
MODEL 6
REMARK VINA RESULT:      -8.0      6.546     10.185
REMARK  Name = 
REMARK  8 active torsions:
REMARK  status: ('A' for Active; 'I' for Inactive)
REMARK    1  A    between atoms: C_1  and  C_2
REMARK    2  A    between atoms: C_2  and  C_3
REMARK    3  A    between atoms: C_3  and  C_4
REMARK    4  A    between atoms: C_4  and  C_5
REMARK    5  A    between atoms: C_5  and  C_6
REMARK    6  A    between atoms: C_6  and  C_7
REMARK    7  A    between atoms: C_7  and  N_8
REMARK    8  A    between atoms: N_11  and  C_12
REMARK                            x       y       z     vdW  Elec       q    Type
REMARK                         _______ _______ _______ _____ _____    ______ ____
ROOT
ATOM      1  C   UNL     1       2.192   5.068  17.715  0.00  0.00    +0.000 C 
ENDROOT
BRANCH   1   2
ATOM      2  C   UNL     1       3.130   4.002  18.316  0.00  0.00    +0.000 C 
ATOM      3  C   UNL     1       3.550   4.422  19.749  0.00  0.00    +0.000 C 
ATOM      4  O   UNL     1       2.850   4.459  20.748  0.00  0.00    +0.000 OA
ATOM      5  N   UNL     1       4.885   4.804  19.694  0.00  0.00    +0.000 N 
ATOM      6  C   UNL     1       5.424   4.633  18.424  0.00  0.00    +0.000 A 
ATOM      7  C   UNL     1       6.700   4.922  17.977  0.00  0.00    +0.000 A 
ATOM      8 CL   UNL     1       7.890   5.578  19.026  0.00  0.00    +0.000 Cl
ATOM      9  C   UNL     1       6.997   4.695  16.631  0.00  0.00    +0.000 A 
ATOM     10  C   UNL     1       6.011   4.186  15.768  0.00  0.00    +0.000 A 
ATOM     11 CL   UNL     1       6.378   3.948  14.105  0.00  0.00    +0.000 Cl
ATOM     12  C   UNL     1       4.727   3.896  16.232  0.00  0.00    +0.000 A 
ATOM     13  C   UNL     1       4.446   4.131  17.569  0.00  0.00    +0.000 A 
ATOM     14  H   UNL     1       5.390   5.156  20.497  0.00  0.00    +0.000 HD
BRANCH   2  16
ATOM     15  C   UNL     1       1.052   2.487  18.550  0.00  0.00    +0.000 C 
ATOM     16  C   UNL     1       2.540   2.582  18.234  0.00  0.00    +0.000 C 
ENDBRANCH   2  16
ENDBRANCH   1   2
BRANCH   1  17
ATOM     17  C   UNL     1       1.957   6.315  18.567  0.00  0.00    +0.000 C 
BRANCH  17  18
ATOM     18  C   UNL     1       2.457   7.572  17.847  0.00  0.00    +0.000 C 
BRANCH  18  19
ATOM     19  C   UNL     1       1.511   8.779  17.956  0.00  0.00    +0.000 C 
BRANCH  19  20
ATOM     20  N   UNL     1       1.913   9.768  18.966  0.00  0.00    +0.000 NA
ATOM     21  C   UNL     1       1.418  11.135  18.673  0.00  0.00    +0.000 C 
ATOM     22  C   UNL     1      -0.105  11.348  18.825  0.00  0.00    +0.000 C 
ATOM     23  N   UNL     1      -0.555  10.864  20.136  0.00  0.00    +0.000 N 
ATOM     24  C   UNL     1      -0.108   9.512  20.512  0.00  0.00    +0.000 C 
ATOM     25  C   UNL     1       1.420   9.379  20.311  0.00  0.00    +0.000 C 
BRANCH  23  26
ATOM     26  C   UNL     1      -1.454  11.580  20.889  0.00  0.00    +0.000 A 
ATOM     27  C   UNL     1      -1.360  11.637  22.290  0.00  0.00    +0.000 A 
ATOM     28  C   UNL     1      -2.319  12.289  23.068  0.00  0.00    +0.000 A 
ATOM     29  C   UNL     1      -3.408  12.903  22.455  0.00  0.00    +0.000 A 
ATOM     30  C   UNL     1      -3.514  12.871  21.070  0.00  0.00    +0.000 A 
ATOM     31 CL   UNL     1      -4.876  13.591  20.301  0.00  0.00    +0.000 Cl
ATOM     32  C   UNL     1      -2.544  12.230  20.295  0.00  0.00    +0.000 A 
ENDBRANCH  23  26
ENDBRANCH  19  20
ENDBRANCH  18  19
ENDBRANCH  17  18
ENDBRANCH   1  17
TORSDOF 7
ENDMDL
MODEL 7
REMARK VINA RESULT:      -7.9      6.956     10.250
REMARK  Name = 
REMARK  8 active torsions:
REMARK  status: ('A' for Active; 'I' for Inactive)
REMARK    1  A    between atoms: C_1  and  C_2
REMARK    2  A    between atoms: C_2  and  C_3
REMARK    3  A    between atoms: C_3  and  C_4
REMARK    4  A    between atoms: C_4  and  C_5
REMARK    5  A    between atoms: C_5  and  C_6
REMARK    6  A    between atoms: C_6  and  C_7
REMARK    7  A    between atoms: C_7  and  N_8
REMARK    8  A    between atoms: N_11  and  C_12
REMARK                            x       y       z     vdW  Elec       q    Type
REMARK                         _______ _______ _______ _____ _____    ______ ____
ROOT
ATOM      1  C   UNL     1       2.893   7.106  17.487  0.00  0.00    +0.000 C 
ENDROOT
BRANCH   1   2
ATOM      2  C   UNL     1       3.252   5.681  17.951  0.00  0.00    +0.000 C 
ATOM      3  C   UNL     1       3.604   5.695  19.462  0.00  0.00    +0.000 C 
ATOM      4  O   UNL     1       2.845   5.876  20.400  0.00  0.00    +0.000 OA
ATOM      5  N   UNL     1       4.976   5.505  19.569  0.00  0.00    +0.000 N 
ATOM      6  C   UNL     1       5.573   5.305  18.329  0.00  0.00    +0.000 A 
ATOM      7  C   UNL     1       6.909   5.109  18.031  0.00  0.00    +0.000 A 
ATOM      8 CL   UNL     1       8.106   5.076  19.261  0.00  0.00    +0.000 Cl
ATOM      9  C   UNL     1       7.274   4.967  16.691  0.00  0.00    +0.000 A 
ATOM     10  C   UNL     1       6.294   5.025  15.684  0.00  0.00    +0.000 A 
ATOM     11 CL   UNL     1       6.762   4.886  14.035  0.00  0.00    +0.000 Cl
ATOM     12  C   UNL     1       4.949   5.220  15.998  0.00  0.00    +0.000 A 
ATOM     13  C   UNL     1       4.603   5.364  17.333  0.00  0.00    +0.000 A 
ATOM     14  H   UNL     1       5.464   5.509  20.455  0.00  0.00    +0.000 HD
BRANCH   2  16
ATOM     15  C   UNL     1       2.500   3.211  17.962  0.00  0.00    +0.000 C 
ATOM     16  C   UNL     1       2.173   4.648  17.575  0.00  0.00    +0.000 C 
ENDBRANCH   2  16
ENDBRANCH   1   2
BRANCH   1  17
ATOM     17  C   UNL     1       2.177   7.988  18.510  0.00  0.00    +0.000 C 
BRANCH  17  18
ATOM     18  C   UNL     1       1.601   9.242  17.844  0.00  0.00    +0.000 C 
BRANCH  18  19
ATOM     19  C   UNL     1       1.051  10.284  18.832  0.00  0.00    +0.000 C 
BRANCH  19  20
ATOM     20  N   UNL     1      -0.308   9.999  19.312  0.00  0.00    +0.000 NA
ATOM     21  C   UNL     1      -0.358   9.651  20.752  0.00  0.00    +0.000 C 
ATOM     22  C   UNL     1      -0.072  10.808  21.736  0.00  0.00    +0.000 C 
ATOM     23  N   UNL     1      -0.917  11.965  21.414  0.00  0.00    +0.000 N 
ATOM     24  C   UNL     1      -0.930  12.381  20.002  0.00  0.00    +0.000 C 
ATOM     25  C   UNL     1      -1.202  11.163  19.088  0.00  0.00    +0.000 C 
BRANCH  23  26
ATOM     26  C   UNL     1      -1.535  12.692  22.403  0.00  0.00    +0.000 A 
ATOM     27  C   UNL     1      -0.974  13.879  22.905  0.00  0.00    +0.000 A 
ATOM     28  C   UNL     1      -1.550  14.575  23.970  0.00  0.00    +0.000 A 
ATOM     29  C   UNL     1      -2.713  14.092  24.565  0.00  0.00    +0.000 A 
ATOM     30  C   UNL     1      -3.292  12.928  24.076  0.00  0.00    +0.000 A 
ATOM     31 CL   UNL     1      -4.707  12.298  24.829  0.00  0.00    +0.000 Cl
ATOM     32  C   UNL     1      -2.720  12.243  23.002  0.00  0.00    +0.000 A 
ENDBRANCH  23  26
ENDBRANCH  19  20
ENDBRANCH  18  19
ENDBRANCH  17  18
ENDBRANCH   1  17
TORSDOF 7
ENDMDL
MODEL 8
REMARK VINA RESULT:      -7.9      6.377     10.209
REMARK  Name = 
REMARK  8 active torsions:
REMARK  status: ('A' for Active; 'I' for Inactive)
REMARK    1  A    between atoms: C_1  and  C_2
REMARK    2  A    between atoms: C_2  and  C_3
REMARK    3  A    between atoms: C_3  and  C_4
REMARK    4  A    between atoms: C_4  and  C_5
REMARK    5  A    between atoms: C_5  and  C_6
REMARK    6  A    between atoms: C_6  and  C_7
REMARK    7  A    between atoms: C_7  and  N_8
REMARK    8  A    between atoms: N_11  and  C_12
REMARK                            x       y       z     vdW  Elec       q    Type
REMARK                         _______ _______ _______ _____ _____    ______ ____
ROOT
ATOM      1  C   UNL     1       2.336   5.767  17.760  0.00  0.00    +0.000 C 
ENDROOT
BRANCH   1   2
ATOM      2  C   UNL     1       3.150   4.546  18.235  0.00  0.00    +0.000 C 
ATOM      3  C   UNL     1       3.543   4.727  19.724  0.00  0.00    +0.000 C 
ATOM      4  O   UNL     1       2.808   4.693  20.697  0.00  0.00    +0.000 OA
ATOM      5  N   UNL     1       4.908   4.986  19.764  0.00  0.00    +0.000 N 
ATOM      6  C   UNL     1       5.484   4.940  18.498  0.00  0.00    +0.000 A 
ATOM      7  C   UNL     1       6.799   5.166  18.135  0.00  0.00    +0.000 A 
ATOM      8 CL   UNL     1       7.995   5.560  19.300  0.00  0.00    +0.000 Cl
ATOM      9  C   UNL     1       7.131   5.097  16.780  0.00  0.00    +0.000 A 
ATOM     10  C   UNL     1       6.142   4.805  15.825  0.00  0.00    +0.000 A 
ATOM     11 CL   UNL     1       6.558   4.761  14.157  0.00  0.00    +0.000 Cl
ATOM     12  C   UNL     1       4.819   4.575  16.206  0.00  0.00    +0.000 A 
ATOM     13  C   UNL     1       4.503   4.652  17.554  0.00  0.00    +0.000 A 
ATOM     14  H   UNL     1       5.407   5.178  20.622  0.00  0.00    +0.000 HD
BRANCH   2  16
ATOM     15  C   UNL     1       3.168   1.974  18.449  0.00  0.00    +0.000 C 
ATOM     16  C   UNL     1       2.441   3.212  17.939  0.00  0.00    +0.000 C 
ENDBRANCH   2  16
ENDBRANCH   1   2
BRANCH   1  17
ATOM     17  C   UNL     1       2.603   7.081  18.493  0.00  0.00    +0.000 C 
BRANCH  17  18
ATOM     18  C   UNL     1       2.427   8.278  17.553  0.00  0.00    +0.000 C 
BRANCH  18  19
ATOM     19  C   UNL     1       1.870   9.539  18.236  0.00  0.00    +0.000 C 
BRANCH  19  20
ATOM     20  N   UNL     1       0.574   9.342  18.898  0.00  0.00    +0.000 NA
ATOM     21  C   UNL     1       0.633   9.538  20.366  0.00  0.00    +0.000 C 
ATOM     22  C   UNL     1       0.846  10.991  20.845  0.00  0.00    +0.000 C 
ATOM     23  N   UNL     1      -0.129  11.883  20.204  0.00  0.00    +0.000 N 
ATOM     24  C   UNL     1      -0.256  11.755  18.742  0.00  0.00    +0.000 C 
ATOM     25  C   UNL     1      -0.446  10.271  18.349  0.00  0.00    +0.000 C 
BRANCH  23  26
ATOM     26  C   UNL     1      -0.769  12.868  20.917  0.00  0.00    +0.000 A 
ATOM     27  C   UNL     1      -0.193  13.435  22.067  0.00  0.00    +0.000 A 
ATOM     28  C   UNL     1      -0.875  14.373  22.847  0.00  0.00    +0.000 A 
ATOM     29  C   UNL     1      -2.162  14.766  22.491  0.00  0.00    +0.000 A 
ATOM     30  C   UNL     1      -2.744  14.229  21.350  0.00  0.00    +0.000 A 
ATOM     31 CL   UNL     1      -4.350  14.676  20.920  0.00  0.00    +0.000 Cl
ATOM     32  C   UNL     1      -2.054  13.302  20.565  0.00  0.00    +0.000 A 
ENDBRANCH  23  26
ENDBRANCH  19  20
ENDBRANCH  18  19
ENDBRANCH  17  18
ENDBRANCH   1  17
TORSDOF 7
ENDMDL
MODEL 9
REMARK VINA RESULT:      -7.8      6.958     10.124
REMARK  Name = 
REMARK  8 active torsions:
REMARK  status: ('A' for Active; 'I' for Inactive)
REMARK    1  A    between atoms: C_1  and  C_2
REMARK    2  A    between atoms: C_2  and  C_3
REMARK    3  A    between atoms: C_3  and  C_4
REMARK    4  A    between atoms: C_4  and  C_5
REMARK    5  A    between atoms: C_5  and  C_6
REMARK    6  A    between atoms: C_6  and  C_7
REMARK    7  A    between atoms: C_7  and  N_8
REMARK    8  A    between atoms: N_11  and  C_12
REMARK                            x       y       z     vdW  Elec       q    Type
REMARK                         _______ _______ _______ _____ _____    ______ ____
ROOT
ATOM      1  C   UNL     1       2.275   5.975  17.561  0.00  0.00    +0.000 C 
ENDROOT
BRANCH   1   2
ATOM      2  C   UNL     1       3.023   4.782  18.188  0.00  0.00    +0.000 C 
ATOM      3  C   UNL     1       3.409   5.118  19.652  0.00  0.00    +0.000 C 
ATOM      4  O   UNL     1       2.662   5.233  20.610  0.00  0.00    +0.000 OA
ATOM      5  N   UNL     1       4.784   5.316  19.683  0.00  0.00    +0.000 N 
ATOM      6  C   UNL     1       5.370   5.095  18.442  0.00  0.00    +0.000 A 
ATOM      7  C   UNL     1       6.698   5.215  18.076  0.00  0.00    +0.000 A 
ATOM      8 CL   UNL     1       7.900   5.687  19.207  0.00  0.00    +0.000 Cl
ATOM      9  C   UNL     1       7.042   4.972  16.744  0.00  0.00    +0.000 A 
ATOM     10  C   UNL     1       6.050   4.616  15.814  0.00  0.00    +0.000 A 
ATOM     11 CL   UNL     1       6.481   4.357  14.169  0.00  0.00    +0.000 Cl
ATOM     12  C   UNL     1       4.713   4.495  16.197  0.00  0.00    +0.000 A 
ATOM     13  C   UNL     1       4.387   4.744  17.521  0.00  0.00    +0.000 A 
ATOM     14  H   UNL     1       5.283   5.583  20.522  0.00  0.00    +0.000 HD
BRANCH   2  16
ATOM     15  C   UNL     1       3.029   2.215  18.461  0.00  0.00    +0.000 C 
ATOM     16  C   UNL     1       2.254   3.457  18.038  0.00  0.00    +0.000 C 
ENDBRANCH   2  16
ENDBRANCH   1   2
BRANCH   1  17
ATOM     17  C   UNL     1       2.675   7.362  18.065  0.00  0.00    +0.000 C 
BRANCH  17  18
ATOM     18  C   UNL     1       1.521   8.357  17.903  0.00  0.00    +0.000 C 
BRANCH  18  19
ATOM     19  C   UNL     1       1.933   9.830  18.057  0.00  0.00    +0.000 C 
BRANCH  19  20
ATOM     20  N   UNL     1       1.538  10.434  19.337  0.00  0.00    +0.000 NA
ATOM     21  C   UNL     1       1.185  11.870  19.220  0.00  0.00    +0.000 C 
ATOM     22  C   UNL     1      -0.132  12.182  18.474  0.00  0.00    +0.000 C 
ATOM     23  N   UNL     1      -1.230  11.383  19.032  0.00  0.00    +0.000 N 
ATOM     24  C   UNL     1      -0.966   9.943  19.185  0.00  0.00    +0.000 C 
ATOM     25  C   UNL     1       0.376   9.720  19.922  0.00  0.00    +0.000 C 
BRANCH  23  26
ATOM     26  C   UNL     1      -2.469  11.934  19.255  0.00  0.00    +0.000 A 
ATOM     27  C   UNL     1      -2.694  12.835  20.311  0.00  0.00    +0.000 A 
ATOM     28  C   UNL     1      -3.968  13.331  20.598  0.00  0.00    +0.000 A 
ATOM     29  C   UNL     1      -5.057  12.931  19.828  0.00  0.00    +0.000 A 
ATOM     30  C   UNL     1      -4.855  12.053  18.771  0.00  0.00    +0.000 A 
ATOM     31 CL   UNL     1      -6.199  11.519  17.837  0.00  0.00    +0.000 Cl
ATOM     32  C   UNL     1      -3.577  11.570  18.479  0.00  0.00    +0.000 A 
ENDBRANCH  23  26
ENDBRANCH  19  20
ENDBRANCH  18  19
ENDBRANCH  17  18
ENDBRANCH   1  17
TORSDOF 7
ENDMDL
