MODEL 1
REMARK VINA RESULT:      -7.4      0.000      0.000
REMARK  Name = 
REMARK  5 active torsions:
REMARK  status: ('A' for Active; 'I' for Inactive)
REMARK    1  A    between atoms: C_1  and  O_2
REMARK    2  A    between atoms: O_2  and  C_3
REMARK    3  A    between atoms: C_8  and  O_9
REMARK    4  A    between atoms: O_9  and  C_10
REMARK    5  A    between atoms: C_13  and  C_15
REMARK                            x       y       z     vdW  Elec       q    Type
REMARK                         _______ _______ _______ _____ _____    ______ ____
ROOT
ATOM      1  C   UNL     1      -0.228  12.619  22.117  0.00  0.00    +0.000 A 
ATOM      2  C   UNL     1      -0.356  11.230  22.255  0.00  0.00    +0.000 A 
ATOM      3  C   UNL     1       0.011  10.374  21.218  0.00  0.00    +0.000 A 
ATOM      4  C   UNL     1       0.497  10.902  20.017  0.00  0.00    +0.000 A 
ATOM      5  C   UNL     1       0.613  12.293  19.872  0.00  0.00    +0.000 A 
ATOM      6  C   UNL     1       0.275  13.162  20.919  0.00  0.00    +0.000 A 
ATOM      7  C   UNL     1       0.858   9.960  18.892  0.00  0.00    +0.000 C 
ATOM      8  N   UNL     1       1.443   8.693  19.344  0.00  0.00    +0.000 N 
ATOM      9  C   UNL     1       2.269   8.015  18.447  0.00  0.00    +0.000 C 
ATOM     10  O   UNL     1       2.490   8.475  17.322  0.00  0.00    +0.000 OA
ATOM     11  C   UNL     1       1.190   8.267  20.730  0.00  0.00    +0.000 C 
ATOM     12  C   UNL     1      -0.075   8.881  21.340  0.00  0.00    +0.000 C 
ENDROOT
BRANCH   9  13
ATOM     13  C   UNL     1       2.945   6.712  18.921  0.00  0.00    +0.000 C 
ATOM     14  C   UNL     1       3.841   6.081  17.834  0.00  0.00    +0.000 C 
ATOM     15  C   UNL     1       3.492   4.652  18.008  0.00  0.00    +0.000 A 
ATOM     16  C   UNL     1       4.038   3.528  17.413  0.00  0.00    +0.000 A 
ATOM     17  C   UNL     1       3.482   2.283  17.720  0.00  0.00    +0.000 A 
ATOM     18  C   UNL     1       2.395   2.183  18.604  0.00  0.00    +0.000 A 
ATOM     19  C   UNL     1       1.846   3.327  19.183  0.00  0.00    +0.000 A 
ATOM     20  C   UNL     1       2.414   4.544  18.864  0.00  0.00    +0.000 A 
ATOM     21  O   UNL     1       1.953   5.742  19.329  0.00  0.00    +0.000 OA
ENDBRANCH   9  13
BRANCH   1  23
ATOM     22  C   UNL     1      -1.963  13.466  23.513  0.00  0.00    +0.000 C 
ATOM     23  O   UNL     1      -0.577  13.297  23.259  0.00  0.00    +0.000 OA
ENDBRANCH   1  23
BRANCH   6  24
ATOM     24  O   UNL     1       0.437  14.518  20.852  0.00  0.00    +0.000 OA
ATOM     25  C   UNL     1      -0.599  15.294  20.270  0.00  0.00    +0.000 C 
ENDBRANCH   6  24
TORSDOF 3
ENDMDL
MODEL 2
REMARK VINA RESULT:      -7.3      0.885      1.070
REMARK  Name = 
REMARK  5 active torsions:
REMARK  status: ('A' for Active; 'I' for Inactive)
REMARK    1  A    between atoms: C_1  and  O_2
REMARK    2  A    between atoms: O_2  and  C_3
REMARK    3  A    between atoms: C_8  and  O_9
REMARK    4  A    between atoms: O_9  and  C_10
REMARK    5  A    between atoms: C_13  and  C_15
REMARK                            x       y       z     vdW  Elec       q    Type
REMARK                         _______ _______ _______ _____ _____    ______ ____
ROOT
ATOM      1  C   UNL     1      -0.915  12.494  22.488  0.00  0.00    +0.000 A 
ATOM      2  C   UNL     1      -0.751  11.103  22.563  0.00  0.00    +0.000 A 
ATOM      3  C   UNL     1      -0.359  10.370  21.444  0.00  0.00    +0.000 A 
ATOM      4  C   UNL     1      -0.142  11.021  20.225  0.00  0.00    +0.000 A 
ATOM      5  C   UNL     1      -0.319  12.411  20.144  0.00  0.00    +0.000 A 
ATOM      6  C   UNL     1      -0.683  13.162  21.270  0.00  0.00    +0.000 A 
ATOM      7  C   UNL     1       0.249  10.206  19.014  0.00  0.00    +0.000 C 
ATOM      8  N   UNL     1       1.122   9.068  19.323  0.00  0.00    +0.000 N 
ATOM      9  C   UNL     1       1.943   8.597  18.298  0.00  0.00    +0.000 C 
ATOM     10  O   UNL     1       1.926   9.125  17.182  0.00  0.00    +0.000 OA
ATOM     11  C   UNL     1       1.135   8.557  20.704  0.00  0.00    +0.000 C 
ATOM     12  C   UNL     1      -0.136   8.887  21.493  0.00  0.00    +0.000 C 
ENDROOT
BRANCH   9  13
ATOM     13  C   UNL     1       2.915   7.442  18.616  0.00  0.00    +0.000 C 
ATOM     14  C   UNL     1       3.995   7.260  17.528  0.00  0.00    +0.000 C 
ATOM     15  C   UNL     1       4.025   5.783  17.436  0.00  0.00    +0.000 A 
ATOM     16  C   UNL     1       4.875   4.957  16.720  0.00  0.00    +0.000 A 
ATOM     17  C   UNL     1       4.651   3.578  16.770  0.00  0.00    +0.000 A 
ATOM     18  C   UNL     1       3.588   3.051  17.524  0.00  0.00    +0.000 A 
ATOM     19  C   UNL     1       2.732   3.899  18.227  0.00  0.00    +0.000 A 
ATOM     20  C   UNL     1       2.974   5.256  18.162  0.00  0.00    +0.000 A 
ATOM     21  O   UNL     1       2.194   6.197  18.769  0.00  0.00    +0.000 OA
ENDBRANCH   9  13
BRANCH   1  23
ATOM     22  C   UNL     1      -2.607  13.367  23.920  0.00  0.00    +0.000 C 
ATOM     23  O   UNL     1      -1.240  13.053  23.698  0.00  0.00    +0.000 OA
ENDBRANCH   1  23
BRANCH   6  24
ATOM     24  O   UNL     1      -0.798  14.525  21.260  0.00  0.00    +0.000 OA
ATOM     25  C   UNL     1       0.381  15.300  21.099  0.00  0.00    +0.000 C 
ENDBRANCH   6  24
TORSDOF 3
ENDMDL
MODEL 3
REMARK VINA RESULT:      -7.1      1.215      1.395
REMARK  Name = 
REMARK  5 active torsions:
REMARK  status: ('A' for Active; 'I' for Inactive)
REMARK    1  A    between atoms: C_1  and  O_2
REMARK    2  A    between atoms: O_2  and  C_3
REMARK    3  A    between atoms: C_8  and  O_9
REMARK    4  A    between atoms: O_9  and  C_10
REMARK    5  A    between atoms: C_13  and  C_15
REMARK                            x       y       z     vdW  Elec       q    Type
REMARK                         _______ _______ _______ _____ _____    ______ ____
ROOT
ATOM      1  C   UNL     1       0.806  13.268  20.819  0.00  0.00    +0.000 A 
ATOM      2  C   UNL     1       0.392  11.966  21.133  0.00  0.00    +0.000 A 
ATOM      3  C   UNL     1       0.651  10.907  20.265  0.00  0.00    +0.000 A 
ATOM      4  C   UNL     1       1.317  11.141  19.058  0.00  0.00    +0.000 A 
ATOM      5  C   UNL     1       1.721  12.446  18.735  0.00  0.00    +0.000 A 
ATOM      6  C   UNL     1       1.492  13.514  19.614  0.00  0.00    +0.000 A 
ATOM      7  C   UNL     1       1.560   9.987  18.114  0.00  0.00    +0.000 C 
ATOM      8  N   UNL     1       1.844   8.717  18.792  0.00  0.00    +0.000 N 
ATOM      9  C   UNL     1       2.578   7.765  18.083  0.00  0.00    +0.000 C 
ATOM     10  O   UNL     1       2.966   7.995  16.934  0.00  0.00    +0.000 OA
ATOM     11  C   UNL     1       1.412   8.565  20.192  0.00  0.00    +0.000 C 
ATOM     12  C   UNL     1       0.258   9.494  20.582  0.00  0.00    +0.000 C 
ENDROOT
BRANCH   9  13
ATOM     13  C   UNL     1       2.942   6.447  18.797  0.00  0.00    +0.000 C 
ATOM     14  C   UNL     1       4.023   5.645  18.043  0.00  0.00    +0.000 C 
ATOM     15  C   UNL     1       3.478   4.276  18.185  0.00  0.00    +0.000 A 
ATOM     16  C   UNL     1       4.033   3.059  17.828  0.00  0.00    +0.000 A 
ATOM     17  C   UNL     1       3.274   1.903  18.030  0.00  0.00    +0.000 A 
ATOM     18  C   UNL     1       1.981   1.981  18.575  0.00  0.00    +0.000 A 
ATOM     19  C   UNL     1       1.430   3.216  18.914  0.00  0.00    +0.000 A 
ATOM     20  C   UNL     1       2.200   4.343  18.706  0.00  0.00    +0.000 A 
ATOM     21  O   UNL     1       1.771   5.613  18.957  0.00  0.00    +0.000 OA
ENDBRANCH   9  13
BRANCH   1  23
ATOM     22  C   UNL     1      -0.611  13.896  22.629  0.00  0.00    +0.000 C 
ATOM     23  O   UNL     1       0.522  14.167  21.816  0.00  0.00    +0.000 OA
ENDBRANCH   1  23
BRANCH   6  24
ATOM     24  O   UNL     1       1.929  14.789  19.378  0.00  0.00    +0.000 OA
ATOM     25  C   UNL     1       3.185  14.964  18.740  0.00  0.00    +0.000 C 
ENDBRANCH   6  24
TORSDOF 3
ENDMDL
MODEL 4
REMARK VINA RESULT:      -7.0      1.081      1.253
REMARK  Name = 
REMARK  5 active torsions:
REMARK  status: ('A' for Active; 'I' for Inactive)
REMARK    1  A    between atoms: C_1  and  O_2
REMARK    2  A    between atoms: O_2  and  C_3
REMARK    3  A    between atoms: C_8  and  O_9
REMARK    4  A    between atoms: O_9  and  C_10
REMARK    5  A    between atoms: C_13  and  C_15
REMARK                            x       y       z     vdW  Elec       q    Type
REMARK                         _______ _______ _______ _____ _____    ______ ____
ROOT
ATOM      1  C   UNL     1       0.442  13.269  21.494  0.00  0.00    +0.000 A 
ATOM      2  C   UNL     1       0.093  11.931  21.728  0.00  0.00    +0.000 A 
ATOM      3  C   UNL     1       0.372  10.945  20.782  0.00  0.00    +0.000 A 
ATOM      4  C   UNL     1       0.992  11.292  19.576  0.00  0.00    +0.000 A 
ATOM      5  C   UNL     1       1.329  12.632  19.335  0.00  0.00    +0.000 A 
ATOM      6  C   UNL     1       1.080  13.627  20.291  0.00  0.00    +0.000 A 
ATOM      7  C   UNL     1       1.257  10.216  18.549  0.00  0.00    +0.000 C 
ATOM      8  N   UNL     1       1.615   8.917  19.130  0.00  0.00    +0.000 N 
ATOM      9  C   UNL     1       2.368   8.050  18.338  0.00  0.00    +0.000 C 
ATOM     10  O   UNL     1       2.712   8.375  17.197  0.00  0.00    +0.000 OA
ATOM     11  C   UNL     1       1.232   8.652  20.526  0.00  0.00    +0.000 C 
ATOM     12  C   UNL     1       0.050   9.498  21.011  0.00  0.00    +0.000 C 
ENDROOT
BRANCH   9  13
ATOM     13  C   UNL     1       2.810   6.704  18.948  0.00  0.00    +0.000 C 
ATOM     14  C   UNL     1       3.128   5.643  17.874  0.00  0.00    +0.000 C 
ATOM     15  C   UNL     1       2.506   4.451  18.494  0.00  0.00    +0.000 A 
ATOM     16  C   UNL     1       2.536   3.126  18.094  0.00  0.00    +0.000 A 
ATOM     17  C   UNL     1       1.812   2.194  18.842  0.00  0.00    +0.000 A 
ATOM     18  C   UNL     1       1.071   2.598  19.966  0.00  0.00    +0.000 A 
ATOM     19  C   UNL     1       1.038   3.939  20.346  0.00  0.00    +0.000 A 
ATOM     20  C   UNL     1       1.762   4.840  19.591  0.00  0.00    +0.000 A 
ATOM     21  O   UNL     1       1.787   6.183  19.829  0.00  0.00    +0.000 OA
ENDBRANCH   9  13
BRANCH   1  23
ATOM     22  C   UNL     1      -1.087  13.861  23.223  0.00  0.00    +0.000 C 
ATOM     23  O   UNL     1       0.148  14.084  22.558  0.00  0.00    +0.000 OA
ENDBRANCH   1  23
BRANCH   6  24
ATOM     24  O   UNL     1       1.455  14.933  20.132  0.00  0.00    +0.000 OA
ATOM     25  C   UNL     1       2.772  15.307  20.506  0.00  0.00    +0.000 C 
ENDBRANCH   6  24
TORSDOF 3
ENDMDL
MODEL 5
REMARK VINA RESULT:      -7.0      1.941      8.666
REMARK  Name = 
REMARK  5 active torsions:
REMARK  status: ('A' for Active; 'I' for Inactive)
REMARK    1  A    between atoms: C_1  and  O_2
REMARK    2  A    between atoms: O_2  and  C_3
REMARK    3  A    between atoms: C_8  and  O_9
REMARK    4  A    between atoms: O_9  and  C_10
REMARK    5  A    between atoms: C_13  and  C_15
REMARK                            x       y       z     vdW  Elec       q    Type
REMARK                         _______ _______ _______ _____ _____    ______ ____
ROOT
ATOM      1  C   UNL     1       1.630   3.872  19.734  0.00  0.00    +0.000 A 
ATOM      2  C   UNL     1       1.616   4.929  20.656  0.00  0.00    +0.000 A 
ATOM      3  C   UNL     1       1.869   6.237  20.245  0.00  0.00    +0.000 A 
ATOM      4  C   UNL     1       2.158   6.503  18.902  0.00  0.00    +0.000 A 
ATOM      5  C   UNL     1       2.186   5.444  17.981  0.00  0.00    +0.000 A 
ATOM      6  C   UNL     1       1.903   4.130  18.377  0.00  0.00    +0.000 A 
ATOM      7  C   UNL     1       2.462   7.921  18.481  0.00  0.00    +0.000 C 
ATOM      8  N   UNL     1       1.687   8.934  19.205  0.00  0.00    +0.000 N 
ATOM      9  C   UNL     1       1.487  10.160  18.570  0.00  0.00    +0.000 C 
ATOM     10  O   UNL     1       1.950  10.370  17.445  0.00  0.00    +0.000 OA
ATOM     11  C   UNL     1       1.104   8.564  20.506  0.00  0.00    +0.000 C 
ATOM     12  C   UNL     1       1.826   7.399  21.193  0.00  0.00    +0.000 C 
ENDROOT
BRANCH   9  13
ATOM     13  C   UNL     1       0.622  11.219  19.284  0.00  0.00    +0.000 C 
ATOM     14  C   UNL     1       0.028  12.255  18.308  0.00  0.00    +0.000 C 
ATOM     15  C   UNL     1       0.221  13.495  19.095  0.00  0.00    +0.000 A 
ATOM     16  C   UNL     1      -0.208  14.785  18.836  0.00  0.00    +0.000 A 
ATOM     17  C   UNL     1       0.158  15.794  19.731  0.00  0.00    +0.000 A 
ATOM     18  C   UNL     1       0.945  15.501  20.859  0.00  0.00    +0.000 A 
ATOM     19  C   UNL     1       1.382  14.198  21.096  0.00  0.00    +0.000 A 
ATOM     20  C   UNL     1       1.007  13.220  20.198  0.00  0.00    +0.000 A 
ATOM     21  O   UNL     1       1.395  11.915  20.290  0.00  0.00    +0.000 OA
ENDBRANCH   9  13
BRANCH   1  23
ATOM     22  C   UNL     1       1.498   2.541  21.705  0.00  0.00    +0.000 C 
ATOM     23  O   UNL     1       1.297   2.670  20.305  0.00  0.00    +0.000 OA
ENDBRANCH   1  23
BRANCH   6  24
ATOM     24  O   UNL     1       1.848   3.077  17.505  0.00  0.00    +0.000 OA
ATOM     25  C   UNL     1       2.925   2.153  17.494  0.00  0.00    +0.000 C 
ENDBRANCH   6  24
TORSDOF 3
ENDMDL
MODEL 6
REMARK VINA RESULT:      -6.9      0.991      1.150
REMARK  Name = 
REMARK  5 active torsions:
REMARK  status: ('A' for Active; 'I' for Inactive)
REMARK    1  A    between atoms: C_1  and  O_2
REMARK    2  A    between atoms: O_2  and  C_3
REMARK    3  A    between atoms: C_8  and  O_9
REMARK    4  A    between atoms: O_9  and  C_10
REMARK    5  A    between atoms: C_13  and  C_15
REMARK                            x       y       z     vdW  Elec       q    Type
REMARK                         _______ _______ _______ _____ _____    ______ ____
ROOT
ATOM      1  C   UNL     1      -0.510  13.337  22.385  0.00  0.00    +0.000 A 
ATOM      2  C   UNL     1      -0.611  11.979  22.720  0.00  0.00    +0.000 A 
ATOM      3  C   UNL     1      -0.324  10.989  21.781  0.00  0.00    +0.000 A 
ATOM      4  C   UNL     1       0.054  11.349  20.483  0.00  0.00    +0.000 A 
ATOM      5  C   UNL     1       0.143  12.707  20.142  0.00  0.00    +0.000 A 
ATOM      6  C   UNL     1      -0.114  13.710  21.086  0.00  0.00    +0.000 A 
ATOM      7  C   UNL     1       0.329  10.263  19.468  0.00  0.00    +0.000 C 
ATOM      8  N   UNL     1       0.962   9.068  20.037  0.00  0.00    +0.000 N 
ATOM      9  C   UNL     1       1.717   8.273  19.173  0.00  0.00    +0.000 C 
ATOM     10  O   UNL     1       1.838   8.575  17.982  0.00  0.00    +0.000 OA
ATOM     11  C   UNL     1       0.831   8.834  21.485  0.00  0.00    +0.000 C 
ATOM     12  C   UNL     1      -0.384   9.527  22.111  0.00  0.00    +0.000 C 
ENDROOT
BRANCH   9  13
ATOM     13  C   UNL     1       2.444   7.046  19.760  0.00  0.00    +0.000 C 
ATOM     14  C   UNL     1       3.109   6.176  18.674  0.00  0.00    +0.000 C 
ATOM     15  C   UNL     1       2.771   4.826  19.178  0.00  0.00    +0.000 A 
ATOM     16  C   UNL     1       3.175   3.583  18.722  0.00  0.00    +0.000 A 
ATOM     17  C   UNL     1       2.661   2.448  19.357  0.00  0.00    +0.000 A 
ATOM     18  C   UNL     1       1.755   2.573  20.424  0.00  0.00    +0.000 A 
ATOM     19  C   UNL     1       1.346   3.833  20.860  0.00  0.00    +0.000 A 
ATOM     20  C   UNL     1       1.868   4.937  20.218  0.00  0.00    +0.000 A 
ATOM     21  O   UNL     1       1.526   6.223  20.518  0.00  0.00    +0.000 OA
ENDBRANCH   9  13
BRANCH   1  23
ATOM     22  C   UNL     1      -2.105  14.208  23.925  0.00  0.00    +0.000 C 
ATOM     23  O   UNL     1      -0.767  14.163  23.450  0.00  0.00    +0.000 OA
ENDBRANCH   1  23
BRANCH   6  24
ATOM     24  O   UNL     1       0.028  15.045  20.823  0.00  0.00    +0.000 OA
ATOM     25  C   UNL     1      -1.010  15.708  20.118  0.00  0.00    +0.000 C 
ENDBRANCH   6  24
TORSDOF 3
ENDMDL
MODEL 7
REMARK VINA RESULT:      -6.9      2.642      8.785
REMARK  Name = 
REMARK  5 active torsions:
REMARK  status: ('A' for Active; 'I' for Inactive)
REMARK    1  A    between atoms: C_1  and  O_2
REMARK    2  A    between atoms: O_2  and  C_3
REMARK    3  A    between atoms: C_8  and  O_9
REMARK    4  A    between atoms: O_9  and  C_10
REMARK    5  A    between atoms: C_13  and  C_15
REMARK                            x       y       z     vdW  Elec       q    Type
REMARK                         _______ _______ _______ _____ _____    ______ ____
ROOT
ATOM      1  C   UNL     1       5.803   5.842  17.267  0.00  0.00    +0.000 A 
ATOM      2  C   UNL     1       4.763   6.650  16.785  0.00  0.00    +0.000 A 
ATOM      3  C   UNL     1       3.680   6.978  17.598  0.00  0.00    +0.000 A 
ATOM      4  C   UNL     1       3.613   6.484  18.905  0.00  0.00    +0.000 A 
ATOM      5  C   UNL     1       4.646   5.664  19.385  0.00  0.00    +0.000 A 
ATOM      6  C   UNL     1       5.755   5.352  18.587  0.00  0.00    +0.000 A 
ATOM      7  C   UNL     1       2.415   6.822  19.761  0.00  0.00    +0.000 C 
ATOM      8  N   UNL     1       1.887   8.172  19.534  0.00  0.00    +0.000 N 
ATOM      9  C   UNL     1       1.176   8.764  20.579  0.00  0.00    +0.000 C 
ATOM     10  O   UNL     1       1.006   8.163  21.645  0.00  0.00    +0.000 OA
ATOM     11  C   UNL     1       2.213   8.841  18.263  0.00  0.00    +0.000 C 
ATOM     12  C   UNL     1       2.567   7.871  17.132  0.00  0.00    +0.000 C 
ENDROOT
BRANCH   9  13
ATOM     13  C   UNL     1       0.666  10.206  20.389  0.00  0.00    +0.000 C 
ATOM     14  C   UNL     1       0.109  10.814  21.693  0.00  0.00    +0.000 C 
ATOM     15  C   UNL     1      -1.092  11.503  21.167  0.00  0.00    +0.000 A 
ATOM     16  C   UNL     1      -1.981  12.349  21.808  0.00  0.00    +0.000 A 
ATOM     17  C   UNL     1      -3.074  12.830  21.082  0.00  0.00    +0.000 A 
ATOM     18  C   UNL     1      -3.263  12.458  19.740  0.00  0.00    +0.000 A 
ATOM     19  C   UNL     1      -2.367  11.592  19.114  0.00  0.00    +0.000 A 
ATOM     20  C   UNL     1      -1.295  11.131  19.852  0.00  0.00    +0.000 A 
ATOM     21  O   UNL     1      -0.366  10.252  19.375  0.00  0.00    +0.000 OA
ENDBRANCH   9  13
BRANCH   1  23
ATOM     22  C   UNL     1       6.533   4.869  15.219  0.00  0.00    +0.000 C 
ATOM     23  O   UNL     1       6.812   5.678  16.352  0.00  0.00    +0.000 OA
ENDBRANCH   1  23
BRANCH   6  24
ATOM     24  O   UNL     1       6.819   4.617  19.032  0.00  0.00    +0.000 OA
ATOM     25  C   UNL     1       7.941   5.307  19.564  0.00  0.00    +0.000 C 
ENDBRANCH   6  24
TORSDOF 3
ENDMDL
MODEL 8
REMARK VINA RESULT:      -6.8      1.473      2.975
REMARK  Name = 
REMARK  5 active torsions:
REMARK  status: ('A' for Active; 'I' for Inactive)
REMARK    1  A    between atoms: C_1  and  O_2
REMARK    2  A    between atoms: O_2  and  C_3
REMARK    3  A    between atoms: C_8  and  O_9
REMARK    4  A    between atoms: O_9  and  C_10
REMARK    5  A    between atoms: C_13  and  C_15
REMARK                            x       y       z     vdW  Elec       q    Type
REMARK                         _______ _______ _______ _____ _____    ______ ____
ROOT
ATOM      1  C   UNL     1      -1.485  12.896  20.659  0.00  0.00    +0.000 A 
ATOM      2  C   UNL     1      -0.463  12.684  19.723  0.00  0.00    +0.000 A 
ATOM      3  C   UNL     1       0.361  11.563  19.808  0.00  0.00    +0.000 A 
ATOM      4  C   UNL     1       0.182  10.643  20.847  0.00  0.00    +0.000 A 
ATOM      5  C   UNL     1      -0.832  10.860  21.792  0.00  0.00    +0.000 A 
ATOM      6  C   UNL     1      -1.686  11.968  21.699  0.00  0.00    +0.000 A 
ATOM      7  C   UNL     1       1.105   9.451  20.942  0.00  0.00    +0.000 C 
ATOM      8  N   UNL     1       1.512   8.910  19.641  0.00  0.00    +0.000 N 
ATOM      9  C   UNL     1       1.892   7.568  19.597  0.00  0.00    +0.000 C 
ATOM     10  O   UNL     1       1.881   6.876  20.620  0.00  0.00    +0.000 OA
ATOM     11  C   UNL     1       1.413   9.788  18.462  0.00  0.00    +0.000 C 
ATOM     12  C   UNL     1       1.441  11.281  18.805  0.00  0.00    +0.000 C 
ENDROOT
BRANCH   9  13
ATOM     13  C   UNL     1       2.264   6.960  18.229  0.00  0.00    +0.000 C 
ATOM     14  C   UNL     1       2.288   5.418  18.254  0.00  0.00    +0.000 C 
ATOM     15  C   UNL     1       3.505   5.164  17.449  0.00  0.00    +0.000 A 
ATOM     16  C   UNL     1       4.030   3.969  16.989  0.00  0.00    +0.000 A 
ATOM     17  C   UNL     1       5.236   4.006  16.283  0.00  0.00    +0.000 A 
ATOM     18  C   UNL     1       5.895   5.226  16.055  0.00  0.00    +0.000 A 
ATOM     19  C   UNL     1       5.361   6.420  16.540  0.00  0.00    +0.000 A 
ATOM     20  C   UNL     1       4.169   6.356  17.234  0.00  0.00    +0.000 A 
ATOM     21  O   UNL     1       3.557   7.440  17.793  0.00  0.00    +0.000 OA
ENDBRANCH   9  13
BRANCH   1  23
ATOM     22  C   UNL     1      -1.614  15.274  20.595  0.00  0.00    +0.000 C 
ATOM     23  O   UNL     1      -2.232  14.013  20.381  0.00  0.00    +0.000 OA
ENDBRANCH   1  23
BRANCH   6  24
ATOM     24  O   UNL     1      -2.732  12.185  22.553  0.00  0.00    +0.000 OA
ATOM     25  C   UNL     1      -2.538  13.067  23.649  0.00  0.00    +0.000 C 
ENDBRANCH   6  24
TORSDOF 3
ENDMDL
MODEL 9
REMARK VINA RESULT:      -6.8      2.238      8.883
REMARK  Name = 
REMARK  5 active torsions:
REMARK  status: ('A' for Active; 'I' for Inactive)
REMARK    1  A    between atoms: C_1  and  O_2
REMARK    2  A    between atoms: O_2  and  C_3
REMARK    3  A    between atoms: C_8  and  O_9
REMARK    4  A    between atoms: O_9  and  C_10
REMARK    5  A    between atoms: C_13  and  C_15
REMARK                            x       y       z     vdW  Elec       q    Type
REMARK                         _______ _______ _______ _____ _____    ______ ____
ROOT
ATOM      1  C   UNL     1       4.855   5.881  17.835  0.00  0.00    +0.000 A 
ATOM      2  C   UNL     1       4.066   6.974  17.450  0.00  0.00    +0.000 A 
ATOM      3  C   UNL     1       2.939   7.334  18.186  0.00  0.00    +0.000 A 
ATOM      4  C   UNL     1       2.576   6.590  19.314  0.00  0.00    +0.000 A 
ATOM      5  C   UNL     1       3.357   5.488  19.694  0.00  0.00    +0.000 A 
ATOM      6  C   UNL     1       4.509   5.135  18.978  0.00  0.00    +0.000 A 
ATOM      7  C   UNL     1       1.332   6.975  20.082  0.00  0.00    +0.000 C 
ATOM      8  N   UNL     1       1.093   8.421  20.136  0.00  0.00    +0.000 N 
ATOM      9  C   UNL     1       0.336   8.904  21.204  0.00  0.00    +0.000 C 
ATOM     10  O   UNL     1      -0.108   8.133  22.061  0.00  0.00    +0.000 OA
ATOM     11  C   UNL     1       1.732   9.270  19.116  0.00  0.00    +0.000 C 
ATOM     12  C   UNL     1       2.090   8.519  17.829  0.00  0.00    +0.000 C 
ENDROOT
BRANCH   9  13
ATOM     13  C   UNL     1       0.124  10.427  21.318  0.00  0.00    +0.000 C 
ATOM     14  C   UNL     1      -0.417  10.848  22.700  0.00  0.00    +0.000 C 
ATOM     15  C   UNL     1      -1.418  11.860  22.291  0.00  0.00    +0.000 A 
ATOM     16  C   UNL     1      -2.183  12.714  23.066  0.00  0.00    +0.000 A 
ATOM     17  C   UNL     1      -3.101  13.547  22.421  0.00  0.00    +0.000 A 
ATOM     18  C   UNL     1      -3.242  13.510  21.023  0.00  0.00    +0.000 A 
ATOM     19  C   UNL     1      -2.475  12.632  20.258  0.00  0.00    +0.000 A 
ATOM     20  C   UNL     1      -1.576  11.820  20.919  0.00  0.00    +0.000 A 
ATOM     21  O   UNL     1      -0.792  10.892  20.298  0.00  0.00    +0.000 OA
ENDBRANCH   9  13
BRANCH   1  23
ATOM     22  C   UNL     1       5.718   5.432  15.660  0.00  0.00    +0.000 C 
ATOM     23  O   UNL     1       5.955   5.716  17.031  0.00  0.00    +0.000 OA
ENDBRANCH   1  23
BRANCH   6  24
ATOM     24  O   UNL     1       5.342   4.115  19.349  0.00  0.00    +0.000 OA
ATOM     25  C   UNL     1       4.789   2.817  19.507  0.00  0.00    +0.000 C 
ENDBRANCH   6  24
TORSDOF 3
ENDMDL
