MODEL 1
REMARK VINA RESULT:      -7.1      0.000      0.000
REMARK  Name = 
REMARK  3 active torsions:
REMARK  status: ('A' for Active; 'I' for Inactive)
REMARK    1  A    between atoms: C_2  and  O_3
REMARK    2  A    between atoms: C_2  and  C_4
REMARK    3  A    between atoms: N_6  and  C_7
REMARK                            x       y       z     vdW  Elec       q    Type
REMARK                         _______ _______ _______ _____ _____    ______ ____
ROOT
ATOM      1  C   UNL     1       5.195   4.862  16.854  0.00  0.00    +0.000 A 
ATOM      2  C   UNL     1       4.764   4.376  18.027  0.00  0.00    +0.000 A 
ATOM      3  N   UNL     1       4.003   5.066  18.952  0.00  0.00    +0.000 N 
ATOM      4  C   UNL     1       3.507   6.369  18.647  0.00  0.00    +0.000 A 
ATOM      5  N   UNL     1       2.670   7.009  19.509  0.00  0.00    +0.000 NA
ATOM      6  C   UNL     1       2.175   8.232  19.192  0.00  0.00    +0.000 A 
ATOM      7  N   UNL     1       1.344   8.859  20.099  0.00  0.00    +0.000 N 
ATOM      8  C   UNL     1       0.260   9.749  19.643  0.00  0.00    +0.000 C 
ATOM      9  C   UNL     1      -0.746   9.648  20.799  0.00  0.00    +0.000 C 
ATOM     10  C   UNL     1      -0.629   8.177  21.181  0.00  0.00    +0.000 C 
ATOM     11  C   UNL     1       0.894   8.186  21.337  0.00  0.00    +0.000 C 
ATOM     12  C   UNL     1       1.158   9.145  22.509  0.00  0.00    +0.000 C 
ATOM     13  S   UNL     1      -0.025  10.554  22.251  0.00  0.00    +0.000 S 
ATOM     14  O   UNL     1      -1.091  10.484  23.404  0.00  0.00    +0.000 OA
ATOM     15  C   UNL     1       2.544   8.847  17.986  0.00  0.00    +0.000 A 
ATOM     16  F   UNL     1       2.084  10.064  17.654  0.00  0.00    +0.000 F 
ATOM     17  C   UNL     1       3.404   8.216  17.102  0.00  0.00    +0.000 A 
ATOM     18  C   UNL     1       3.889   6.959  17.438  0.00  0.00    +0.000 A 
ATOM     19  C   UNL     1       4.788   6.240  16.514  0.00  0.00    +0.000 A 
ATOM     20  O   UNL     1       5.178   6.760  15.471  0.00  0.00    +0.000 OA
ENDROOT
BRANCH   3  21
ATOM     21  C   UNL     1       3.573   4.406  20.198  0.00  0.00    +0.000 C 
ATOM     22  C   UNL     1       2.283   3.637  20.357  0.00  0.00    +0.000 C 
ATOM     23  C   UNL     1       3.585   2.901  20.301  0.00  0.00    +0.000 C 
ENDBRANCH   3  21
BRANCH   1  25
ATOM     24  O   UNL     1       5.622   3.000  15.436  0.00  0.00    +0.000 OA
ATOM     25  C   UNL     1       6.034   4.014  15.980  0.00  0.00    +0.000 C 
BRANCH  25  26
ATOM     26  O   UNL     1       7.302   4.450  15.825  0.00  0.00    +0.000 OA
ATOM     27  H   UNL     1       7.384   5.419  15.647  0.00  0.00    +0.000 HD
ENDBRANCH  25  26
ENDBRANCH   1  25
TORSDOF 3
ENDMDL
MODEL 2
REMARK VINA RESULT:      -6.7      1.100      1.264
REMARK  Name = 
REMARK  3 active torsions:
REMARK  status: ('A' for Active; 'I' for Inactive)
REMARK    1  A    between atoms: C_2  and  O_3
REMARK    2  A    between atoms: C_2  and  C_4
REMARK    3  A    between atoms: N_6  and  C_7
REMARK                            x       y       z     vdW  Elec       q    Type
REMARK                         _______ _______ _______ _____ _____    ______ ____
ROOT
ATOM      1  C   UNL     1       4.141   4.091  17.738  0.00  0.00    +0.000 A 
ATOM      2  C   UNL     1       3.487   3.880  18.889  0.00  0.00    +0.000 A 
ATOM      3  N   UNL     1       2.841   4.847  19.636  0.00  0.00    +0.000 N 
ATOM      4  C   UNL     1       2.729   6.181  19.143  0.00  0.00    +0.000 A 
ATOM      5  N   UNL     1       2.004   7.111  19.824  0.00  0.00    +0.000 NA
ATOM      6  C   UNL     1       1.873   8.367  19.326  0.00  0.00    +0.000 A 
ATOM      7  N   UNL     1       1.147   9.289  20.053  0.00  0.00    +0.000 N 
ATOM      8  C   UNL     1       0.379  10.350  19.377  0.00  0.00    +0.000 C 
ATOM      9  C   UNL     1      -0.728  10.647  20.400  0.00  0.00    +0.000 C 
ATOM     10  C   UNL     1      -1.031   9.254  20.938  0.00  0.00    +0.000 C 
ATOM     11  C   UNL     1       0.420   8.911  21.285  0.00  0.00    +0.000 C 
ATOM     12  C   UNL     1       0.806   9.919  22.379  0.00  0.00    +0.000 C 
ATOM     13  S   UNL     1       0.056  11.528  21.834  0.00  0.00    +0.000 S 
ATOM     14  O   UNL     1      -1.100  11.869  22.844  0.00  0.00    +0.000 OA
ATOM     15  C   UNL     1       2.505   8.714  18.121  0.00  0.00    +0.000 A 
ATOM     16  F   UNL     1       2.408   9.954  17.615  0.00  0.00    +0.000 F 
ATOM     17  C   UNL     1       3.256   7.785  17.421  0.00  0.00    +0.000 A 
ATOM     18  C   UNL     1       3.366   6.501  17.940  0.00  0.00    +0.000 A 
ATOM     19  C   UNL     1       4.137   5.472  17.214  0.00  0.00    +0.000 A 
ATOM     20  O   UNL     1       4.748   5.743  16.182  0.00  0.00    +0.000 OA
ENDROOT
BRANCH   3  21
ATOM     21  C   UNL     1       2.136   4.478  20.877  0.00  0.00    +0.000 C 
ATOM     22  C   UNL     1       1.077   3.406  20.971  0.00  0.00    +0.000 C 
ATOM     23  C   UNL     1       2.434   3.163  21.554  0.00  0.00    +0.000 C 
ENDBRANCH   3  21
BRANCH   1  25
ATOM     24  O   UNL     1       4.427   1.804  17.151  0.00  0.00    +0.000 OA
ATOM     25  C   UNL     1       4.815   2.960  17.066  0.00  0.00    +0.000 C 
BRANCH  25  26
ATOM     26  O   UNL     1       5.902   3.303  16.344  0.00  0.00    +0.000 OA
ATOM     27  H   UNL     1       5.791   4.120  15.798  0.00  0.00    +0.000 HD
ENDBRANCH  25  26
ENDBRANCH   1  25
TORSDOF 3
ENDMDL
MODEL 3
REMARK VINA RESULT:      -6.5      2.790      4.099
REMARK  Name = 
REMARK  3 active torsions:
REMARK  status: ('A' for Active; 'I' for Inactive)
REMARK    1  A    between atoms: C_2  and  O_3
REMARK    2  A    between atoms: C_2  and  C_4
REMARK    3  A    between atoms: N_6  and  C_7
REMARK                            x       y       z     vdW  Elec       q    Type
REMARK                         _______ _______ _______ _____ _____    ______ ____
ROOT
ATOM      1  C   UNL     1       3.755   3.953  19.433  0.00  0.00    +0.000 A 
ATOM      2  C   UNL     1       4.134   4.802  18.467  0.00  0.00    +0.000 A 
ATOM      3  N   UNL     1       3.610   6.063  18.254  0.00  0.00    +0.000 N 
ATOM      4  C   UNL     1       2.661   6.612  19.167  0.00  0.00    +0.000 A 
ATOM      5  N   UNL     1       2.222   7.893  19.021  0.00  0.00    +0.000 NA
ATOM      6  C   UNL     1       1.347   8.416  19.917  0.00  0.00    +0.000 A 
ATOM      7  N   UNL     1       0.909   9.711  19.726  0.00  0.00    +0.000 N 
ATOM      8  C   UNL     1       0.579  10.575  20.875  0.00  0.00    +0.000 C 
ATOM      9  C   UNL     1       0.821  11.980  20.301  0.00  0.00    +0.000 C 
ATOM     10  C   UNL     1       2.048  11.746  19.427  0.00  0.00    +0.000 C 
ATOM     11  C   UNL     1       1.454  10.567  18.650  0.00  0.00    +0.000 C 
ATOM     12  C   UNL     1       0.263  11.167  17.886  0.00  0.00    +0.000 C 
ATOM     13  S   UNL     1      -0.540  12.332  19.089  0.00  0.00    +0.000 S 
ATOM     14  O   UNL     1      -0.304  13.791  18.553  0.00  0.00    +0.000 OA
ATOM     15  C   UNL     1       0.878   7.630  20.981  0.00  0.00    +0.000 A 
ATOM     16  F   UNL     1      -0.001   8.116  21.872  0.00  0.00    +0.000 F 
ATOM     17  C   UNL     1       1.305   6.322  21.139  0.00  0.00    +0.000 A 
ATOM     18  C   UNL     1       2.210   5.809  20.219  0.00  0.00    +0.000 A 
ATOM     19  C   UNL     1       2.710   4.427  20.364  0.00  0.00    +0.000 A 
ATOM     20  O   UNL     1       2.290   3.686  21.249  0.00  0.00    +0.000 OA
ENDROOT
BRANCH   3  21
ATOM     21  C   UNL     1       4.135   6.910  17.167  0.00  0.00    +0.000 C 
ATOM     22  C   UNL     1       5.580   7.322  17.026  0.00  0.00    +0.000 C 
ATOM     23  C   UNL     1       5.002   6.308  16.089  0.00  0.00    +0.000 C 
ENDBRANCH   3  21
BRANCH   1  25
ATOM     24  O   UNL     1       5.107   2.277  20.442  0.00  0.00    +0.000 OA
ATOM     25  C   UNL     1       4.385   2.619  19.517  0.00  0.00    +0.000 C 
BRANCH  25  26
ATOM     26  O   UNL     1       4.100   1.798  18.484  0.00  0.00    +0.000 OA
ATOM     27  H   UNL     1       4.178   2.218  17.593  0.00  0.00    +0.000 HD
ENDBRANCH  25  26
ENDBRANCH   1  25
TORSDOF 3
ENDMDL
MODEL 4
REMARK VINA RESULT:      -6.4      3.393      7.107
REMARK  Name = 
REMARK  3 active torsions:
REMARK  status: ('A' for Active; 'I' for Inactive)
REMARK    1  A    between atoms: C_2  and  O_3
REMARK    2  A    between atoms: C_2  and  C_4
REMARK    3  A    between atoms: N_6  and  C_7
REMARK                            x       y       z     vdW  Elec       q    Type
REMARK                         _______ _______ _______ _____ _____    ______ ____
ROOT
ATOM      1  C   UNL     1       0.879  12.269  19.857  0.00  0.00    +0.000 A 
ATOM      2  C   UNL     1       0.356  11.495  20.820  0.00  0.00    +0.000 A 
ATOM      3  N   UNL     1       0.415  10.115  20.863  0.00  0.00    +0.000 N 
ATOM      4  C   UNL     1       1.175   9.397  19.893  0.00  0.00    +0.000 A 
ATOM      5  N   UNL     1       1.324   8.047  19.993  0.00  0.00    +0.000 NA
ATOM      6  C   UNL     1       2.080   7.378  19.086  0.00  0.00    +0.000 A 
ATOM      7  N   UNL     1       2.193   6.008  19.207  0.00  0.00    +0.000 N 
ATOM      8  C   UNL     1       3.426   5.311  18.798  0.00  0.00    +0.000 C 
ATOM      9  C   UNL     1       3.397   4.058  19.686  0.00  0.00    +0.000 C 
ATOM     10  C   UNL     1       2.841   4.619  20.990  0.00  0.00    +0.000 C 
ATOM     11  C   UNL     1       1.613   5.278  20.355  0.00  0.00    +0.000 C 
ATOM     12  C   UNL     1       0.791   4.107  19.794  0.00  0.00    +0.000 C 
ATOM     13  S   UNL     1       2.045   2.954  19.054  0.00  0.00    +0.000 S 
ATOM     14  O   UNL     1       2.067   1.656  19.942  0.00  0.00    +0.000 OA
ATOM     15  C   UNL     1       2.690   8.076  18.031  0.00  0.00    +0.000 A 
ATOM     16  F   UNL     1       3.429   7.438  17.108  0.00  0.00    +0.000 F 
ATOM     17  C   UNL     1       2.540   9.447  17.907  0.00  0.00    +0.000 A 
ATOM     18  C   UNL     1       1.774  10.115  18.853  0.00  0.00    +0.000 A 
ATOM     19  C   UNL     1       1.608  11.579  18.773  0.00  0.00    +0.000 A 
ATOM     20  O   UNL     1       2.081  12.225  17.840  0.00  0.00    +0.000 OA
ENDROOT
BRANCH   3  21
ATOM     21  C   UNL     1      -0.183   9.382  21.995  0.00  0.00    +0.000 C 
ATOM     22  C   UNL     1       0.366   9.386  23.401  0.00  0.00    +0.000 C 
ATOM     23  C   UNL     1      -0.893  10.135  23.093  0.00  0.00    +0.000 C 
ENDBRANCH   3  21
BRANCH   1  25
ATOM     24  O   UNL     1       0.869  14.379  20.954  0.00  0.00    +0.000 OA
ATOM     25  C   UNL     1       0.707  13.735  19.928  0.00  0.00    +0.000 C 
BRANCH  25  26
ATOM     26  O   UNL     1       0.353  14.315  18.762  0.00  0.00    +0.000 OA
ATOM     27  H   UNL     1       1.104  14.480  18.141  0.00  0.00    +0.000 HD
ENDBRANCH  25  26
ENDBRANCH   1  25
TORSDOF 3
ENDMDL
MODEL 5
REMARK VINA RESULT:      -6.1      6.467      8.744
REMARK  Name = 
REMARK  3 active torsions:
REMARK  status: ('A' for Active; 'I' for Inactive)
REMARK    1  A    between atoms: C_2  and  O_3
REMARK    2  A    between atoms: C_2  and  C_4
REMARK    3  A    between atoms: N_6  and  C_7
REMARK                            x       y       z     vdW  Elec       q    Type
REMARK                         _______ _______ _______ _____ _____    ______ ____
ROOT
ATOM      1  C   UNL     1      -3.338  10.753  16.097  0.00  0.00    +0.000 A 
ATOM      2  C   UNL     1      -2.203  10.709  16.811  0.00  0.00    +0.000 A 
ATOM      3  N   UNL     1      -2.018  11.264  18.062  0.00  0.00    +0.000 N 
ATOM      4  C   UNL     1      -3.116  11.853  18.757  0.00  0.00    +0.000 A 
ATOM      5  N   UNL     1      -2.964  12.307  20.033  0.00  0.00    +0.000 NA
ATOM      6  C   UNL     1      -4.025  12.831  20.697  0.00  0.00    +0.000 A 
ATOM      7  N   UNL     1      -3.829  13.298  21.981  0.00  0.00    +0.000 N 
ATOM      8  C   UNL     1      -4.905  13.222  22.987  0.00  0.00    +0.000 C 
ATOM      9  C   UNL     1      -4.113  13.173  24.302  0.00  0.00    +0.000 C 
ATOM     10  C   UNL     1      -2.921  12.307  23.911  0.00  0.00    +0.000 C 
ATOM     11  C   UNL     1      -2.536  13.134  22.681  0.00  0.00    +0.000 C 
ATOM     12  C   UNL     1      -2.136  14.506  23.245  0.00  0.00    +0.000 C 
ATOM     13  S   UNL     1      -3.381  14.857  24.578  0.00  0.00    +0.000 S 
ATOM     14  O   UNL     1      -2.620  14.800  25.953  0.00  0.00    +0.000 OA
ATOM     15  C   UNL     1      -5.273  12.927  20.062  0.00  0.00    +0.000 A 
ATOM     16  F   UNL     1      -6.335  13.458  20.689  0.00  0.00    +0.000 F 
ATOM     17  C   UNL     1      -5.444  12.482  18.762  0.00  0.00    +0.000 A 
ATOM     18  C   UNL     1      -4.349  11.936  18.103  0.00  0.00    +0.000 A 
ATOM     19  C   UNL     1      -4.493  11.427  16.725  0.00  0.00    +0.000 A 
ATOM     20  O   UNL     1      -5.552  11.536  16.112  0.00  0.00    +0.000 OA
ENDROOT
BRANCH   3  21
ATOM     21  C   UNL     1      -0.723  11.123  18.753  0.00  0.00    +0.000 C 
ATOM     22  C   UNL     1      -0.385  10.011  19.715  0.00  0.00    +0.000 C 
ATOM     23  C   UNL     1       0.233  10.026  18.352  0.00  0.00    +0.000 C 
ENDBRANCH   3  21
BRANCH   1  25
ATOM     24  O   UNL     1      -2.378   9.966  14.068  0.00  0.00    +0.000 OA
ATOM     25  C   UNL     1      -3.376  10.141  14.753  0.00  0.00    +0.000 C 
BRANCH  25  26
ATOM     26  O   UNL     1      -4.608   9.784  14.333  0.00  0.00    +0.000 OA
ATOM     27  H   UNL     1      -5.325   9.923  15.000  0.00  0.00    +0.000 HD
ENDBRANCH  25  26
ENDBRANCH   1  25
TORSDOF 3
ENDMDL
MODEL 6
REMARK VINA RESULT:      -6.1      5.201      8.072
REMARK  Name = 
REMARK  3 active torsions:
REMARK  status: ('A' for Active; 'I' for Inactive)
REMARK    1  A    between atoms: C_2  and  O_3
REMARK    2  A    between atoms: C_2  and  C_4
REMARK    3  A    between atoms: N_6  and  C_7
REMARK                            x       y       z     vdW  Elec       q    Type
REMARK                         _______ _______ _______ _____ _____    ______ ____
ROOT
ATOM      1  C   UNL     1       0.467   9.978  19.012  0.00  0.00    +0.000 A 
ATOM      2  C   UNL     1      -0.500  10.379  18.173  0.00  0.00    +0.000 A 
ATOM      3  N   UNL     1      -1.632  11.086  18.530  0.00  0.00    +0.000 N 
ATOM      4  C   UNL     1      -1.795  11.555  19.868  0.00  0.00    +0.000 A 
ATOM      5  N   UNL     1      -2.855  12.342  20.200  0.00  0.00    +0.000 NA
ATOM      6  C   UNL     1      -2.980  12.814  21.467  0.00  0.00    +0.000 A 
ATOM      7  N   UNL     1      -4.078  13.593  21.772  0.00  0.00    +0.000 N 
ATOM      8  C   UNL     1      -3.988  14.667  22.779  0.00  0.00    +0.000 C 
ATOM      9  C   UNL     1      -5.090  15.632  22.317  0.00  0.00    +0.000 C 
ATOM     10  C   UNL     1      -4.962  15.544  20.801  0.00  0.00    +0.000 C 
ATOM     11  C   UNL     1      -5.045  14.016  20.735  0.00  0.00    +0.000 C 
ATOM     12  C   UNL     1      -6.454  13.682  21.251  0.00  0.00    +0.000 C 
ATOM     13  S   UNL     1      -6.725  14.833  22.683  0.00  0.00    +0.000 S 
ATOM     14  O   UNL     1      -7.837  15.858  22.253  0.00  0.00    +0.000 OA
ATOM     15  C   UNL     1      -2.028  12.471  22.440  0.00  0.00    +0.000 A 
ATOM     16  F   UNL     1      -2.136  12.909  23.705  0.00  0.00    +0.000 F 
ATOM     17  C   UNL     1      -0.949  11.663  22.123  0.00  0.00    +0.000 A 
ATOM     18  C   UNL     1      -0.832  11.202  20.818  0.00  0.00    +0.000 A 
ATOM     19  C   UNL     1       0.316  10.358  20.431  0.00  0.00    +0.000 A 
ATOM     20  O   UNL     1       1.146   9.991  21.260  0.00  0.00    +0.000 OA
ENDROOT
BRANCH   3  21
ATOM     21  C   UNL     1      -2.610  11.489  17.503  0.00  0.00    +0.000 C 
ATOM     22  C   UNL     1      -2.679  10.905  16.113  0.00  0.00    +0.000 C 
ATOM     23  C   UNL     1      -3.731  10.555  17.118  0.00  0.00    +0.000 C 
ENDBRANCH   3  21
BRANCH   1  25
ATOM     24  O   UNL     1       2.200   9.487  17.459  0.00  0.00    +0.000 OA
ATOM     25  C   UNL     1       1.606   9.196  18.487  0.00  0.00    +0.000 C 
BRANCH  25  26
ATOM     26  O   UNL     1       1.945   8.127  19.237  0.00  0.00    +0.000 OA
ATOM     27  H   UNL     1       2.617   8.313  19.938  0.00  0.00    +0.000 HD
ENDBRANCH  25  26
ENDBRANCH   1  25
TORSDOF 3
ENDMDL
MODEL 7
REMARK VINA RESULT:      -6.0      2.960      8.554
REMARK  Name = 
REMARK  3 active torsions:
REMARK  status: ('A' for Active; 'I' for Inactive)
REMARK    1  A    between atoms: C_2  and  O_3
REMARK    2  A    between atoms: C_2  and  C_4
REMARK    3  A    between atoms: N_6  and  C_7
REMARK                            x       y       z     vdW  Elec       q    Type
REMARK                         _______ _______ _______ _____ _____    ______ ____
ROOT
ATOM      1  C   UNL     1      -2.157  12.124  21.278  0.00  0.00    +0.000 A 
ATOM      2  C   UNL     1      -2.082  11.926  19.953  0.00  0.00    +0.000 A 
ATOM      3  N   UNL     1      -1.178  11.099  19.314  0.00  0.00    +0.000 N 
ATOM      4  C   UNL     1      -0.296  10.274  20.073  0.00  0.00    +0.000 A 
ATOM      5  N   UNL     1       0.522   9.381  19.451  0.00  0.00    +0.000 NA
ATOM      6  C   UNL     1       1.330   8.575  20.185  0.00  0.00    +0.000 A 
ATOM      7  N   UNL     1       2.159   7.695  19.519  0.00  0.00    +0.000 N 
ATOM      8  C   UNL     1       2.511   6.390  20.112  0.00  0.00    +0.000 C 
ATOM      9  C   UNL     1       2.806   5.541  18.866  0.00  0.00    +0.000 C 
ATOM     10  C   UNL     1       1.750   6.048  17.891  0.00  0.00    +0.000 C 
ATOM     11  C   UNL     1       2.101   7.530  18.050  0.00  0.00    +0.000 C 
ATOM     12  C   UNL     1       3.537   7.648  17.513  0.00  0.00    +0.000 C 
ATOM     13  S   UNL     1       4.411   6.137  18.148  0.00  0.00    +0.000 S 
ATOM     14  O   UNL     1       4.721   5.222  16.908  0.00  0.00    +0.000 OA
ATOM     15  C   UNL     1       1.339   8.678  21.585  0.00  0.00    +0.000 A 
ATOM     16  F   UNL     1       2.142   7.906  22.336  0.00  0.00    +0.000 F 
ATOM     17  C   UNL     1       0.523   9.589  22.234  0.00  0.00    +0.000 A 
ATOM     18  C   UNL     1      -0.307  10.396  21.466  0.00  0.00    +0.000 A 
ATOM     19  C   UNL     1      -1.211  11.363  22.118  0.00  0.00    +0.000 A 
ATOM     20  O   UNL     1      -1.200  11.524  23.337  0.00  0.00    +0.000 OA
ENDROOT
BRANCH   3  21
ATOM     21  C   UNL     1      -1.217  10.951  17.847  0.00  0.00    +0.000 C 
ATOM     22  C   UNL     1      -2.037   9.917  17.115  0.00  0.00    +0.000 C 
ATOM     23  C   UNL     1      -2.451  11.354  17.078  0.00  0.00    +0.000 C 
ENDBRANCH   3  21
BRANCH   1  25
ATOM     24  O   UNL     1      -3.175  14.258  21.534  0.00  0.00    +0.000 OA
ATOM     25  C   UNL     1      -3.158  13.069  21.816  0.00  0.00    +0.000 C 
BRANCH  25  26
ATOM     26  O   UNL     1      -4.061  12.513  22.651  0.00  0.00    +0.000 OA
ATOM     27  H   UNL     1      -4.525  11.721  22.286  0.00  0.00    +0.000 HD
ENDBRANCH  25  26
ENDBRANCH   1  25
TORSDOF 3
ENDMDL
MODEL 8
REMARK VINA RESULT:      -5.8      9.313     10.460
REMARK  Name = 
REMARK  3 active torsions:
REMARK  status: ('A' for Active; 'I' for Inactive)
REMARK    1  A    between atoms: C_2  and  O_3
REMARK    2  A    between atoms: C_2  and  C_4
REMARK    3  A    between atoms: N_6  and  C_7
REMARK                            x       y       z     vdW  Elec       q    Type
REMARK                         _______ _______ _______ _____ _____    ______ ____
ROOT
ATOM      1  C   UNL     1      10.541  15.525  18.322  0.00  0.00    +0.000 A 
ATOM      2  C   UNL     1      10.890  14.322  18.799  0.00  0.00    +0.000 A 
ATOM      3  N   UNL     1      10.450  13.769  19.986  0.00  0.00    +0.000 N 
ATOM      4  C   UNL     1       9.455  14.433  20.764  0.00  0.00    +0.000 A 
ATOM      5  N   UNL     1       8.941  13.843  21.879  0.00  0.00    +0.000 NA
ATOM      6  C   UNL     1       7.969  14.467  22.590  0.00  0.00    +0.000 A 
ATOM      7  N   UNL     1       7.485  13.848  23.725  0.00  0.00    +0.000 N 
ATOM      8  C   UNL     1       6.081  14.022  24.141  0.00  0.00    +0.000 C 
ATOM      9  C   UNL     1       5.818  12.729  24.929  0.00  0.00    +0.000 C 
ATOM     10  C   UNL     1       6.595  11.706  24.109  0.00  0.00    +0.000 C 
ATOM     11  C   UNL     1       7.913  12.486  24.111  0.00  0.00    +0.000 C 
ATOM     12  C   UNL     1       8.334  12.533  25.588  0.00  0.00    +0.000 C 
ATOM     13  S   UNL     1       6.760  12.843  26.525  0.00  0.00    +0.000 S 
ATOM     14  O   UNL     1       6.436  11.537  27.337  0.00  0.00    +0.000 OA
ATOM     15  C   UNL     1       7.509  15.732  22.189  0.00  0.00    +0.000 A 
ATOM     16  F   UNL     1       6.560  16.381  22.884  0.00  0.00    +0.000 F 
ATOM     17  C   UNL     1       8.028  16.353  21.065  0.00  0.00    +0.000 A 
ATOM     18  C   UNL     1       9.013  15.691  20.343  0.00  0.00    +0.000 A 
ATOM     19  C   UNL     1       9.577  16.305  19.125  0.00  0.00    +0.000 A 
ATOM     20  O   UNL     1       9.241  17.431  18.765  0.00  0.00    +0.000 OA
ENDROOT
BRANCH   3  21
ATOM     21  C   UNL     1      10.893  12.421  20.386  0.00  0.00    +0.000 C 
ATOM     22  C   UNL     1      10.318  11.136  19.842  0.00  0.00    +0.000 C 
ATOM     23  C   UNL     1      11.689  11.570  19.427  0.00  0.00    +0.000 C 
ENDBRANCH   3  21
BRANCH   1  25
ATOM     24  O   UNL     1      12.326  16.084  16.853  0.00  0.00    +0.000 OA
ATOM     25  C   UNL     1      11.122  16.000  17.048  0.00  0.00    +0.000 C 
BRANCH  25  26
ATOM     26  O   UNL     1      10.214  16.336  16.108  0.00  0.00    +0.000 OA
ATOM     27  H   UNL     1      10.389  15.954  15.213  0.00  0.00    +0.000 HD
ENDBRANCH  25  26
ENDBRANCH   1  25
TORSDOF 3
ENDMDL
MODEL 9
REMARK VINA RESULT:      -5.7      7.455     10.952
REMARK  Name = 
REMARK  3 active torsions:
REMARK  status: ('A' for Active; 'I' for Inactive)
REMARK    1  A    between atoms: C_2  and  O_3
REMARK    2  A    between atoms: C_2  and  C_4
REMARK    3  A    between atoms: N_6  and  C_7
REMARK                            x       y       z     vdW  Elec       q    Type
REMARK                         _______ _______ _______ _____ _____    ______ ____
ROOT
ATOM      1  C   UNL     1      -2.922  14.397  24.059  0.00  0.00    +0.000 A 
ATOM      2  C   UNL     1      -4.092  13.929  23.601  0.00  0.00    +0.000 A 
ATOM      3  N   UNL     1      -4.302  13.370  22.355  0.00  0.00    +0.000 N 
ATOM      4  C   UNL     1      -3.203  13.142  21.474  0.00  0.00    +0.000 A 
ATOM      5  N   UNL     1      -3.388  12.496  20.290  0.00  0.00    +0.000 NA
ATOM      6  C   UNL     1      -2.329  12.251  19.477  0.00  0.00    +0.000 A 
ATOM      7  N   UNL     1      -2.558  11.610  18.276  0.00  0.00    +0.000 N 
ATOM      8  C   UNL     1      -1.542  10.715  17.690  0.00  0.00    +0.000 C 
ATOM      9  C   UNL     1      -2.403   9.763  16.845  0.00  0.00    +0.000 C 
ATOM     10  C   UNL     1      -3.630   9.590  17.732  0.00  0.00    +0.000 C 
ATOM     11  C   UNL     1      -3.893  11.087  17.914  0.00  0.00    +0.000 C 
ATOM     12  C   UNL     1      -4.225  11.598  16.503  0.00  0.00    +0.000 C 
ATOM     13  S   UNL     1      -3.029  10.722  15.384  0.00  0.00    +0.000 S 
ATOM     14  O   UNL     1      -3.861   9.718  14.506  0.00  0.00    +0.000 OA
ATOM     15  C   UNL     1      -1.046  12.685  19.847  0.00  0.00    +0.000 A 
ATOM     16  F   UNL     1       0.017  12.472  19.054  0.00  0.00    +0.000 F 
ATOM     17  C   UNL     1      -0.840  13.354  21.042  0.00  0.00    +0.000 A 
ATOM     18  C   UNL     1      -1.935  13.582  21.866  0.00  0.00    +0.000 A 
ATOM     19  C   UNL     1      -1.757  14.270  23.160  0.00  0.00    +0.000 A 
ATOM     20  O   UNL     1      -0.662  14.712  23.502  0.00  0.00    +0.000 OA
ENDROOT
BRANCH   3  21
ATOM     21  C   UNL     1      -5.638  12.869  21.981  0.00  0.00    +0.000 C 
ATOM     22  C   UNL     1      -6.807  12.765  22.931  0.00  0.00    +0.000 C 
ATOM     23  C   UNL     1      -6.801  13.825  21.874  0.00  0.00    +0.000 C 
ENDBRANCH   3  21
BRANCH   1  25
ATOM     24  O   UNL     1      -2.596  16.180  25.600  0.00  0.00    +0.000 OA
ATOM     25  C   UNL     1      -2.858  15.001  25.406  0.00  0.00    +0.000 C 
BRANCH  25  26
ATOM     26  O   UNL     1      -3.113  14.145  26.418  0.00  0.00    +0.000 OA
ATOM     27  H   UNL     1      -2.643  14.355  27.262  0.00  0.00    +0.000 HD
ENDBRANCH  25  26
ENDBRANCH   1  25
TORSDOF 3
ENDMDL
