MODEL 1
REMARK VINA RESULT:      -7.6      0.000      0.000
REMARK  Name = 
REMARK  6 active torsions:
REMARK  status: ('A' for Active; 'I' for Inactive)
REMARK    1  A    between atoms: C_2  and  O_3
REMARK    2  A    between atoms: C_2  and  C_4
REMARK    3  A    between atoms: C_4  and  O_5
REMARK    4  A    between atoms: C_7  and  C_8
REMARK    5  A    between atoms: C_16  and  O_17
REMARK    6  A    between atoms: C_18  and  O_19
REMARK                            x       y       z     vdW  Elec       q    Type
REMARK                         _______ _______ _______ _____ _____    ______ ____
ROOT
ATOM      1  C   UNL     1       6.784   5.640  18.253  0.00  0.00    +0.000 C 
ATOM      2  C   UNL     1       5.581   5.026  18.892  0.00  0.00    +0.000 C 
ATOM      3  C   UNL     1       4.319   5.320  18.552  0.00  0.00    +0.000 C 
ATOM      4  C   UNL     1       3.943   6.347  17.518  0.00  0.00    +0.000 C 
ATOM      5  C   UNL     1       5.119   6.976  16.724  0.00  0.00    +0.000 C 
ATOM      6  C   UNL     1       6.548   6.785  17.258  0.00  0.00    +0.000 C 
ENDROOT
BRANCH   3   7
ATOM      7  C   UNL     1       3.218   4.543  19.149  0.00  0.00    +0.000 A 
ATOM      8  C   UNL     1       2.242   3.945  18.344  0.00  0.00    +0.000 A 
ATOM      9  C   UNL     1       1.226   3.193  18.931  0.00  0.00    +0.000 A 
ATOM     10  F   UNL     1       0.303   2.614  18.152  0.00  0.00    +0.000 F 
ATOM     11  C   UNL     1       1.154   3.027  20.309  0.00  0.00    +0.000 A 
ATOM     12  C   UNL     1       2.117   3.635  21.101  0.00  0.00    +0.000 A 
ATOM     13  F   UNL     1       2.061   3.490  22.432  0.00  0.00    +0.000 F 
ATOM     14  C   UNL     1       3.143   4.392  20.539  0.00  0.00    +0.000 A 
ENDBRANCH   3   7
BRANCH   1  16
ATOM     15  O   UNL     1       8.629   4.035  17.895  0.00  0.00    +0.000 OA
ATOM     16  C   UNL     1       7.555   4.498  17.533  0.00  0.00    +0.000 C 
BRANCH  16  17
ATOM     17  O   UNL     1       6.879   4.062  16.435  0.00  0.00    +0.000 OA
ATOM     18  H   UNL     1       6.991   3.080  16.390  0.00  0.00    +0.000 HD
ENDBRANCH  16  17
ENDBRANCH   1  16
BRANCH   1  19
ATOM     19  O   UNL     1       7.636   6.115  19.308  0.00  0.00    +0.000 OA
ATOM     20  H   UNL     1       8.125   5.342  19.645  0.00  0.00    +0.000 HD
ENDBRANCH   1  19
BRANCH   4  21
ATOM     21  O   UNL     1       3.217   7.391  18.178  0.00  0.00    +0.000 OA
ATOM     22  H   UNL     1       3.658   7.590  19.017  0.00  0.00    +0.000 HD
ENDBRANCH   4  21
BRANCH   5  23
ATOM     23  O   UNL     1       5.086   6.563  15.352  0.00  0.00    +0.000 OA
ATOM     24  H   UNL     1       4.404   5.874  15.240  0.00  0.00    +0.000 HD
ENDBRANCH   5  23
TORSDOF 6
ENDMDL
MODEL 2
REMARK VINA RESULT:      -7.6      3.099      4.013
REMARK  Name = 
REMARK  6 active torsions:
REMARK  status: ('A' for Active; 'I' for Inactive)
REMARK    1  A    between atoms: C_2  and  O_3
REMARK    2  A    between atoms: C_2  and  C_4
REMARK    3  A    between atoms: C_4  and  O_5
REMARK    4  A    between atoms: C_7  and  C_8
REMARK    5  A    between atoms: C_16  and  O_17
REMARK    6  A    between atoms: C_18  and  O_19
REMARK                            x       y       z     vdW  Elec       q    Type
REMARK                         _______ _______ _______ _____ _____    ______ ____
ROOT
ATOM      1  C   UNL     1       5.685   5.669  16.413  0.00  0.00    +0.000 C 
ATOM      2  C   UNL     1       4.669   6.590  17.008  0.00  0.00    +0.000 C 
ATOM      3  C   UNL     1       3.672   6.190  17.808  0.00  0.00    +0.000 C 
ATOM      4  C   UNL     1       3.410   4.754  18.173  0.00  0.00    +0.000 C 
ATOM      5  C   UNL     1       4.464   3.723  17.685  0.00  0.00    +0.000 C 
ATOM      6  C   UNL     1       5.473   4.161  16.612  0.00  0.00    +0.000 C 
ENDROOT
BRANCH   3   7
ATOM      7  C   UNL     1       2.823   7.206  18.454  0.00  0.00    +0.000 A 
ATOM      8  C   UNL     1       2.410   8.347  17.756  0.00  0.00    +0.000 A 
ATOM      9  C   UNL     1       1.585   9.280  18.381  0.00  0.00    +0.000 A 
ATOM     10  F   UNL     1       1.184  10.362  17.702  0.00  0.00    +0.000 F 
ATOM     11  C   UNL     1       1.164   9.107  19.695  0.00  0.00    +0.000 A 
ATOM     12  C   UNL     1       1.590   7.982  20.385  0.00  0.00    +0.000 A 
ATOM     13  F   UNL     1       1.198   7.801  21.653  0.00  0.00    +0.000 F 
ATOM     14  C   UNL     1       2.415   7.033  19.783  0.00  0.00    +0.000 A 
ENDBRANCH   3   7
BRANCH   1  16
ATOM     15  O   UNL     1       7.717   7.050  16.678  0.00  0.00    +0.000 OA
ATOM     16  C   UNL     1       7.067   6.065  17.003  0.00  0.00    +0.000 C 
BRANCH  16  17
ATOM     17  O   UNL     1       7.476   5.172  17.946  0.00  0.00    +0.000 OA
ATOM     18  H   UNL     1       6.880   5.278  18.729  0.00  0.00    +0.000 HD
ENDBRANCH  16  17
ENDBRANCH   1  16
BRANCH   1  19
ATOM     19  O   UNL     1       5.741   5.943  15.003  0.00  0.00    +0.000 OA
ATOM     20  H   UNL     1       5.722   6.913  14.904  0.00  0.00    +0.000 HD
ENDBRANCH   1  19
BRANCH   4  21
ATOM     21  O   UNL     1       2.128   4.393  17.644  0.00  0.00    +0.000 OA
ATOM     22  H   UNL     1       2.218   3.560  17.158  0.00  0.00    +0.000 HD
ENDBRANCH   4  21
BRANCH   5  23
ATOM     23  O   UNL     1       5.186   3.171  18.793  0.00  0.00    +0.000 OA
ATOM     24  H   UNL     1       6.086   3.548  18.810  0.00  0.00    +0.000 HD
ENDBRANCH   5  23
TORSDOF 6
ENDMDL
MODEL 3
REMARK VINA RESULT:      -7.6      3.109      4.299
REMARK  Name = 
REMARK  6 active torsions:
REMARK  status: ('A' for Active; 'I' for Inactive)
REMARK    1  A    between atoms: C_2  and  O_3
REMARK    2  A    between atoms: C_2  and  C_4
REMARK    3  A    between atoms: C_4  and  O_5
REMARK    4  A    between atoms: C_7  and  C_8
REMARK    5  A    between atoms: C_16  and  O_17
REMARK    6  A    between atoms: C_18  and  O_19
REMARK                            x       y       z     vdW  Elec       q    Type
REMARK                         _______ _______ _______ _____ _____    ______ ____
ROOT
ATOM      1  C   UNL     1       5.650   5.792  16.464  0.00  0.00    +0.000 C 
ATOM      2  C   UNL     1       4.608   6.678  17.067  0.00  0.00    +0.000 C 
ATOM      3  C   UNL     1       3.623   6.241  17.863  0.00  0.00    +0.000 C 
ATOM      4  C   UNL     1       3.403   4.794  18.214  0.00  0.00    +0.000 C 
ATOM      5  C   UNL     1       4.487   3.800  17.717  0.00  0.00    +0.000 C 
ATOM      6  C   UNL     1       5.483   4.277  16.649  0.00  0.00    +0.000 C 
ENDROOT
BRANCH   3   7
ATOM      7  C   UNL     1       2.744   7.226  18.518  0.00  0.00    +0.000 A 
ATOM      8  C   UNL     1       2.369   7.077  19.858  0.00  0.00    +0.000 A 
ATOM      9  C   UNL     1       1.558   8.036  20.461  0.00  0.00    +0.000 A 
ATOM     10  F   UNL     1       1.215   7.891  21.747  0.00  0.00    +0.000 F 
ATOM     11  C   UNL     1       1.102   9.144  19.756  0.00  0.00    +0.000 A 
ATOM     12  C   UNL     1       1.465   9.277  18.424  0.00  0.00    +0.000 A 
ATOM     13  F   UNL     1       1.032  10.335  17.727  0.00  0.00    +0.000 F 
ATOM     14  C   UNL     1       2.276   8.332  17.797  0.00  0.00    +0.000 A 
ENDBRANCH   3   7
BRANCH   1  16
ATOM     15  O   UNL     1       7.605   7.267  16.798  0.00  0.00    +0.000 OA
ATOM     16  C   UNL     1       7.021   6.224  17.058  0.00  0.00    +0.000 C 
BRANCH  16  17
ATOM     17  O   UNL     1       7.500   5.288  17.923  0.00  0.00    +0.000 OA
ATOM     18  H   UNL     1       8.365   5.622  18.269  0.00  0.00    +0.000 HD
ENDBRANCH  16  17
ENDBRANCH   1  16
BRANCH   1  19
ATOM     19  O   UNL     1       5.699   6.082  15.057  0.00  0.00    +0.000 OA
ATOM     20  H   UNL     1       6.060   6.982  14.966  0.00  0.00    +0.000 HD
ENDBRANCH   1  19
BRANCH   4  21
ATOM     21  O   UNL     1       2.133   4.401  17.682  0.00  0.00    +0.000 OA
ATOM     22  H   UNL     1       1.944   3.496  17.970  0.00  0.00    +0.000 HD
ENDBRANCH   4  21
BRANCH   5  23
ATOM     23  O   UNL     1       5.225   3.258  18.820  0.00  0.00    +0.000 OA
ATOM     24  H   UNL     1       5.018   2.309  18.910  0.00  0.00    +0.000 HD
ENDBRANCH   5  23
TORSDOF 6
ENDMDL
MODEL 4
REMARK VINA RESULT:      -7.6      0.033      1.836
REMARK  Name = 
REMARK  6 active torsions:
REMARK  status: ('A' for Active; 'I' for Inactive)
REMARK    1  A    between atoms: C_2  and  O_3
REMARK    2  A    between atoms: C_2  and  C_4
REMARK    3  A    between atoms: C_4  and  O_5
REMARK    4  A    between atoms: C_7  and  C_8
REMARK    5  A    between atoms: C_16  and  O_17
REMARK    6  A    between atoms: C_18  and  O_19
REMARK                            x       y       z     vdW  Elec       q    Type
REMARK                         _______ _______ _______ _____ _____    ______ ____
ROOT
ATOM      1  C   UNL     1       6.802   5.636  18.253  0.00  0.00    +0.000 C 
ATOM      2  C   UNL     1       5.607   5.015  18.899  0.00  0.00    +0.000 C 
ATOM      3  C   UNL     1       4.341   5.300  18.564  0.00  0.00    +0.000 C 
ATOM      4  C   UNL     1       3.954   6.323  17.531  0.00  0.00    +0.000 C 
ATOM      5  C   UNL     1       5.122   6.959  16.730  0.00  0.00    +0.000 C 
ATOM      6  C   UNL     1       6.554   6.779  17.257  0.00  0.00    +0.000 C 
ENDROOT
BRANCH   3   7
ATOM      7  C   UNL     1       3.248   4.516  19.167  0.00  0.00    +0.000 A 
ATOM      8  C   UNL     1       3.166   4.345  20.553  0.00  0.00    +0.000 A 
ATOM      9  C   UNL     1       2.108   3.621  21.099  0.00  0.00    +0.000 A 
ATOM     10  F   UNL     1       2.030   3.473  22.428  0.00  0.00    +0.000 F 
ATOM     11  C   UNL     1       1.128   3.053  20.293  0.00  0.00    +0.000 A 
ATOM     12  C   UNL     1       1.225   3.215  18.919  0.00  0.00    +0.000 A 
ATOM     13  F   UNL     1       0.292   2.672  18.126  0.00  0.00    +0.000 F 
ATOM     14  C   UNL     1       2.273   3.935  18.347  0.00  0.00    +0.000 A 
ENDBRANCH   3   7
BRANCH   1  16
ATOM     15  O   UNL     1       8.648   4.032  17.897  0.00  0.00    +0.000 OA
ATOM     16  C   UNL     1       7.578   4.499  17.531  0.00  0.00    +0.000 C 
BRANCH  16  17
ATOM     17  O   UNL     1       6.911   4.072  16.423  0.00  0.00    +0.000 OA
ATOM     18  H   UNL     1       7.060   3.097  16.347  0.00  0.00    +0.000 HD
ENDBRANCH  16  17
ENDBRANCH   1  16
BRANCH   1  19
ATOM     19  O   UNL     1       7.657   6.118  19.303  0.00  0.00    +0.000 OA
ATOM     20  H   UNL     1       8.362   5.456  19.420  0.00  0.00    +0.000 HD
ENDBRANCH   1  19
BRANCH   4  21
ATOM     21  O   UNL     1       3.224   7.363  18.192  0.00  0.00    +0.000 OA
ATOM     22  H   UNL     1       2.310   7.068  18.315  0.00  0.00    +0.000 HD
ENDBRANCH   4  21
BRANCH   5  23
ATOM     23  O   UNL     1       5.085   6.544  15.358  0.00  0.00    +0.000 OA
ATOM     24  H   UNL     1       5.151   7.330  14.783  0.00  0.00    +0.000 HD
ENDBRANCH   5  23
TORSDOF 6
ENDMDL
MODEL 5
REMARK VINA RESULT:      -7.5      4.237      6.136
REMARK  Name = 
REMARK  6 active torsions:
REMARK  status: ('A' for Active; 'I' for Inactive)
REMARK    1  A    between atoms: C_2  and  O_3
REMARK    2  A    between atoms: C_2  and  C_4
REMARK    3  A    between atoms: C_4  and  O_5
REMARK    4  A    between atoms: C_7  and  C_8
REMARK    5  A    between atoms: C_16  and  O_17
REMARK    6  A    between atoms: C_18  and  O_19
REMARK                            x       y       z     vdW  Elec       q    Type
REMARK                         _______ _______ _______ _____ _____    ______ ____
ROOT
ATOM      1  C   UNL     1       3.890   3.974  18.026  0.00  0.00    +0.000 C 
ATOM      2  C   UNL     1       4.430   3.984  16.632  0.00  0.00    +0.000 C 
ATOM      3  C   UNL     1       5.498   4.696  16.247  0.00  0.00    +0.000 C 
ATOM      4  C   UNL     1       6.264   5.621  17.154  0.00  0.00    +0.000 C 
ATOM      5  C   UNL     1       5.845   5.612  18.649  0.00  0.00    +0.000 C 
ATOM      6  C   UNL     1       4.508   4.958  19.030  0.00  0.00    +0.000 C 
ENDROOT
BRANCH   3   7
ATOM      7  C   UNL     1       6.026   4.511  14.884  0.00  0.00    +0.000 A 
ATOM      8  C   UNL     1       5.383   3.666  13.972  0.00  0.00    +0.000 A 
ATOM      9  C   UNL     1       5.888   3.529  12.681  0.00  0.00    +0.000 A 
ATOM     10  F   UNL     1       5.259   2.728  11.811  0.00  0.00    +0.000 F 
ATOM     11  C   UNL     1       7.029   4.212  12.275  0.00  0.00    +0.000 A 
ATOM     12  C   UNL     1       7.669   5.036  13.189  0.00  0.00    +0.000 A 
ATOM     13  F   UNL     1       8.772   5.698  12.817  0.00  0.00    +0.000 F 
ATOM     14  C   UNL     1       7.185   5.191  14.487  0.00  0.00    +0.000 A 
ENDBRANCH   3   7
BRANCH   1  16
ATOM     15  O   UNL     1       3.396   1.560  18.213  0.00  0.00    +0.000 OA
ATOM     16  C   UNL     1       4.053   2.528  18.572  0.00  0.00    +0.000 C 
BRANCH  16  17
ATOM     17  O   UNL     1       5.036   2.463  19.512  0.00  0.00    +0.000 OA
ATOM     18  H   UNL     1       4.941   1.596  19.978  0.00  0.00    +0.000 HD
ENDBRANCH  16  17
ENDBRANCH   1  16
BRANCH   1  19
ATOM     19  O   UNL     1       2.478   4.229  17.942  0.00  0.00    +0.000 OA
ATOM     20  H   UNL     1       2.133   3.671  17.222  0.00  0.00    +0.000 HD
ENDBRANCH   1  19
BRANCH   4  21
ATOM     21  O   UNL     1       6.129   6.951  16.641  0.00  0.00    +0.000 OA
ATOM     22  H   UNL     1       6.952   7.432  16.809  0.00  0.00    +0.000 HD
ENDBRANCH   4  21
BRANCH   5  23
ATOM     23  O   UNL     1       6.880   5.045  19.464  0.00  0.00    +0.000 OA
ATOM     24  H   UNL     1       6.574   4.190  19.822  0.00  0.00    +0.000 HD
ENDBRANCH   5  23
TORSDOF 6
ENDMDL
MODEL 6
REMARK VINA RESULT:      -7.5      4.239      6.299
REMARK  Name = 
REMARK  6 active torsions:
REMARK  status: ('A' for Active; 'I' for Inactive)
REMARK    1  A    between atoms: C_2  and  O_3
REMARK    2  A    between atoms: C_2  and  C_4
REMARK    3  A    between atoms: C_4  and  O_5
REMARK    4  A    between atoms: C_7  and  C_8
REMARK    5  A    between atoms: C_16  and  O_17
REMARK    6  A    between atoms: C_18  and  O_19
REMARK                            x       y       z     vdW  Elec       q    Type
REMARK                         _______ _______ _______ _____ _____    ______ ____
ROOT
ATOM      1  C   UNL     1       3.871   3.965  17.995  0.00  0.00    +0.000 C 
ATOM      2  C   UNL     1       4.420   3.996  16.606  0.00  0.00    +0.000 C 
ATOM      3  C   UNL     1       5.485   4.720  16.236  0.00  0.00    +0.000 C 
ATOM      4  C   UNL     1       6.239   5.639  17.158  0.00  0.00    +0.000 C 
ATOM      5  C   UNL     1       5.810   5.610  18.650  0.00  0.00    +0.000 C 
ATOM      6  C   UNL     1       4.475   4.942  19.015  0.00  0.00    +0.000 C 
ENDROOT
BRANCH   3   7
ATOM      7  C   UNL     1       6.024   4.555  14.874  0.00  0.00    +0.000 A 
ATOM      8  C   UNL     1       7.177   5.236  14.470  0.00  0.00    +0.000 A 
ATOM      9  C   UNL     1       7.681   5.042  13.186  0.00  0.00    +0.000 A 
ATOM     10  F   UNL     1       8.793   5.689  12.812  0.00  0.00    +0.000 F 
ATOM     11  C   UNL     1       7.056   4.187  12.285  0.00  0.00    +0.000 A 
ATOM     12  C   UNL     1       5.905   3.527  12.688  0.00  0.00    +0.000 A 
ATOM     13  F   UNL     1       5.286   2.702  11.833  0.00  0.00    +0.000 F 
ATOM     14  C   UNL     1       5.380   3.703  13.968  0.00  0.00    +0.000 A 
ENDBRANCH   3   7
BRANCH   1  16
ATOM     15  O   UNL     1       3.380   1.549  18.166  0.00  0.00    +0.000 OA
ATOM     16  C   UNL     1       4.041   2.514  18.525  0.00  0.00    +0.000 C 
BRANCH  16  17
ATOM     17  O   UNL     1       5.037   2.440  19.452  0.00  0.00    +0.000 OA
ATOM     18  H   UNL     1       5.033   1.520  19.816  0.00  0.00    +0.000 HD
ENDBRANCH  16  17
ENDBRANCH   1  16
BRANCH   1  19
ATOM     19  O   UNL     1       2.458   4.210  17.905  0.00  0.00    +0.000 OA
ATOM     20  H   UNL     1       2.139   4.359  18.814  0.00  0.00    +0.000 HD
ENDBRANCH   1  19
BRANCH   4  21
ATOM     21  O   UNL     1       6.096   6.975  16.661  0.00  0.00    +0.000 OA
ATOM     22  H   UNL     1       5.511   6.956  15.890  0.00  0.00    +0.000 HD
ENDBRANCH   4  21
BRANCH   5  23
ATOM     23  O   UNL     1       6.843   5.041  19.466  0.00  0.00    +0.000 OA
ATOM     24  H   UNL     1       6.583   4.139  19.731  0.00  0.00    +0.000 HD
ENDBRANCH   5  23
TORSDOF 6
ENDMDL
MODEL 7
REMARK VINA RESULT:      -7.3      3.603      5.651
REMARK  Name = 
REMARK  6 active torsions:
REMARK  status: ('A' for Active; 'I' for Inactive)
REMARK    1  A    between atoms: C_2  and  O_3
REMARK    2  A    between atoms: C_2  and  C_4
REMARK    3  A    between atoms: C_4  and  O_5
REMARK    4  A    between atoms: C_7  and  C_8
REMARK    5  A    between atoms: C_16  and  O_17
REMARK    6  A    between atoms: C_18  and  O_19
REMARK                            x       y       z     vdW  Elec       q    Type
REMARK                         _______ _______ _______ _____ _____    ______ ____
ROOT
ATOM      1  C   UNL     1       1.954   3.137  20.065  0.00  0.00    +0.000 C 
ATOM      2  C   UNL     1       3.186   3.336  19.243  0.00  0.00    +0.000 C 
ATOM      3  C   UNL     1       3.638   4.534  18.848  0.00  0.00    +0.000 C 
ATOM      4  C   UNL     1       2.936   5.834  19.133  0.00  0.00    +0.000 C 
ATOM      5  C   UNL     1       1.695   5.749  20.062  0.00  0.00    +0.000 C 
ATOM      6  C   UNL     1       1.078   4.369  20.335  0.00  0.00    +0.000 C 
ENDROOT
BRANCH   3   7
ATOM      7  C   UNL     1       4.943   4.617  18.169  0.00  0.00    +0.000 A 
ATOM      8  C   UNL     1       5.118   4.099  16.881  0.00  0.00    +0.000 A 
ATOM      9  C   UNL     1       6.355   4.214  16.250  0.00  0.00    +0.000 A 
ATOM     10  F   UNL     1       6.509   3.726  15.013  0.00  0.00    +0.000 F 
ATOM     11  C   UNL     1       7.432   4.830  16.878  0.00  0.00    +0.000 A 
ATOM     12  C   UNL     1       7.255   5.327  18.160  0.00  0.00    +0.000 A 
ATOM     13  F   UNL     1       8.282   5.921  18.783  0.00  0.00    +0.000 F 
ATOM     14  C   UNL     1       6.027   5.226  18.813  0.00  0.00    +0.000 A 
ENDBRANCH   3   7
BRANCH   1  16
ATOM     15  O   UNL     1       3.530   2.135  21.684  0.00  0.00    +0.000 OA
ATOM     16  C   UNL     1       2.400   2.528  21.424  0.00  0.00    +0.000 C 
BRANCH  16  17
ATOM     17  O   UNL     1       1.367   2.487  22.309  0.00  0.00    +0.000 OA
ATOM     18  H   UNL     1       1.132   1.535  22.444  0.00  0.00    +0.000 HD
ENDBRANCH  16  17
ENDBRANCH   1  16
BRANCH   1  19
ATOM     19  O   UNL     1       1.155   2.139  19.407  0.00  0.00    +0.000 OA
ATOM     20  H   UNL     1       0.389   2.602  19.019  0.00  0.00    +0.000 HD
ENDBRANCH   1  19
BRANCH   4  21
ATOM     21  O   UNL     1       2.539   6.404  17.880  0.00  0.00    +0.000 OA
ATOM     22  H   UNL     1       2.637   5.731  17.190  0.00  0.00    +0.000 HD
ENDBRANCH   4  21
BRANCH   5  23
ATOM     23  O   UNL     1       1.955   6.390  21.318  0.00  0.00    +0.000 OA
ATOM     24  H   UNL     1       2.573   5.841  21.837  0.00  0.00    +0.000 HD
ENDBRANCH   5  23
TORSDOF 6
ENDMDL
MODEL 8
REMARK VINA RESULT:      -7.3      3.602      5.923
REMARK  Name = 
REMARK  6 active torsions:
REMARK  status: ('A' for Active; 'I' for Inactive)
REMARK    1  A    between atoms: C_2  and  O_3
REMARK    2  A    between atoms: C_2  and  C_4
REMARK    3  A    between atoms: C_4  and  O_5
REMARK    4  A    between atoms: C_7  and  C_8
REMARK    5  A    between atoms: C_16  and  O_17
REMARK    6  A    between atoms: C_18  and  O_19
REMARK                            x       y       z     vdW  Elec       q    Type
REMARK                         _______ _______ _______ _____ _____    ______ ____
ROOT
ATOM      1  C   UNL     1       1.967   3.126  20.057  0.00  0.00    +0.000 C 
ATOM      2  C   UNL     1       3.193   3.340  19.230  0.00  0.00    +0.000 C 
ATOM      3  C   UNL     1       3.632   4.544  18.839  0.00  0.00    +0.000 C 
ATOM      4  C   UNL     1       2.920   5.837  19.135  0.00  0.00    +0.000 C 
ATOM      5  C   UNL     1       1.685   5.736  20.070  0.00  0.00    +0.000 C 
ATOM      6  C   UNL     1       1.082   4.348  20.339  0.00  0.00    +0.000 C 
ENDROOT
BRANCH   3   7
ATOM      7  C   UNL     1       4.933   4.642  18.153  0.00  0.00    +0.000 A 
ATOM      8  C   UNL     1       6.027   5.256  18.772  0.00  0.00    +0.000 A 
ATOM      9  C   UNL     1       7.253   5.312  18.113  0.00  0.00    +0.000 A 
ATOM     10  F   UNL     1       8.299   5.890  18.718  0.00  0.00    +0.000 F 
ATOM     11  C   UNL     1       7.415   4.776  16.840  0.00  0.00    +0.000 A 
ATOM     12  C   UNL     1       6.321   4.183  16.227  0.00  0.00    +0.000 A 
ATOM     13  F   UNL     1       6.457   3.665  15.000  0.00  0.00    +0.000 F 
ATOM     14  C   UNL     1       5.084   4.113  16.865  0.00  0.00    +0.000 A 
ENDBRANCH   3   7
BRANCH   1  16
ATOM     15  O   UNL     1       3.554   2.107  21.654  0.00  0.00    +0.000 OA
ATOM     16  C   UNL     1       2.426   2.513  21.411  0.00  0.00    +0.000 C 
BRANCH  16  17
ATOM     17  O   UNL     1       1.405   2.487  22.312  0.00  0.00    +0.000 OA
ATOM     18  H   UNL     1       0.696   1.909  21.936  0.00  0.00    +0.000 HD
ENDBRANCH  16  17
ENDBRANCH   1  16
BRANCH   1  19
ATOM     19  O   UNL     1       1.173   2.125  19.398  0.00  0.00    +0.000 OA
ATOM     20  H   UNL     1       0.336   2.553  19.141  0.00  0.00    +0.000 HD
ENDBRANCH   1  19
BRANCH   4  21
ATOM     21  O   UNL     1       2.512   6.410  17.887  0.00  0.00    +0.000 OA
ATOM     22  H   UNL     1       3.132   6.126  17.200  0.00  0.00    +0.000 HD
ENDBRANCH   4  21
BRANCH   5  23
ATOM     23  O   UNL     1       1.947   6.372  21.329  0.00  0.00    +0.000 OA
ATOM     24  H   UNL     1       2.909   6.495  21.432  0.00  0.00    +0.000 HD
ENDBRANCH   5  23
TORSDOF 6
ENDMDL
MODEL 9
REMARK VINA RESULT:      -7.3      1.834      3.138
REMARK  Name = 
REMARK  6 active torsions:
REMARK  status: ('A' for Active; 'I' for Inactive)
REMARK    1  A    between atoms: C_2  and  O_3
REMARK    2  A    between atoms: C_2  and  C_4
REMARK    3  A    between atoms: C_4  and  O_5
REMARK    4  A    between atoms: C_7  and  C_8
REMARK    5  A    between atoms: C_16  and  O_17
REMARK    6  A    between atoms: C_18  and  O_19
REMARK                            x       y       z     vdW  Elec       q    Type
REMARK                         _______ _______ _______ _____ _____    ______ ____
ROOT
ATOM      1  C   UNL     1       5.988   4.184  16.071  0.00  0.00    +0.000 C 
ATOM      2  C   UNL     1       4.848   4.117  17.035  0.00  0.00    +0.000 C 
ATOM      3  C   UNL     1       4.848   4.709  18.237  0.00  0.00    +0.000 C 
ATOM      4  C   UNL     1       6.014   5.477  18.798  0.00  0.00    +0.000 C 
ATOM      5  C   UNL     1       7.215   5.690  17.837  0.00  0.00    +0.000 C 
ATOM      6  C   UNL     1       7.287   4.843  16.557  0.00  0.00    +0.000 C 
ENDROOT
BRANCH   3   7
ATOM      7  C   UNL     1       3.611   4.697  19.039  0.00  0.00    +0.000 A 
ATOM      8  C   UNL     1       3.130   5.867  19.637  0.00  0.00    +0.000 A 
ATOM      9  C   UNL     1       1.945   5.834  20.368  0.00  0.00    +0.000 A 
ATOM     10  F   UNL     1       1.486   6.962  20.926  0.00  0.00    +0.000 F 
ATOM     11  C   UNL     1       1.225   4.655  20.525  0.00  0.00    +0.000 A 
ATOM     12  C   UNL     1       1.716   3.497  19.942  0.00  0.00    +0.000 A 
ATOM     13  F   UNL     1       1.038   2.350  20.087  0.00  0.00    +0.000 F 
ATOM     14  C   UNL     1       2.899   3.502  19.205  0.00  0.00    +0.000 A 
ENDBRANCH   3   7
BRANCH   1  16
ATOM     15  O   UNL     1       5.201   4.419  13.740  0.00  0.00    +0.000 OA
ATOM     16  C   UNL     1       5.480   4.941  14.811  0.00  0.00    +0.000 C 
BRANCH  16  17
ATOM     17  O   UNL     1       5.376   6.278  15.047  0.00  0.00    +0.000 OA
ATOM     18  H   UNL     1       6.292   6.625  15.186  0.00  0.00    +0.000 HD
ENDBRANCH  16  17
ENDBRANCH   1  16
BRANCH   1  19
ATOM     19  O   UNL     1       6.281   2.840  15.656  0.00  0.00    +0.000 OA
ATOM     20  H   UNL     1       6.366   2.856  14.685  0.00  0.00    +0.000 HD
ENDBRANCH   1  19
BRANCH   4  21
ATOM     21  O   UNL     1       6.471   4.790  19.968  0.00  0.00    +0.000 OA
ATOM     22  H   UNL     1       6.416   3.837  19.808  0.00  0.00    +0.000 HD
ENDBRANCH   4  21
BRANCH   5  23
ATOM     23  O   UNL     1       7.341   7.072  17.478  0.00  0.00    +0.000 OA
ATOM     24  H   UNL     1       7.500   7.142  16.518  0.00  0.00    +0.000 HD
ENDBRANCH   5  23
TORSDOF 6
ENDMDL
