MODEL 1
REMARK VINA RESULT:      -6.7      0.000      0.000
REMARK  Name = 
REMARK  2 active torsions:
REMARK  status: ('A' for Active; 'I' for Inactive)
REMARK    1  A    between atoms: C_1  and  N_2
REMARK    2  A    between atoms: N_5  and  C_6
REMARK                            x       y       z     vdW  Elec       q    Type
REMARK                         _______ _______ _______ _____ _____    ______ ____
ROOT
ATOM      1  C   UNL     1       1.044   4.661  20.522  0.00  0.00    +0.000 C 
ATOM      2  N   UNL     1       2.051   4.407  19.504  0.00  0.00    +0.000 N 
ATOM      3  C   UNL     1       2.421   3.084  19.277  0.00  0.00    +0.000 C 
ATOM      4  O   UNL     1       1.914   2.156  19.916  0.00  0.00    +0.000 OA
ATOM      5  N   UNL     1       3.387   2.847  18.302  0.00  0.00    +0.000 N 
ATOM      6  C   UNL     1       3.785   1.467  18.067  0.00  0.00    +0.000 C 
ATOM      7  C   UNL     1       3.985   3.898  17.550  0.00  0.00    +0.000 A 
ATOM      8  C   UNL     1       4.955   3.650  16.567  0.00  0.00    +0.000 A 
ATOM      9  C   UNL     1       5.529   4.696  15.844  0.00  0.00    +0.000 A 
ATOM     10  C   UNL     1       5.140   6.009  16.093  0.00  0.00    +0.000 A 
ATOM     11  C   UNL     1       4.173   6.285  17.068  0.00  0.00    +0.000 A 
ATOM     12  C   UNL     1       3.779   7.602  17.323  0.00  0.00    +0.000 A 
ATOM     13  C   UNL     1       2.818   7.871  18.293  0.00  0.00    +0.000 A 
ATOM     14  C   UNL     1       2.244   6.824  19.015  0.00  0.00    +0.000 A 
ATOM     15  C   UNL     1       2.622   5.492  18.779  0.00  0.00    +0.000 A 
ATOM     16  C   UNL     1       3.589   5.218  17.804  0.00  0.00    +0.000 A 
ENDROOT
TORSDOF 0
ENDMDL
MODEL 2
REMARK VINA RESULT:      -6.7      0.088      3.318
REMARK  Name = 
REMARK  2 active torsions:
REMARK  status: ('A' for Active; 'I' for Inactive)
REMARK    1  A    between atoms: C_1  and  N_2
REMARK    2  A    between atoms: N_5  and  C_6
REMARK                            x       y       z     vdW  Elec       q    Type
REMARK                         _______ _______ _______ _____ _____    ______ ____
ROOT
ATOM      1  C   UNL     1       3.787   1.457  18.143  0.00  0.00    +0.000 C 
ATOM      2  N   UNL     1       3.413   2.848  18.351  0.00  0.00    +0.000 N 
ATOM      3  C   UNL     1       2.463   3.123  19.330  0.00  0.00    +0.000 C 
ATOM      4  O   UNL     1       1.953   2.220  20.002  0.00  0.00    +0.000 OA
ATOM      5  N   UNL     1       2.108   4.455  19.522  0.00  0.00    +0.000 N 
ATOM      6  C   UNL     1       1.108   4.749  20.539  0.00  0.00    +0.000 C 
ATOM      7  C   UNL     1       2.683   5.514  18.763  0.00  0.00    +0.000 A 
ATOM      8  C   UNL     1       2.323   6.856  18.966  0.00  0.00    +0.000 A 
ATOM      9  C   UNL     1       2.898   7.876  18.209  0.00  0.00    +0.000 A 
ATOM     10  C   UNL     1       3.845   7.572  17.236  0.00  0.00    +0.000 A 
ATOM     11  C   UNL     1       4.224   6.242  17.014  0.00  0.00    +0.000 A 
ATOM     12  C   UNL     1       5.174   5.930  16.037  0.00  0.00    +0.000 A 
ATOM     13  C   UNL     1       5.548   4.606  15.819  0.00  0.00    +0.000 A 
ATOM     14  C   UNL     1       4.973   3.586  16.578  0.00  0.00    +0.000 A 
ATOM     15  C   UNL     1       4.015   3.872  17.564  0.00  0.00    +0.000 A 
ATOM     16  C   UNL     1       3.638   5.202  17.786  0.00  0.00    +0.000 A 
ENDROOT
TORSDOF 0
ENDMDL
MODEL 3
REMARK VINA RESULT:      -6.5      2.078      5.031
REMARK  Name = 
REMARK  2 active torsions:
REMARK  status: ('A' for Active; 'I' for Inactive)
REMARK    1  A    between atoms: C_1  and  N_2
REMARK    2  A    between atoms: N_5  and  C_6
REMARK                            x       y       z     vdW  Elec       q    Type
REMARK                         _______ _______ _______ _____ _____    ______ ____
ROOT
ATOM      1  C   UNL     1       4.787   6.238  16.339  0.00  0.00    +0.000 C 
ATOM      2  N   UNL     1       3.910   5.876  17.442  0.00  0.00    +0.000 N 
ATOM      3  C   UNL     1       3.316   6.909  18.162  0.00  0.00    +0.000 C 
ATOM      4  O   UNL     1       3.525   8.093  17.878  0.00  0.00    +0.000 OA
ATOM      5  N   UNL     1       2.480   6.556  19.218  0.00  0.00    +0.000 N 
ATOM      6  C   UNL     1       1.864   7.631  19.981  0.00  0.00    +0.000 C 
ATOM      7  C   UNL     1       2.222   5.199  19.565  0.00  0.00    +0.000 A 
ATOM      8  C   UNL     1       1.373   4.852  20.628  0.00  0.00    +0.000 A 
ATOM      9  C   UNL     1       1.137   3.516  20.951  0.00  0.00    +0.000 A 
ATOM     10  C   UNL     1       1.744   2.504  20.214  0.00  0.00    +0.000 A 
ATOM     11  C   UNL     1       2.594   2.822  19.147  0.00  0.00    +0.000 A 
ATOM     12  C   UNL     1       3.207   1.809  18.404  0.00  0.00    +0.000 A 
ATOM     13  C   UNL     1       4.052   2.130  17.344  0.00  0.00    +0.000 A 
ATOM     14  C   UNL     1       4.287   3.467  17.021  0.00  0.00    +0.000 A 
ATOM     15  C   UNL     1       3.684   4.504  17.752  0.00  0.00    +0.000 A 
ATOM     16  C   UNL     1       2.835   4.184  18.818  0.00  0.00    +0.000 A 
ENDROOT
TORSDOF 0
ENDMDL
MODEL 4
REMARK VINA RESULT:      -6.5      2.076      3.924
REMARK  Name = 
REMARK  2 active torsions:
REMARK  status: ('A' for Active; 'I' for Inactive)
REMARK    1  A    between atoms: C_1  and  N_2
REMARK    2  A    between atoms: N_5  and  C_6
REMARK                            x       y       z     vdW  Elec       q    Type
REMARK                         _______ _______ _______ _____ _____    ______ ____
ROOT
ATOM      1  C   UNL     1       1.910   7.654  19.951  0.00  0.00    +0.000 C 
ATOM      2  N   UNL     1       2.520   6.562  19.208  0.00  0.00    +0.000 N 
ATOM      3  C   UNL     1       3.364   6.892  18.152  0.00  0.00    +0.000 C 
ATOM      4  O   UNL     1       3.589   8.069  17.852  0.00  0.00    +0.000 OA
ATOM      5  N   UNL     1       3.944   5.843  17.443  0.00  0.00    +0.000 N 
ATOM      6  C   UNL     1       4.820   6.181  16.331  0.00  0.00    +0.000 C 
ATOM      7  C   UNL     1       3.702   4.478  17.769  0.00  0.00    +0.000 A 
ATOM      8  C   UNL     1       4.294   3.426  17.052  0.00  0.00    +0.000 A 
ATOM      9  C   UNL     1       4.041   2.096  17.389  0.00  0.00    +0.000 A 
ATOM     10  C   UNL     1       3.192   1.796  18.450  0.00  0.00    +0.000 A 
ATOM     11  C   UNL     1       2.589   2.826  19.183  0.00  0.00    +0.000 A 
ATOM     12  C   UNL     1       1.735   2.531  20.249  0.00  0.00    +0.000 A 
ATOM     13  C   UNL     1       1.138   3.558  20.975  0.00  0.00    +0.000 A 
ATOM     14  C   UNL     1       1.392   4.888  20.639  0.00  0.00    +0.000 A 
ATOM     15  C   UNL     1       2.246   5.213  19.571  0.00  0.00    +0.000 A 
ATOM     16  C   UNL     1       2.847   4.181  18.839  0.00  0.00    +0.000 A 
ENDROOT
TORSDOF 0
ENDMDL
MODEL 5
REMARK VINA RESULT:      -6.4      2.104      3.880
REMARK  Name = 
REMARK  2 active torsions:
REMARK  status: ('A' for Active; 'I' for Inactive)
REMARK    1  A    between atoms: C_1  and  N_2
REMARK    2  A    between atoms: N_5  and  C_6
REMARK                            x       y       z     vdW  Elec       q    Type
REMARK                         _______ _______ _______ _____ _____    ______ ____
ROOT
ATOM      1  C   UNL     1       3.567   7.974  17.819  0.00  0.00    +0.000 C 
ATOM      2  N   UNL     1       3.680   6.524  17.782  0.00  0.00    +0.000 N 
ATOM      3  C   UNL     1       4.497   5.963  16.804  0.00  0.00    +0.000 C 
ATOM      4  O   UNL     1       5.105   6.669  15.993  0.00  0.00    +0.000 OA
ATOM      5  N   UNL     1       4.598   4.575  16.773  0.00  0.00    +0.000 N 
ATOM      6  C   UNL     1       5.443   3.982  15.747  0.00  0.00    +0.000 C 
ATOM      7  C   UNL     1       3.909   3.739  17.697  0.00  0.00    +0.000 A 
ATOM      8  C   UNL     1       4.020   2.340  17.661  0.00  0.00    +0.000 A 
ATOM      9  C   UNL     1       3.333   1.542  18.576  0.00  0.00    +0.000 A 
ATOM     10  C   UNL     1       2.524   2.129  19.542  0.00  0.00    +0.000 A 
ATOM     11  C   UNL     1       2.395   3.523  19.601  0.00  0.00    +0.000 A 
ATOM     12  C   UNL     1       1.583   4.119  20.570  0.00  0.00    +0.000 A 
ATOM     13  C   UNL     1       1.458   5.505  20.625  0.00  0.00    +0.000 A 
ATOM     14  C   UNL     1       2.146   6.303  19.711  0.00  0.00    +0.000 A 
ATOM     15  C   UNL     1       2.968   5.730  18.727  0.00  0.00    +0.000 A 
ATOM     16  C   UNL     1       3.095   4.337  18.669  0.00  0.00    +0.000 A 
ENDROOT
TORSDOF 0
ENDMDL
MODEL 6
REMARK VINA RESULT:      -6.3      1.640      3.926
REMARK  Name = 
REMARK  2 active torsions:
REMARK  status: ('A' for Active; 'I' for Inactive)
REMARK    1  A    between atoms: C_1  and  N_2
REMARK    2  A    between atoms: N_5  and  C_6
REMARK                            x       y       z     vdW  Elec       q    Type
REMARK                         _______ _______ _______ _____ _____    ______ ____
ROOT
ATOM      1  C   UNL     1       4.001   1.836  18.126  0.00  0.00    +0.000 C 
ATOM      2  N   UNL     1       3.875   3.280  17.999  0.00  0.00    +0.000 N 
ATOM      3  C   UNL     1       4.576   3.902  16.969  0.00  0.00    +0.000 C 
ATOM      4  O   UNL     1       5.282   3.254  16.190  0.00  0.00    +0.000 OA
ATOM      5  N   UNL     1       4.452   5.283  16.854  0.00  0.00    +0.000 N 
ATOM      6  C   UNL     1       5.190   5.941  15.785  0.00  0.00    +0.000 C 
ATOM      7  C   UNL     1       3.643   6.053  17.738  0.00  0.00    +0.000 A 
ATOM      8  C   UNL     1       3.521   7.446  17.612  0.00  0.00    +0.000 A 
ATOM      9  C   UNL     1       2.724   8.179  18.491  0.00  0.00    +0.000 A 
ATOM     10  C   UNL     1       2.034   7.531  19.511  0.00  0.00    +0.000 A 
ATOM     11  C   UNL     1       2.138   6.142  19.658  0.00  0.00    +0.000 A 
ATOM     12  C   UNL     1       1.448   5.485  20.682  0.00  0.00    +0.000 A 
ATOM     13  C   UNL     1       1.554   4.104  20.825  0.00  0.00    +0.000 A 
ATOM     14  C   UNL     1       2.350   3.371  19.945  0.00  0.00    +0.000 A 
ATOM     15  C   UNL     1       3.054   4.006  18.909  0.00  0.00    +0.000 A 
ATOM     16  C   UNL     1       2.950   5.395  18.763  0.00  0.00    +0.000 A 
ENDROOT
TORSDOF 0
ENDMDL
MODEL 7
REMARK VINA RESULT:      -6.3      1.628      3.678
REMARK  Name = 
REMARK  2 active torsions:
REMARK  status: ('A' for Active; 'I' for Inactive)
REMARK    1  A    between atoms: C_1  and  N_2
REMARK    2  A    between atoms: N_5  and  C_6
REMARK                            x       y       z     vdW  Elec       q    Type
REMARK                         _______ _______ _______ _____ _____    ______ ____
ROOT
ATOM      1  C   UNL     1       5.194   5.943  15.837  0.00  0.00    +0.000 C 
ATOM      2  N   UNL     1       4.444   5.257  16.877  0.00  0.00    +0.000 N 
ATOM      3  C   UNL     1       4.564   3.872  16.956  0.00  0.00    +0.000 C 
ATOM      4  O   UNL     1       5.282   3.244  16.170  0.00  0.00    +0.000 OA
ATOM      5  N   UNL     1       3.842   3.221  17.952  0.00  0.00    +0.000 N 
ATOM      6  C   UNL     1       3.956   1.773  18.033  0.00  0.00    +0.000 C 
ATOM      7  C   UNL     1       3.009   3.922  18.871  0.00  0.00    +0.000 A 
ATOM      8  C   UNL     1       2.287   3.259  19.876  0.00  0.00    +0.000 A 
ATOM      9  C   UNL     1       1.477   3.966  20.763  0.00  0.00    +0.000 A 
ATOM     10  C   UNL     1       1.375   5.350  20.662  0.00  0.00    +0.000 A 
ATOM     11  C   UNL     1       2.086   6.037  19.669  0.00  0.00    +0.000 A 
ATOM     12  C   UNL     1       1.987   7.428  19.562  0.00  0.00    +0.000 A 
ATOM     13  C   UNL     1       2.695   8.107  18.573  0.00  0.00    +0.000 A 
ATOM     14  C   UNL     1       3.506   7.399  17.686  0.00  0.00    +0.000 A 
ATOM     15  C   UNL     1       3.623   6.002  17.772  0.00  0.00    +0.000 A 
ATOM     16  C   UNL     1       2.912   5.316  18.765  0.00  0.00    +0.000 A 
ENDROOT
TORSDOF 0
ENDMDL
MODEL 8
REMARK VINA RESULT:      -6.3      2.101      5.070
REMARK  Name = 
REMARK  2 active torsions:
REMARK  status: ('A' for Active; 'I' for Inactive)
REMARK    1  A    between atoms: C_1  and  N_2
REMARK    2  A    between atoms: N_5  and  C_6
REMARK                            x       y       z     vdW  Elec       q    Type
REMARK                         _______ _______ _______ _____ _____    ______ ____
ROOT
ATOM      1  C   UNL     1       5.377   4.029  15.757  0.00  0.00    +0.000 C 
ATOM      2  N   UNL     1       4.532   4.620  16.784  0.00  0.00    +0.000 N 
ATOM      3  C   UNL     1       4.415   6.008  16.804  0.00  0.00    +0.000 C 
ATOM      4  O   UNL     1       5.007   6.715  15.982  0.00  0.00    +0.000 OA
ATOM      5  N   UNL     1       3.607   6.567  17.790  0.00  0.00    +0.000 N 
ATOM      6  C   UNL     1       3.489   8.018  17.824  0.00  0.00    +0.000 C 
ATOM      7  C   UNL     1       2.914   5.774  18.749  0.00  0.00    +0.000 A 
ATOM      8  C   UNL     1       2.098   6.347  19.737  0.00  0.00    +0.000 A 
ATOM      9  C   UNL     1       1.430   5.550  20.667  0.00  0.00    +0.000 A 
ATOM     10  C   UNL     1       1.565   4.166  20.622  0.00  0.00    +0.000 A 
ATOM     11  C   UNL     1       2.372   3.569  19.646  0.00  0.00    +0.000 A 
ATOM     12  C   UNL     1       2.513   2.179  19.596  0.00  0.00    +0.000 A 
ATOM     13  C   UNL     1       3.316   1.589  18.624  0.00  0.00    +0.000 A 
ATOM     14  C   UNL     1       3.984   2.386  17.694  0.00  0.00    +0.000 A 
ATOM     15  C   UNL     1       3.860   3.785  17.721  0.00  0.00    +0.000 A 
ATOM     16  C   UNL     1       3.053   4.381  18.698  0.00  0.00    +0.000 A 
ENDROOT
TORSDOF 0
ENDMDL
MODEL 9
REMARK VINA RESULT:      -6.3      1.734      4.386
REMARK  Name = 
REMARK  2 active torsions:
REMARK  status: ('A' for Active; 'I' for Inactive)
REMARK    1  A    between atoms: C_1  and  N_2
REMARK    2  A    between atoms: N_5  and  C_6
REMARK                            x       y       z     vdW  Elec       q    Type
REMARK                         _______ _______ _______ _____ _____    ______ ____
ROOT
ATOM      1  C   UNL     1       4.051   1.638  17.543  0.00  0.00    +0.000 C 
ATOM      2  N   UNL     1       3.787   3.037  17.841  0.00  0.00    +0.000 N 
ATOM      3  C   UNL     1       4.425   3.996  17.058  0.00  0.00    +0.000 C 
ATOM      4  O   UNL     1       5.189   3.673  16.142  0.00  0.00    +0.000 OA
ATOM      5  N   UNL     1       4.170   5.333  17.349  0.00  0.00    +0.000 N 
ATOM      6  C   UNL     1       4.841   6.340  16.540  0.00  0.00    +0.000 C 
ATOM      7  C   UNL     1       3.292   5.732  18.397  0.00  0.00    +0.000 A 
ATOM      8  C   UNL     1       3.038   7.083  18.681  0.00  0.00    +0.000 A 
ATOM      9  C   UNL     1       2.176   7.449  19.715  0.00  0.00    +0.000 A 
ATOM     10  C   UNL     1       1.552   6.469  20.481  0.00  0.00    +0.000 A 
ATOM     11  C   UNL     1       1.787   5.114  20.218  0.00  0.00    +0.000 A 
ATOM     12  C   UNL     1       1.164   4.125  20.986  0.00  0.00    +0.000 A 
ATOM     13  C   UNL     1       1.401   2.779  20.721  0.00  0.00    +0.000 A 
ATOM     14  C   UNL     1       2.263   2.413  19.687  0.00  0.00    +0.000 A 
ATOM     15  C   UNL     1       2.903   3.386  18.901  0.00  0.00    +0.000 A 
ATOM     16  C   UNL     1       2.666   4.741  19.165  0.00  0.00    +0.000 A 
ENDROOT
TORSDOF 0
ENDMDL
