MODEL 1
REMARK VINA RESULT:      -8.6      0.000      0.000
REMARK  Name = 
REMARK  11 active torsions:
REMARK  status: ('A' for Active; 'I' for Inactive)
REMARK    1  A    between atoms: C_1  and  C_2
REMARK    2  A    between atoms: C_2  and  C_3
REMARK    3  A    between atoms: C_3  and  C_4
REMARK    4  A    between atoms: C_4  and  C_5
REMARK    5  A    between atoms: C_5  and  C_6
REMARK    6  A    between atoms: C_6  and  C_7
REMARK    7  A    between atoms: C_7  and  O_9
REMARK    8  A    between atoms: O_9  and  C_10
REMARK    9  A    between atoms: C_17  and  C_18
REMARK   10  A    between atoms: C_20  and  C_21
REMARK   11  A    between atoms: C_26  and  C_27
REMARK                            x       y       z     vdW  Elec       q    Type
REMARK                         _______ _______ _______ _____ _____    ______ ____
ROOT
ATOM      1  C   UNL     1       5.908   6.333  16.820  0.00  0.00    +0.000 A 
ATOM      2  C   UNL     1       6.560   5.264  16.182  0.00  0.00    +0.000 A 
ATOM      3  C   UNL     1       5.928   4.034  16.073  0.00  0.00    +0.000 A 
ATOM      4  C   UNL     1       4.646   3.884  16.582  0.00  0.00    +0.000 A 
ATOM      5  C   UNL     1       3.991   4.961  17.200  0.00  0.00    +0.000 A 
ATOM      6  C   UNL     1       2.692   4.796  17.674  0.00  0.00    +0.000 A 
ATOM      7  C   UNL     1       2.033   5.863  18.258  0.00  0.00    +0.000 A 
ATOM      8  C   UNL     1       2.681   7.090  18.370  0.00  0.00    +0.000 A 
ATOM      9  N   UNL     1       3.949   7.271  17.912  0.00  0.00    +0.000 NA
ATOM     10  C   UNL     1       4.608   6.227  17.336  0.00  0.00    +0.000 A 
ENDROOT
BRANCH   8  11
ATOM     11  C   UNL     1       1.982   8.276  18.916  0.00  0.00    +0.000 A 
ATOM     12  C   UNL     1       2.143   9.554  18.344  0.00  0.00    +0.000 A 
ATOM     13  C   UNL     1       1.632  10.714  18.949  0.00  0.00    +0.000 A 
ATOM     14  C   UNL     1       0.877  10.586  20.123  0.00  0.00    +0.000 A 
ATOM     15  C   UNL     1       0.658   9.327  20.702  0.00  0.00    +0.000 A 
ATOM     16  C   UNL     1       1.209   8.186  20.086  0.00  0.00    +0.000 A 
BRANCH  13  17
ATOM     17  C   UNL     1       1.955  12.081  18.393  0.00  0.00    +0.000 C 
ATOM     18  F   UNL     1       0.857  12.764  17.960  0.00  0.00    +0.000 F 
ATOM     19  F   UNL     1       2.570  12.890  19.295  0.00  0.00    +0.000 F 
ATOM     20  F   UNL     1       2.789  12.010  17.318  0.00  0.00    +0.000 F 
ENDBRANCH  13  17
BRANCH  15  21
ATOM     21  C   UNL     1      -0.098   9.184  22.001  0.00  0.00    +0.000 C 
ATOM     22  F   UNL     1       0.715   9.028  23.084  0.00  0.00    +0.000 F 
ATOM     23  F   UNL     1      -0.884  10.259  22.276  0.00  0.00    +0.000 F 
ATOM     24  F   UNL     1      -0.924   8.101  22.001  0.00  0.00    +0.000 F 
ENDBRANCH  15  21
ENDBRANCH   8  11
BRANCH   1  25
ATOM     25  O   UNL     1       6.533   7.602  16.815  0.00  0.00    +0.000 OA
BRANCH  25  26
ATOM     26  C   UNL     1       7.564   7.815  17.728  0.00  0.00    +0.000 C 
ATOM     27  O   UNL     1       8.040   6.992  18.496  0.00  0.00    +0.000 OA
BRANCH  26  28
ATOM     28  C   UNL     1       8.094   9.219  17.566  0.00  0.00    +0.000 C 
BRANCH  28  29
ATOM     29  C   UNL     1       8.911   9.653  18.772  0.00  0.00    +0.000 C 
BRANCH  29  30
ATOM     30  C   UNL     1       9.265  11.139  18.704  0.00  0.00    +0.000 C 
BRANCH  30  31
ATOM     31  C   UNL     1      10.566  11.338  17.929  0.00  0.00    +0.000 C 
BRANCH  31  33
ATOM     32  C   UNL     1      11.248  11.973  20.259  0.00  0.00    +0.000 C 
ATOM     33  C   UNL     1      11.737  11.664  18.853  0.00  0.00    +0.000 C 
ENDBRANCH  31  33
ENDBRANCH  30  31
ENDBRANCH  29  30
ENDBRANCH  28  29
ENDBRANCH  26  28
ENDBRANCH  25  26
ENDBRANCH   1  25
TORSDOF 10
ENDMDL
MODEL 2
REMARK VINA RESULT:      -8.5      3.146      5.404
REMARK  Name = 
REMARK  11 active torsions:
REMARK  status: ('A' for Active; 'I' for Inactive)
REMARK    1  A    between atoms: C_1  and  C_2
REMARK    2  A    between atoms: C_2  and  C_3
REMARK    3  A    between atoms: C_3  and  C_4
REMARK    4  A    between atoms: C_4  and  C_5
REMARK    5  A    between atoms: C_5  and  C_6
REMARK    6  A    between atoms: C_6  and  C_7
REMARK    7  A    between atoms: C_7  and  O_9
REMARK    8  A    between atoms: O_9  and  C_10
REMARK    9  A    between atoms: C_17  and  C_18
REMARK   10  A    between atoms: C_20  and  C_21
REMARK   11  A    between atoms: C_26  and  C_27
REMARK                            x       y       z     vdW  Elec       q    Type
REMARK                         _______ _______ _______ _____ _____    ______ ____
ROOT
ATOM      1  C   UNL     1       4.201   4.088  18.304  0.00  0.00    +0.000 A 
ATOM      2  C   UNL     1       4.415   2.753  17.925  0.00  0.00    +0.000 A 
ATOM      3  C   UNL     1       3.546   1.762  18.356  0.00  0.00    +0.000 A 
ATOM      4  C   UNL     1       2.459   2.112  19.145  0.00  0.00    +0.000 A 
ATOM      5  C   UNL     1       2.237   3.451  19.504  0.00  0.00    +0.000 A 
ATOM      6  C   UNL     1       1.121   3.782  20.268  0.00  0.00    +0.000 A 
ATOM      7  C   UNL     1       0.883   5.105  20.600  0.00  0.00    +0.000 A 
ATOM      8  C   UNL     1       1.769   6.089  20.169  0.00  0.00    +0.000 A 
ATOM      9  N   UNL     1       2.864   5.785  19.420  0.00  0.00    +0.000 NA
ATOM     10  C   UNL     1       3.108   4.486  19.088  0.00  0.00    +0.000 A 
ENDROOT
BRANCH   8  11
ATOM     11  C   UNL     1       1.507   7.521  20.435  0.00  0.00    +0.000 A 
ATOM     12  C   UNL     1       0.970   7.957  21.663  0.00  0.00    +0.000 A 
ATOM     13  C   UNL     1       0.552   9.282  21.870  0.00  0.00    +0.000 A 
ATOM     14  C   UNL     1       0.740  10.217  20.843  0.00  0.00    +0.000 A 
ATOM     15  C   UNL     1       1.310   9.833  19.619  0.00  0.00    +0.000 A 
ATOM     16  C   UNL     1       1.692   8.491  19.433  0.00  0.00    +0.000 A 
BRANCH  13  17
ATOM     17  C   UNL     1      -0.160   9.677  23.143  0.00  0.00    +0.000 C 
ATOM     18  F   UNL     1       0.528   9.349  24.273  0.00  0.00    +0.000 F 
ATOM     19  F   UNL     1      -0.405  11.010  23.223  0.00  0.00    +0.000 F 
ATOM     20  F   UNL     1      -1.371   9.063  23.260  0.00  0.00    +0.000 F 
ENDBRANCH  13  17
BRANCH  15  21
ATOM     21  C   UNL     1       1.457  10.817  18.483  0.00  0.00    +0.000 C 
ATOM     22  F   UNL     1       2.139  11.944  18.831  0.00  0.00    +0.000 F 
ATOM     23  F   UNL     1       2.118  10.296  17.415  0.00  0.00    +0.000 F 
ATOM     24  F   UNL     1       0.253  11.245  18.011  0.00  0.00    +0.000 F 
ENDBRANCH  15  21
ENDBRANCH   8  11
BRANCH   1  25
ATOM     25  O   UNL     1       5.039   5.087  17.755  0.00  0.00    +0.000 OA
BRANCH  25  26
ATOM     26  C   UNL     1       6.314   5.227  18.301  0.00  0.00    +0.000 C 
ATOM     27  O   UNL     1       6.616   5.143  19.482  0.00  0.00    +0.000 OA
BRANCH  26  28
ATOM     28  C   UNL     1       7.317   5.405  17.187  0.00  0.00    +0.000 C 
BRANCH  28  29
ATOM     29  C   UNL     1       7.150   4.348  16.107  0.00  0.00    +0.000 C 
BRANCH  29  30
ATOM     30  C   UNL     1       6.735   4.969  14.773  0.00  0.00    +0.000 C 
BRANCH  30  31
ATOM     31  C   UNL     1       5.809   4.020  14.014  0.00  0.00    +0.000 C 
BRANCH  31  33
ATOM     32  C   UNL     1       5.327   2.939  11.801  0.00  0.00    +0.000 C 
ATOM     33  C   UNL     1       6.375   3.642  12.648  0.00  0.00    +0.000 C 
ENDBRANCH  31  33
ENDBRANCH  30  31
ENDBRANCH  29  30
ENDBRANCH  28  29
ENDBRANCH  26  28
ENDBRANCH  25  26
ENDBRANCH   1  25
TORSDOF 10
ENDMDL
MODEL 3
REMARK VINA RESULT:      -8.4      3.845      5.885
REMARK  Name = 
REMARK  11 active torsions:
REMARK  status: ('A' for Active; 'I' for Inactive)
REMARK    1  A    between atoms: C_1  and  C_2
REMARK    2  A    between atoms: C_2  and  C_3
REMARK    3  A    between atoms: C_3  and  C_4
REMARK    4  A    between atoms: C_4  and  C_5
REMARK    5  A    between atoms: C_5  and  C_6
REMARK    6  A    between atoms: C_6  and  C_7
REMARK    7  A    between atoms: C_7  and  O_9
REMARK    8  A    between atoms: O_9  and  C_10
REMARK    9  A    between atoms: C_17  and  C_18
REMARK   10  A    between atoms: C_20  and  C_21
REMARK   11  A    between atoms: C_26  and  C_27
REMARK                            x       y       z     vdW  Elec       q    Type
REMARK                         _______ _______ _______ _____ _____    ______ ____
ROOT
ATOM      1  C   UNL     1       3.633   5.182  19.854  0.00  0.00    +0.000 A 
ATOM      2  C   UNL     1       4.677   4.355  19.410  0.00  0.00    +0.000 A 
ATOM      3  C   UNL     1       5.332   4.645  18.222  0.00  0.00    +0.000 A 
ATOM      4  C   UNL     1       4.956   5.767  17.498  0.00  0.00    +0.000 A 
ATOM      5  C   UNL     1       3.925   6.603  17.957  0.00  0.00    +0.000 A 
ATOM      6  C   UNL     1       3.587   7.741  17.230  0.00  0.00    +0.000 A 
ATOM      7  C   UNL     1       2.591   8.582  17.695  0.00  0.00    +0.000 A 
ATOM      8  C   UNL     1       1.934   8.275  18.884  0.00  0.00    +0.000 A 
ATOM      9  N   UNL     1       2.252   7.168  19.608  0.00  0.00    +0.000 NA
ATOM     10  C   UNL     1       3.230   6.333  19.160  0.00  0.00    +0.000 A 
ENDROOT
BRANCH   8  11
ATOM     11  C   UNL     1       0.920   9.191  19.454  0.00  0.00    +0.000 A 
ATOM     12  C   UNL     1       0.299  10.183  18.669  0.00  0.00    +0.000 A 
ATOM     13  C   UNL     1      -0.530  11.170  19.228  0.00  0.00    +0.000 A 
ATOM     14  C   UNL     1      -0.803  11.122  20.602  0.00  0.00    +0.000 A 
ATOM     15  C   UNL     1      -0.238  10.124  21.412  0.00  0.00    +0.000 A 
ATOM     16  C   UNL     1       0.612   9.167  20.825  0.00  0.00    +0.000 A 
BRANCH  13  17
ATOM     17  C   UNL     1      -1.053  12.308  18.384  0.00  0.00    +0.000 C 
ATOM     18  F   UNL     1      -0.075  13.149  17.942  0.00  0.00    +0.000 F 
ATOM     19  F   UNL     1      -1.717  11.887  17.276  0.00  0.00    +0.000 F 
ATOM     20  F   UNL     1      -1.927  13.094  19.073  0.00  0.00    +0.000 F 
ENDBRANCH  13  17
BRANCH  15  21
ATOM     21  C   UNL     1      -0.473  10.102  22.903  0.00  0.00    +0.000 C 
ATOM     22  F   UNL     1       0.629   9.739  23.618  0.00  0.00    +0.000 F 
ATOM     23  F   UNL     1      -0.858  11.309  23.396  0.00  0.00    +0.000 F 
ATOM     24  F   UNL     1      -1.450   9.220  23.258  0.00  0.00    +0.000 F 
ENDBRANCH  15  21
ENDBRANCH   8  11
BRANCH   1  25
ATOM     25  O   UNL     1       3.062   4.924  21.123  0.00  0.00    +0.000 OA
BRANCH  25  26
ATOM     26  C   UNL     1       2.303   3.763  21.262  0.00  0.00    +0.000 C 
ATOM     27  O   UNL     1       2.624   2.749  21.864  0.00  0.00    +0.000 OA
BRANCH  26  28
ATOM     28  C   UNL     1       0.949   3.973  20.629  0.00  0.00    +0.000 C 
BRANCH  28  29
ATOM     29  C   UNL     1       0.710   3.005  19.482  0.00  0.00    +0.000 C 
BRANCH  29  30
ATOM     30  C   UNL     1       1.137   3.606  18.142  0.00  0.00    +0.000 C 
BRANCH  30  31
ATOM     31  C   UNL     1       2.214   2.737  17.493  0.00  0.00    +0.000 C 
BRANCH  31  33
ATOM     32  C   UNL     1       3.984   1.205  18.398  0.00  0.00    +0.000 C 
ATOM     33  C   UNL     1       2.491   1.473  18.302  0.00  0.00    +0.000 C 
ENDBRANCH  31  33
ENDBRANCH  30  31
ENDBRANCH  29  30
ENDBRANCH  28  29
ENDBRANCH  26  28
ENDBRANCH  25  26
ENDBRANCH   1  25
TORSDOF 10
ENDMDL
MODEL 4
REMARK VINA RESULT:      -8.4      1.770      3.906
REMARK  Name = 
REMARK  11 active torsions:
REMARK  status: ('A' for Active; 'I' for Inactive)
REMARK    1  A    between atoms: C_1  and  C_2
REMARK    2  A    between atoms: C_2  and  C_3
REMARK    3  A    between atoms: C_3  and  C_4
REMARK    4  A    between atoms: C_4  and  C_5
REMARK    5  A    between atoms: C_5  and  C_6
REMARK    6  A    between atoms: C_6  and  C_7
REMARK    7  A    between atoms: C_7  and  O_9
REMARK    8  A    between atoms: O_9  and  C_10
REMARK    9  A    between atoms: C_17  and  C_18
REMARK   10  A    between atoms: C_20  and  C_21
REMARK   11  A    between atoms: C_26  and  C_27
REMARK                            x       y       z     vdW  Elec       q    Type
REMARK                         _______ _______ _______ _____ _____    ______ ____
ROOT
ATOM      1  C   UNL     1       4.259   3.992  18.301  0.00  0.00    +0.000 A 
ATOM      2  C   UNL     1       4.468   2.659  17.910  0.00  0.00    +0.000 A 
ATOM      3  C   UNL     1       3.565   1.677  18.290  0.00  0.00    +0.000 A 
ATOM      4  C   UNL     1       2.452   2.034  19.039  0.00  0.00    +0.000 A 
ATOM      5  C   UNL     1       2.237   3.371  19.409  0.00  0.00    +0.000 A 
ATOM      6  C   UNL     1       1.096   3.710  20.132  0.00  0.00    +0.000 A 
ATOM      7  C   UNL     1       0.866   5.031  20.473  0.00  0.00    +0.000 A 
ATOM      8  C   UNL     1       1.785   6.006  20.095  0.00  0.00    +0.000 A 
ATOM      9  N   UNL     1       2.905   5.695  19.387  0.00  0.00    +0.000 NA
ATOM     10  C   UNL     1       3.141   4.397  19.045  0.00  0.00    +0.000 A 
ENDROOT
BRANCH   8  11
ATOM     11  C   UNL     1       1.536   7.439  20.372  0.00  0.00    +0.000 A 
ATOM     12  C   UNL     1       0.998   7.869  21.602  0.00  0.00    +0.000 A 
ATOM     13  C   UNL     1       0.592   9.196  21.819  0.00  0.00    +0.000 A 
ATOM     14  C   UNL     1       0.793  10.138  20.800  0.00  0.00    +0.000 A 
ATOM     15  C   UNL     1       1.364   9.759  19.575  0.00  0.00    +0.000 A 
ATOM     16  C   UNL     1       1.734   8.415  19.380  0.00  0.00    +0.000 A 
BRANCH  13  17
ATOM     17  C   UNL     1      -0.122   9.587  23.092  0.00  0.00    +0.000 C 
ATOM     18  F   UNL     1      -1.269   8.882  23.308  0.00  0.00    +0.000 F 
ATOM     19  F   UNL     1       0.641   9.415  24.203  0.00  0.00    +0.000 F 
ATOM     20  F   UNL     1      -0.493  10.897  23.086  0.00  0.00    +0.000 F 
ENDBRANCH  13  17
BRANCH  15  21
ATOM     21  C   UNL     1       1.525  10.751  18.449  0.00  0.00    +0.000 C 
ATOM     22  F   UNL     1       0.343  11.275  18.018  0.00  0.00    +0.000 F 
ATOM     23  F   UNL     1       2.304  11.813  18.786  0.00  0.00    +0.000 F 
ATOM     24  F   UNL     1       2.103  10.193  17.348  0.00  0.00    +0.000 F 
ENDBRANCH  15  21
ENDBRANCH   8  11
BRANCH   1  25
ATOM     25  O   UNL     1       5.136   4.986  17.803  0.00  0.00    +0.000 OA
BRANCH  25  26
ATOM     26  C   UNL     1       6.344   5.171  18.474  0.00  0.00    +0.000 C 
ATOM     27  O   UNL     1       6.530   5.082  19.678  0.00  0.00    +0.000 OA
BRANCH  26  28
ATOM     28  C   UNL     1       7.442   5.409  17.467  0.00  0.00    +0.000 C 
BRANCH  28  29
ATOM     29  C   UNL     1       7.575   6.883  17.120  0.00  0.00    +0.000 C 
BRANCH  29  30
ATOM     30  C   UNL     1       8.137   7.688  18.292  0.00  0.00    +0.000 C 
BRANCH  30  31
ATOM     31  C   UNL     1       8.139   9.178  17.958  0.00  0.00    +0.000 C 
BRANCH  31  33
ATOM     32  C   UNL     1       9.547  11.239  18.224  0.00  0.00    +0.000 C 
ATOM     33  C   UNL     1       9.041   9.973  18.898  0.00  0.00    +0.000 C 
ENDBRANCH  31  33
ENDBRANCH  30  31
ENDBRANCH  29  30
ENDBRANCH  28  29
ENDBRANCH  26  28
ENDBRANCH  25  26
ENDBRANCH   1  25
TORSDOF 10
ENDMDL
MODEL 5
REMARK VINA RESULT:      -8.3      0.524      1.162
REMARK  Name = 
REMARK  11 active torsions:
REMARK  status: ('A' for Active; 'I' for Inactive)
REMARK    1  A    between atoms: C_1  and  C_2
REMARK    2  A    between atoms: C_2  and  C_3
REMARK    3  A    between atoms: C_3  and  C_4
REMARK    4  A    between atoms: C_4  and  C_5
REMARK    5  A    between atoms: C_5  and  C_6
REMARK    6  A    between atoms: C_6  and  C_7
REMARK    7  A    between atoms: C_7  and  O_9
REMARK    8  A    between atoms: O_9  and  C_10
REMARK    9  A    between atoms: C_17  and  C_18
REMARK   10  A    between atoms: C_20  and  C_21
REMARK   11  A    between atoms: C_26  and  C_27
REMARK                            x       y       z     vdW  Elec       q    Type
REMARK                         _______ _______ _______ _____ _____    ______ ____
ROOT
ATOM      1  C   UNL     1       6.061   6.407  16.832  0.00  0.00    +0.000 A 
ATOM      2  C   UNL     1       6.741   5.353  16.199  0.00  0.00    +0.000 A 
ATOM      3  C   UNL     1       6.130   4.116  16.066  0.00  0.00    +0.000 A 
ATOM      4  C   UNL     1       4.839   3.943  16.546  0.00  0.00    +0.000 A 
ATOM      5  C   UNL     1       4.156   5.005  17.159  0.00  0.00    +0.000 A 
ATOM      6  C   UNL     1       2.850   4.817  17.604  0.00  0.00    +0.000 A 
ATOM      7  C   UNL     1       2.163   5.870  18.182  0.00  0.00    +0.000 A 
ATOM      8  C   UNL     1       2.792   7.105  18.319  0.00  0.00    +0.000 A 
ATOM      9  N   UNL     1       4.066   7.308  17.889  0.00  0.00    +0.000 NA
ATOM     10  C   UNL     1       4.752   6.278  17.318  0.00  0.00    +0.000 A 
ENDROOT
BRANCH   8  11
ATOM     11  C   UNL     1       2.064   8.276  18.860  0.00  0.00    +0.000 A 
ATOM     12  C   UNL     1       2.204   9.558  18.291  0.00  0.00    +0.000 A 
ATOM     13  C   UNL     1       1.665  10.707  18.892  0.00  0.00    +0.000 A 
ATOM     14  C   UNL     1       0.902  10.563  20.059  0.00  0.00    +0.000 A 
ATOM     15  C   UNL     1       0.703   9.298  20.634  0.00  0.00    +0.000 A 
ATOM     16  C   UNL     1       1.281   8.170  20.023  0.00  0.00    +0.000 A 
BRANCH  13  17
ATOM     17  C   UNL     1       1.966  12.081  18.340  0.00  0.00    +0.000 C 
ATOM     18  F   UNL     1       2.691  12.054  17.187  0.00  0.00    +0.000 F 
ATOM     19  F   UNL     1       0.847  12.800  18.065  0.00  0.00    +0.000 F 
ATOM     20  F   UNL     1       2.693  12.833  19.213  0.00  0.00    +0.000 F 
ENDBRANCH  13  17
BRANCH  15  21
ATOM     21  C   UNL     1      -0.062   9.139  21.926  0.00  0.00    +0.000 C 
ATOM     22  F   UNL     1      -0.883   8.052  21.936  0.00  0.00    +0.000 F 
ATOM     23  F   UNL     1       0.750   9.004  23.009  0.00  0.00    +0.000 F 
ATOM     24  F   UNL     1      -0.864  10.209  22.186  0.00  0.00    +0.000 F 
ENDBRANCH  15  21
ENDBRANCH   8  11
BRANCH   1  25
ATOM     25  O   UNL     1       6.667   7.686  16.850  0.00  0.00    +0.000 OA
BRANCH  25  26
ATOM     26  C   UNL     1       7.686   7.900  17.777  0.00  0.00    +0.000 C 
ATOM     27  O   UNL     1       8.133   7.086  18.572  0.00  0.00    +0.000 OA
BRANCH  26  28
ATOM     28  C   UNL     1       8.246   9.289  17.591  0.00  0.00    +0.000 C 
BRANCH  28  29
ATOM     29  C   UNL     1       8.918   9.797  18.857  0.00  0.00    +0.000 C 
BRANCH  29  30
ATOM     30  C   UNL     1       9.717  11.074  18.594  0.00  0.00    +0.000 C 
BRANCH  30  31
ATOM     31  C   UNL     1      10.620  11.386  19.786  0.00  0.00    +0.000 C 
BRANCH  31  33
ATOM     32  C   UNL     1       9.875  13.206  21.346  0.00  0.00    +0.000 C 
ATOM     33  C   UNL     1       9.815  11.719  21.040  0.00  0.00    +0.000 C 
ENDBRANCH  31  33
ENDBRANCH  30  31
ENDBRANCH  29  30
ENDBRANCH  28  29
ENDBRANCH  26  28
ENDBRANCH  25  26
ENDBRANCH   1  25
TORSDOF 10
ENDMDL
MODEL 6
REMARK VINA RESULT:      -8.1      3.869      6.452
REMARK  Name = 
REMARK  11 active torsions:
REMARK  status: ('A' for Active; 'I' for Inactive)
REMARK    1  A    between atoms: C_1  and  C_2
REMARK    2  A    between atoms: C_2  and  C_3
REMARK    3  A    between atoms: C_3  and  C_4
REMARK    4  A    between atoms: C_4  and  C_5
REMARK    5  A    between atoms: C_5  and  C_6
REMARK    6  A    between atoms: C_6  and  C_7
REMARK    7  A    between atoms: C_7  and  O_9
REMARK    8  A    between atoms: O_9  and  C_10
REMARK    9  A    between atoms: C_17  and  C_18
REMARK   10  A    between atoms: C_20  and  C_21
REMARK   11  A    between atoms: C_26  and  C_27
REMARK                            x       y       z     vdW  Elec       q    Type
REMARK                         _______ _______ _______ _____ _____    ______ ____
ROOT
ATOM      1  C   UNL     1       3.820   4.753  19.740  0.00  0.00    +0.000 A 
ATOM      2  C   UNL     1       4.870   3.901  19.360  0.00  0.00    +0.000 A 
ATOM      3  C   UNL     1       5.634   4.200  18.242  0.00  0.00    +0.000 A 
ATOM      4  C   UNL     1       5.360   5.356  17.523  0.00  0.00    +0.000 A 
ATOM      5  C   UNL     1       4.323   6.215  17.920  0.00  0.00    +0.000 A 
ATOM      6  C   UNL     1       4.087   7.385  17.202  0.00  0.00    +0.000 A 
ATOM      7  C   UNL     1       3.085   8.249  17.607  0.00  0.00    +0.000 A 
ATOM      8  C   UNL     1       2.318   7.932  18.725  0.00  0.00    +0.000 A 
ATOM      9  N   UNL     1       2.534   6.795  19.440  0.00  0.00    +0.000 NA
ATOM     10  C   UNL     1       3.518   5.937  19.050  0.00  0.00    +0.000 A 
ENDROOT
BRANCH   8  11
ATOM     11  C   UNL     1       1.290   8.868  19.236  0.00  0.00    +0.000 A 
ATOM     12  C   UNL     1       1.123   9.098  20.617  0.00  0.00    +0.000 A 
ATOM     13  C   UNL     1       0.047   9.841  21.127  0.00  0.00    +0.000 A 
ATOM     14  C   UNL     1      -0.851  10.432  20.228  0.00  0.00    +0.000 A 
ATOM     15  C   UNL     1      -0.696  10.263  18.844  0.00  0.00    +0.000 A 
ATOM     16  C   UNL     1       0.377   9.488  18.365  0.00  0.00    +0.000 A 
BRANCH  13  17
ATOM     17  C   UNL     1      -0.189   9.937  22.617  0.00  0.00    +0.000 C 
ATOM     18  F   UNL     1      -1.233   9.175  23.050  0.00  0.00    +0.000 F 
ATOM     19  F   UNL     1       0.888   9.552  23.350  0.00  0.00    +0.000 F 
ATOM     20  F   UNL     1      -0.476  11.210  23.007  0.00  0.00    +0.000 F 
ENDBRANCH  13  17
BRANCH  15  21
ATOM     21  C   UNL     1      -1.694  10.841  17.869  0.00  0.00    +0.000 C 
ATOM     22  F   UNL     1      -2.982  10.766  18.308  0.00  0.00    +0.000 F 
ATOM     23  F   UNL     1      -1.468  12.153  17.595  0.00  0.00    +0.000 F 
ATOM     24  F   UNL     1      -1.677  10.196  16.669  0.00  0.00    +0.000 F 
ENDBRANCH  15  21
ENDBRANCH   8  11
BRANCH   1  25
ATOM     25  O   UNL     1       3.134   4.480  20.947  0.00  0.00    +0.000 OA
BRANCH  25  26
ATOM     26  C   UNL     1       2.851   3.147  21.238  0.00  0.00    +0.000 C 
ATOM     27  O   UNL     1       3.649   2.294  21.599  0.00  0.00    +0.000 OA
BRANCH  26  28
ATOM     28  C   UNL     1       1.363   2.918  21.136  0.00  0.00    +0.000 C 
BRANCH  28  29
ATOM     29  C   UNL     1       0.700   3.933  20.220  0.00  0.00    +0.000 C 
BRANCH  29  30
ATOM     30  C   UNL     1       0.690   3.455  18.767  0.00  0.00    +0.000 C 
BRANCH  30  31
ATOM     31  C   UNL     1       1.291   2.054  18.667  0.00  0.00    +0.000 C 
BRANCH  31  33
ATOM     32  C   UNL     1       3.597   1.179  18.206  0.00  0.00    +0.000 C 
ATOM     33  C   UNL     1       2.437   1.996  17.661  0.00  0.00    +0.000 C 
ENDBRANCH  31  33
ENDBRANCH  30  31
ENDBRANCH  29  30
ENDBRANCH  28  29
ENDBRANCH  26  28
ENDBRANCH  25  26
ENDBRANCH   1  25
TORSDOF 10
ENDMDL
MODEL 7
REMARK VINA RESULT:      -8.0      3.962      6.219
REMARK  Name = 
REMARK  11 active torsions:
REMARK  status: ('A' for Active; 'I' for Inactive)
REMARK    1  A    between atoms: C_1  and  C_2
REMARK    2  A    between atoms: C_2  and  C_3
REMARK    3  A    between atoms: C_3  and  C_4
REMARK    4  A    between atoms: C_4  and  C_5
REMARK    5  A    between atoms: C_5  and  C_6
REMARK    6  A    between atoms: C_6  and  C_7
REMARK    7  A    between atoms: C_7  and  O_9
REMARK    8  A    between atoms: O_9  and  C_10
REMARK    9  A    between atoms: C_17  and  C_18
REMARK   10  A    between atoms: C_20  and  C_21
REMARK   11  A    between atoms: C_26  and  C_27
REMARK                            x       y       z     vdW  Elec       q    Type
REMARK                         _______ _______ _______ _____ _____    ______ ____
ROOT
ATOM      1  C   UNL     1       3.439   5.390  19.938  0.00  0.00    +0.000 A 
ATOM      2  C   UNL     1       4.531   4.526  19.753  0.00  0.00    +0.000 A 
ATOM      3  C   UNL     1       5.380   4.705  18.671  0.00  0.00    +0.000 A 
ATOM      4  C   UNL     1       5.146   5.755  17.794  0.00  0.00    +0.000 A 
ATOM      5  C   UNL     1       4.066   6.628  17.995  0.00  0.00    +0.000 A 
ATOM      6  C   UNL     1       3.870   7.694  17.120  0.00  0.00    +0.000 A 
ATOM      7  C   UNL     1       2.823   8.574  17.332  0.00  0.00    +0.000 A 
ATOM      8  C   UNL     1       1.972   8.377  18.416  0.00  0.00    +0.000 A 
ATOM      9  N   UNL     1       2.148   7.343  19.283  0.00  0.00    +0.000 NA
ATOM     10  C   UNL     1       3.175   6.470  19.083  0.00  0.00    +0.000 A 
ENDROOT
BRANCH   8  11
ATOM     11  C   UNL     1       0.890   9.341  18.722  0.00  0.00    +0.000 A 
ATOM     12  C   UNL     1      -0.304   9.370  17.973  0.00  0.00    +0.000 A 
ATOM     13  C   UNL     1      -1.262  10.385  18.132  0.00  0.00    +0.000 A 
ATOM     14  C   UNL     1      -1.055  11.360  19.117  0.00  0.00    +0.000 A 
ATOM     15  C   UNL     1       0.101  11.342  19.912  0.00  0.00    +0.000 A 
ATOM     16  C   UNL     1       1.056  10.328  19.709  0.00  0.00    +0.000 A 
BRANCH  13  17
ATOM     17  C   UNL     1      -2.454  10.473  17.207  0.00  0.00    +0.000 C 
ATOM     18  F   UNL     1      -3.178  11.617  17.364  0.00  0.00    +0.000 F 
ATOM     19  F   UNL     1      -2.112  10.421  15.893  0.00  0.00    +0.000 F 
ATOM     20  F   UNL     1      -3.333   9.452  17.410  0.00  0.00    +0.000 F 
ENDBRANCH  13  17
BRANCH  15  21
ATOM     21  C   UNL     1       0.365  12.425  20.931  0.00  0.00    +0.000 C 
ATOM     22  F   UNL     1       1.688  12.720  21.074  0.00  0.00    +0.000 F 
ATOM     23  F   UNL     1      -0.249  13.599  20.627  0.00  0.00    +0.000 F 
ATOM     24  F   UNL     1      -0.072  12.081  22.175  0.00  0.00    +0.000 F 
ENDBRANCH  15  21
ENDBRANCH   8  11
BRANCH   1  25
ATOM     25  O   UNL     1       2.660   5.250  21.111  0.00  0.00    +0.000 OA
BRANCH  25  26
ATOM     26  C   UNL     1       1.955   4.058  21.276  0.00  0.00    +0.000 C 
ATOM     27  O   UNL     1       2.234   3.145  22.039  0.00  0.00    +0.000 OA
BRANCH  26  28
ATOM     28  C   UNL     1       0.708   4.094  20.426  0.00  0.00    +0.000 C 
BRANCH  28  29
ATOM     29  C   UNL     1       0.738   3.029  19.342  0.00  0.00    +0.000 C 
BRANCH  29  30
ATOM     30  C   UNL     1       1.283   3.582  18.026  0.00  0.00    +0.000 C 
BRANCH  30  31
ATOM     31  C   UNL     1       2.409   2.691  17.503  0.00  0.00    +0.000 C 
BRANCH  31  33
ATOM     32  C   UNL     1       4.177   1.177  18.443  0.00  0.00    +0.000 C 
ATOM     33  C   UNL     1       2.697   1.525  18.446  0.00  0.00    +0.000 C 
ENDBRANCH  31  33
ENDBRANCH  30  31
ENDBRANCH  29  30
ENDBRANCH  28  29
ENDBRANCH  26  28
ENDBRANCH  25  26
ENDBRANCH   1  25
TORSDOF 10
ENDMDL
MODEL 8
REMARK VINA RESULT:      -7.9      3.803      6.385
REMARK  Name = 
REMARK  11 active torsions:
REMARK  status: ('A' for Active; 'I' for Inactive)
REMARK    1  A    between atoms: C_1  and  C_2
REMARK    2  A    between atoms: C_2  and  C_3
REMARK    3  A    between atoms: C_3  and  C_4
REMARK    4  A    between atoms: C_4  and  C_5
REMARK    5  A    between atoms: C_5  and  C_6
REMARK    6  A    between atoms: C_6  and  C_7
REMARK    7  A    between atoms: C_7  and  O_9
REMARK    8  A    between atoms: O_9  and  C_10
REMARK    9  A    between atoms: C_17  and  C_18
REMARK   10  A    between atoms: C_20  and  C_21
REMARK   11  A    between atoms: C_26  and  C_27
REMARK                            x       y       z     vdW  Elec       q    Type
REMARK                         _______ _______ _______ _____ _____    ______ ____
ROOT
ATOM      1  C   UNL     1       3.924   5.172  19.703  0.00  0.00    +0.000 A 
ATOM      2  C   UNL     1       4.961   4.346  19.238  0.00  0.00    +0.000 A 
ATOM      3  C   UNL     1       5.586   4.630  18.033  0.00  0.00    +0.000 A 
ATOM      4  C   UNL     1       5.188   5.746  17.311  0.00  0.00    +0.000 A 
ATOM      5  C   UNL     1       4.165   6.581  17.790  0.00  0.00    +0.000 A 
ATOM      6  C   UNL     1       3.804   7.713  17.064  0.00  0.00    +0.000 A 
ATOM      7  C   UNL     1       2.817   8.553  17.547  0.00  0.00    +0.000 A 
ATOM      8  C   UNL     1       2.190   8.251  18.753  0.00  0.00    +0.000 A 
ATOM      9  N   UNL     1       2.529   7.150  19.477  0.00  0.00    +0.000 NA
ATOM     10  C   UNL     1       3.500   6.316  19.010  0.00  0.00    +0.000 A 
ENDROOT
BRANCH   8  11
ATOM     11  C   UNL     1       1.186   9.166  19.341  0.00  0.00    +0.000 A 
ATOM     12  C   UNL     1       0.935   9.191  20.728  0.00  0.00    +0.000 A 
ATOM     13  C   UNL     1      -0.130   9.920  21.284  0.00  0.00    +0.000 A 
ATOM     14  C   UNL     1      -0.925  10.704  20.436  0.00  0.00    +0.000 A 
ATOM     15  C   UNL     1      -0.682  10.740  19.054  0.00  0.00    +0.000 A 
ATOM     16  C   UNL     1       0.375   9.975  18.526  0.00  0.00    +0.000 A 
BRANCH  13  17
ATOM     17  C   UNL     1      -0.464   9.801  22.752  0.00  0.00    +0.000 C 
ATOM     18  F   UNL     1      -1.138  10.879  23.244  0.00  0.00    +0.000 F 
ATOM     19  F   UNL     1      -1.232   8.716  23.036  0.00  0.00    +0.000 F 
ATOM     20  F   UNL     1       0.653   9.685  23.522  0.00  0.00    +0.000 F 
ENDBRANCH  13  17
BRANCH  15  21
ATOM     21  C   UNL     1      -1.571  11.529  18.125  0.00  0.00    +0.000 C 
ATOM     22  F   UNL     1      -1.031  12.721  17.743  0.00  0.00    +0.000 F 
ATOM     23  F   UNL     1      -1.858  10.863  16.974  0.00  0.00    +0.000 F 
ATOM     24  F   UNL     1      -2.771  11.834  18.693  0.00  0.00    +0.000 F 
ENDBRANCH  15  21
ENDBRANCH   8  11
BRANCH   1  25
ATOM     25  O   UNL     1       3.385   4.919  20.987  0.00  0.00    +0.000 OA
BRANCH  25  26
ATOM     26  C   UNL     1       2.149   4.278  21.050  0.00  0.00    +0.000 C 
ATOM     27  O   UNL     1       1.064   4.754  20.751  0.00  0.00    +0.000 OA
BRANCH  26  28
ATOM     28  C   UNL     1       2.353   2.840  21.459  0.00  0.00    +0.000 C 
BRANCH  28  29
ATOM     29  C   UNL     1       2.763   1.974  20.280  0.00  0.00    +0.000 C 
BRANCH  29  30
ATOM     30  C   UNL     1       1.723   2.019  19.161  0.00  0.00    +0.000 C 
BRANCH  30  31
ATOM     31  C   UNL     1       2.408   1.936  17.798  0.00  0.00    +0.000 C 
BRANCH  31  33
ATOM     32  C   UNL     1       1.225   4.126  17.478  0.00  0.00    +0.000 C 
ATOM     33  C   UNL     1       2.431   3.287  17.088  0.00  0.00    +0.000 C 
ENDBRANCH  31  33
ENDBRANCH  30  31
ENDBRANCH  29  30
ENDBRANCH  28  29
ENDBRANCH  26  28
ENDBRANCH  25  26
ENDBRANCH   1  25
TORSDOF 10
ENDMDL
MODEL 9
REMARK VINA RESULT:      -7.9      3.251      5.569
REMARK  Name = 
REMARK  11 active torsions:
REMARK  status: ('A' for Active; 'I' for Inactive)
REMARK    1  A    between atoms: C_1  and  C_2
REMARK    2  A    between atoms: C_2  and  C_3
REMARK    3  A    between atoms: C_3  and  C_4
REMARK    4  A    between atoms: C_4  and  C_5
REMARK    5  A    between atoms: C_5  and  C_6
REMARK    6  A    between atoms: C_6  and  C_7
REMARK    7  A    between atoms: C_7  and  O_9
REMARK    8  A    between atoms: O_9  and  C_10
REMARK    9  A    between atoms: C_17  and  C_18
REMARK   10  A    between atoms: C_20  and  C_21
REMARK   11  A    between atoms: C_26  and  C_27
REMARK                            x       y       z     vdW  Elec       q    Type
REMARK                         _______ _______ _______ _____ _____    ______ ____
ROOT
ATOM      1  C   UNL     1       4.545   4.203  18.819  0.00  0.00    +0.000 A 
ATOM      2  C   UNL     1       4.826   2.875  18.459  0.00  0.00    +0.000 A 
ATOM      3  C   UNL     1       3.897   1.877  18.714  0.00  0.00    +0.000 A 
ATOM      4  C   UNL     1       2.688   2.213  19.306  0.00  0.00    +0.000 A 
ATOM      5  C   UNL     1       2.403   3.546  19.645  0.00  0.00    +0.000 A 
ATOM      6  C   UNL     1       1.170   3.864  20.208  0.00  0.00    +0.000 A 
ATOM      7  C   UNL     1       0.875   5.181  20.516  0.00  0.00    +0.000 A 
ATOM      8  C   UNL     1       1.821   6.172  20.265  0.00  0.00    +0.000 A 
ATOM      9  N   UNL     1       3.030   5.881  19.714  0.00  0.00    +0.000 NA
ATOM     10  C   UNL     1       3.331   4.588  19.407  0.00  0.00    +0.000 A 
ENDROOT
BRANCH   8  11
ATOM     11  C   UNL     1       1.512   7.599  20.507  0.00  0.00    +0.000 A 
ATOM     12  C   UNL     1       0.948   8.036  21.723  0.00  0.00    +0.000 A 
ATOM     13  C   UNL     1       0.488   9.351  21.905  0.00  0.00    +0.000 A 
ATOM     14  C   UNL     1       0.660  10.276  20.867  0.00  0.00    +0.000 A 
ATOM     15  C   UNL     1       1.256   9.892  19.655  0.00  0.00    +0.000 A 
ATOM     16  C   UNL     1       1.680   8.559  19.494  0.00  0.00    +0.000 A 
BRANCH  13  17
ATOM     17  C   UNL     1      -0.251   9.742  23.163  0.00  0.00    +0.000 C 
ATOM     18  F   UNL     1      -0.472  11.084  23.267  0.00  0.00    +0.000 F 
ATOM     19  F   UNL     1      -1.469   9.150  23.271  0.00  0.00    +0.000 F 
ATOM     20  F   UNL     1       0.438   9.397  24.287  0.00  0.00    +0.000 F 
ENDBRANCH  13  17
BRANCH  15  21
ATOM     21  C   UNL     1       1.387  10.863  18.507  0.00  0.00    +0.000 C 
ATOM     22  F   UNL     1       1.662  12.137  18.906  0.00  0.00    +0.000 F 
ATOM     23  F   UNL     1       2.375  10.523  17.636  0.00  0.00    +0.000 F 
ATOM     24  F   UNL     1       0.245  10.947  17.768  0.00  0.00    +0.000 F 
ENDBRANCH  15  21
ENDBRANCH   8  11
BRANCH   1  25
ATOM     25  O   UNL     1       5.464   5.212  18.444  0.00  0.00    +0.000 OA
BRANCH  25  26
ATOM     26  C   UNL     1       5.308   5.787  17.184  0.00  0.00    +0.000 C 
ATOM     27  O   UNL     1       4.313   6.358  16.761  0.00  0.00    +0.000 OA
BRANCH  26  28
ATOM     28  C   UNL     1       6.609   5.689  16.425  0.00  0.00    +0.000 C 
BRANCH  28  29
ATOM     29  C   UNL     1       6.780   4.325  15.777  0.00  0.00    +0.000 C 
BRANCH  29  30
ATOM     30  C   UNL     1       6.857   4.433  14.254  0.00  0.00    +0.000 C 
BRANCH  30  31
ATOM     31  C   UNL     1       5.539   3.983  13.625  0.00  0.00    +0.000 C 
BRANCH  31  33
ATOM     32  C   UNL     1       4.463   3.216  11.491  0.00  0.00    +0.000 C 
ATOM     33  C   UNL     1       5.756   3.282  12.286  0.00  0.00    +0.000 C 
ENDBRANCH  31  33
ENDBRANCH  30  31
ENDBRANCH  29  30
ENDBRANCH  28  29
ENDBRANCH  26  28
ENDBRANCH  25  26
ENDBRANCH   1  25
TORSDOF 10
ENDMDL
