MODEL 1
REMARK VINA RESULT:      -8.9      0.000      0.000
REMARK  Name = 
REMARK  6 active torsions:
REMARK  status: ('A' for Active; 'I' for Inactive)
REMARK    1  A    between atoms: C_1  and  C_2
REMARK    2  A    between atoms: C_5  and  C_6
REMARK    3  A    between atoms: C_9  and  C_10
REMARK    4  A    between atoms: C_13  and  C_14
REMARK    5  A    between atoms: C_17  and  C_18
REMARK    6  A    between atoms: C_20  and  C_21
REMARK                            x       y       z     vdW  Elec       q    Type
REMARK                         _______ _______ _______ _____ _____    ______ ____
ROOT
ATOM      1  C   UNL     1       1.645   7.539  20.345  0.00  0.00    +0.000 A 
ATOM      2  N   UNL     1       1.683   6.296  20.862  0.00  0.00    +0.000 NA
ATOM      3  N   UNL     1       2.410   5.573  20.036  0.00  0.00    +0.000 NA
ATOM      4  C   UNL     1       2.795   6.394  19.044  0.00  0.00    +0.000 A 
ATOM      5  O   UNL     1       2.329   7.610  19.228  0.00  0.00    +0.000 OA
ENDROOT
BRANCH   1   9
ATOM      6  C   UNL     1      -0.488  10.802  22.115  0.00  0.00    +0.000 A 
ATOM      7  C   UNL     1      -0.311  10.718  20.727  0.00  0.00    +0.000 A 
ATOM      8  C   UNL     1       0.385   9.656  20.167  0.00  0.00    +0.000 A 
ATOM      9  C   UNL     1       0.920   8.650  20.975  0.00  0.00    +0.000 A 
ATOM     10  C   UNL     1       0.751   8.718  22.369  0.00  0.00    +0.000 A 
ATOM     11  C   UNL     1       0.052   9.792  22.936  0.00  0.00    +0.000 A 
BRANCH   6  16
ATOM     12  C   UNL     1      -3.997  13.476  22.550  0.00  0.00    +0.000 C 
ATOM     13  C   UNL     1      -2.947  13.077  23.590  0.00  0.00    +0.000 C 
ATOM     14  C   UNL     1      -1.726  14.015  23.527  0.00  0.00    +0.000 C 
ATOM     15  N   UNL     1      -0.790  13.257  22.757  0.00  0.00    +0.000 N 
ATOM     16  C   UNL     1      -1.253  11.928  22.699  0.00  0.00    +0.000 C 
ATOM     17  N   UNL     1      -2.426  11.790  23.193  0.00  0.00    +0.000 NA
ATOM     18  H   UNL     1       0.138  13.599  22.480  0.00  0.00    +0.000 HD
ENDBRANCH   6  16
ENDBRANCH   1   9
BRANCH   4  19
ATOM     19  C   UNL     1       3.640   5.973  17.922  0.00  0.00    +0.000 A 
ATOM     20  C   UNL     1       4.354   6.936  17.197  0.00  0.00    +0.000 A 
ATOM     21  C   UNL     1       5.152   6.560  16.121  0.00  0.00    +0.000 A 
ATOM     22  C   UNL     1       5.251   5.210  15.743  0.00  0.00    +0.000 A 
ATOM     23  C   UNL     1       4.537   4.243  16.477  0.00  0.00    +0.000 A 
ATOM     24  C   UNL     1       3.738   4.623  17.559  0.00  0.00    +0.000 A 
BRANCH  22  25
ATOM     25  C   UNL     1       6.090   4.836  14.580  0.00  0.00    +0.000 C 
ATOM     26  N   UNL     1       7.269   5.301  14.406  0.00  0.00    +0.000 NA
ATOM     27  C   UNL     1       7.840   4.807  13.175  0.00  0.00    +0.000 C 
ATOM     28  C   UNL     1       8.030   5.984  12.219  0.00  0.00    +0.000 C 
ATOM     29  C   UNL     1       6.800   3.792  12.651  0.00  0.00    +0.000 C 
ATOM     30  N   UNL     1       5.701   3.957  13.557  0.00  0.00    +0.000 N 
ATOM     31  H   UNL     1       4.814   3.436  13.499  0.00  0.00    +0.000 HD
ENDBRANCH  22  25
ENDBRANCH   4  19
TORSDOF 4
ENDMDL
MODEL 2
REMARK VINA RESULT:      -8.8      0.302     11.460
REMARK  Name = 
REMARK  6 active torsions:
REMARK  status: ('A' for Active; 'I' for Inactive)
REMARK    1  A    between atoms: C_1  and  C_2
REMARK    2  A    between atoms: C_5  and  C_6
REMARK    3  A    between atoms: C_9  and  C_10
REMARK    4  A    between atoms: C_13  and  C_14
REMARK    5  A    between atoms: C_17  and  C_18
REMARK    6  A    between atoms: C_20  and  C_21
REMARK                            x       y       z     vdW  Elec       q    Type
REMARK                         _______ _______ _______ _____ _____    ______ ____
ROOT
ATOM      1  C   UNL     1       2.714   6.630  19.102  0.00  0.00    +0.000 A 
ATOM      2  N   UNL     1       2.323   5.805  20.091  0.00  0.00    +0.000 NA
ATOM      3  N   UNL     1       1.589   6.529  20.910  0.00  0.00    +0.000 NA
ATOM      4  C   UNL     1       1.551   7.770  20.396  0.00  0.00    +0.000 A 
ATOM      5  O   UNL     1       2.240   7.841  19.279  0.00  0.00    +0.000 OA
ENDROOT
BRANCH   1   9
ATOM      6  C   UNL     1       5.159   5.304  15.847  0.00  0.00    +0.000 A 
ATOM      7  C   UNL     1       4.416   4.396  16.615  0.00  0.00    +0.000 A 
ATOM      8  C   UNL     1       3.631   4.839  17.668  0.00  0.00    +0.000 A 
ATOM      9  C   UNL     1       3.562   6.199  17.983  0.00  0.00    +0.000 A 
ATOM     10  C   UNL     1       4.299   7.123  17.223  0.00  0.00    +0.000 A 
ATOM     11  C   UNL     1       5.097   6.677  16.162  0.00  0.00    +0.000 A 
BRANCH   6  16
ATOM     12  C   UNL     1       7.937   5.750  12.422  0.00  0.00    +0.000 C 
ATOM     13  C   UNL     1       7.721   4.548  13.345  0.00  0.00    +0.000 C 
ATOM     14  C   UNL     1       6.577   3.655  12.827  0.00  0.00    +0.000 C 
ATOM     15  N   UNL     1       5.470   4.069  13.631  0.00  0.00    +0.000 N 
ATOM     16  C   UNL     1       5.976   4.821  14.710  0.00  0.00    +0.000 C 
ATOM     17  N   UNL     1       7.228   5.063  14.601  0.00  0.00    +0.000 NA
ATOM     18  H   UNL     1       4.515   3.704  13.529  0.00  0.00    +0.000 HD
ENDBRANCH   6  16
ENDBRANCH   1   9
BRANCH   4  19
ATOM     19  C   UNL     1       0.815   8.882  21.007  0.00  0.00    +0.000 A 
ATOM     20  C   UNL     1       0.373   8.772  22.332  0.00  0.00    +0.000 A 
ATOM     21  C   UNL     1      -0.338   9.809  22.926  0.00  0.00    +0.000 A 
ATOM     22  C   UNL     1      -0.625  10.981  22.207  0.00  0.00    +0.000 A 
ATOM     23  C   UNL     1      -0.174  11.092  20.877  0.00  0.00    +0.000 A 
ATOM     24  C   UNL     1       0.541  10.049  20.283  0.00  0.00    +0.000 A 
BRANCH  22  25
ATOM     25  C   UNL     1      -1.403  12.065  22.855  0.00  0.00    +0.000 C 
ATOM     26  N   UNL     1      -2.585  11.884  23.309  0.00  0.00    +0.000 NA
ATOM     27  C   UNL     1      -3.121  13.112  23.847  0.00  0.00    +0.000 C 
ATOM     28  C   UNL     1      -4.310  13.542  22.987  0.00  0.00    +0.000 C 
ATOM     29  C   UNL     1      -1.948  14.114  23.760  0.00  0.00    +0.000 C 
ATOM     30  N   UNL     1      -0.949  13.381  23.038  0.00  0.00    +0.000 N 
ATOM     31  H   UNL     1      -0.022  13.752  22.785  0.00  0.00    +0.000 HD
ENDBRANCH  22  25
ENDBRANCH   4  19
TORSDOF 4
ENDMDL
MODEL 3
REMARK VINA RESULT:      -8.7      0.111     11.360
REMARK  Name = 
REMARK  6 active torsions:
REMARK  status: ('A' for Active; 'I' for Inactive)
REMARK    1  A    between atoms: C_1  and  C_2
REMARK    2  A    between atoms: C_5  and  C_6
REMARK    3  A    between atoms: C_9  and  C_10
REMARK    4  A    between atoms: C_13  and  C_14
REMARK    5  A    between atoms: C_17  and  C_18
REMARK    6  A    between atoms: C_20  and  C_21
REMARK                            x       y       z     vdW  Elec       q    Type
REMARK                         _______ _______ _______ _____ _____    ______ ____
ROOT
ATOM      1  C   UNL     1       2.843   6.421  19.000  0.00  0.00    +0.000 A 
ATOM      2  N   UNL     1       2.516   5.611  20.025  0.00  0.00    +0.000 NA
ATOM      3  N   UNL     1       1.789   6.333  20.851  0.00  0.00    +0.000 NA
ATOM      4  C   UNL     1       1.692   7.558  20.307  0.00  0.00    +0.000 A 
ATOM      5  O   UNL     1       2.337   7.621  19.164  0.00  0.00    +0.000 OA
ENDROOT
BRANCH   1   9
ATOM      6  C   UNL     1       5.261   5.224  15.676  0.00  0.00    +0.000 A 
ATOM      7  C   UNL     1       5.156   6.571  16.050  0.00  0.00    +0.000 A 
ATOM      8  C   UNL     1       4.367   6.945  17.128  0.00  0.00    +0.000 A 
ATOM      9  C   UNL     1       3.663   5.987  17.862  0.00  0.00    +0.000 A 
ATOM     10  C   UNL     1       3.758   4.632  17.501  0.00  0.00    +0.000 A 
ATOM     11  C   UNL     1       4.551   4.253  16.410  0.00  0.00    +0.000 A 
BRANCH   6  16
ATOM     12  C   UNL     1       7.914   5.979  12.206  0.00  0.00    +0.000 C 
ATOM     13  C   UNL     1       7.878   4.779  13.156  0.00  0.00    +0.000 C 
ATOM     14  C   UNL     1       6.863   3.725  12.670  0.00  0.00    +0.000 C 
ATOM     15  N   UNL     1       5.719   3.998  13.481  0.00  0.00    +0.000 N 
ATOM     16  C   UNL     1       6.126   4.835  14.538  0.00  0.00    +0.000 C 
ATOM     17  N   UNL     1       7.331   5.247  14.408  0.00  0.00    +0.000 NA
ATOM     18  H   UNL     1       4.823   3.501  13.398  0.00  0.00    +0.000 HD
ENDBRANCH   6  16
ENDBRANCH   1   9
BRANCH   4  19
ATOM     19  C   UNL     1       0.943   8.662  20.917  0.00  0.00    +0.000 A 
ATOM     20  C   UNL     1       0.517   9.731  20.118  0.00  0.00    +0.000 A 
ATOM     21  C   UNL     1      -0.184  10.794  20.678  0.00  0.00    +0.000 A 
ATOM     22  C   UNL     1      -0.473  10.813  22.053  0.00  0.00    +0.000 A 
ATOM     23  C   UNL     1      -0.049   9.734  22.853  0.00  0.00    +0.000 A 
ATOM     24  C   UNL     1       0.653   8.667  22.288  0.00  0.00    +0.000 A 
BRANCH  22  25
ATOM     25  C   UNL     1      -1.202  11.967  22.630  0.00  0.00    +0.000 C 
ATOM     26  N   UNL     1      -2.356  11.850  23.169  0.00  0.00    +0.000 NA
ATOM     27  C   UNL     1      -2.851  13.134  23.608  0.00  0.00    +0.000 C 
ATOM     28  C   UNL     1      -4.086  13.489  22.780  0.00  0.00    +0.000 C 
ATOM     29  C   UNL     1      -1.678  14.105  23.350  0.00  0.00    +0.000 C 
ATOM     30  N   UNL     1      -0.729  13.290  22.649  0.00  0.00    +0.000 N 
ATOM     31  H   UNL     1       0.184  13.620  22.306  0.00  0.00    +0.000 HD
ENDBRANCH  22  25
ENDBRANCH   4  19
TORSDOF 4
ENDMDL
MODEL 4
REMARK VINA RESULT:      -8.7      0.381      1.335
REMARK  Name = 
REMARK  6 active torsions:
REMARK  status: ('A' for Active; 'I' for Inactive)
REMARK    1  A    between atoms: C_1  and  C_2
REMARK    2  A    between atoms: C_5  and  C_6
REMARK    3  A    between atoms: C_9  and  C_10
REMARK    4  A    between atoms: C_13  and  C_14
REMARK    5  A    between atoms: C_17  and  C_18
REMARK    6  A    between atoms: C_20  and  C_21
REMARK                            x       y       z     vdW  Elec       q    Type
REMARK                         _______ _______ _______ _____ _____    ______ ____
ROOT
ATOM      1  C   UNL     1       1.559   7.752  20.299  0.00  0.00    +0.000 A 
ATOM      2  N   UNL     1       1.698   6.568  20.926  0.00  0.00    +0.000 NA
ATOM      3  N   UNL     1       2.452   5.822  20.146  0.00  0.00    +0.000 NA
ATOM      4  C   UNL     1       2.752   6.571  19.072  0.00  0.00    +0.000 A 
ATOM      5  O   UNL     1       2.207   7.765  19.159  0.00  0.00    +0.000 OA
ENDROOT
BRANCH   1   9
ATOM      6  C   UNL     1      -0.719  10.970  21.969  0.00  0.00    +0.000 A 
ATOM      7  C   UNL     1      -0.297   9.891  22.760  0.00  0.00    +0.000 A 
ATOM      8  C   UNL     1       0.438   8.855  22.205  0.00  0.00    +0.000 A 
ATOM      9  C   UNL     1       0.774   8.865  20.849  0.00  0.00    +0.000 A 
ATOM     10  C   UNL     1       0.359   9.939  20.042  0.00  0.00    +0.000 A 
ATOM     11  C   UNL     1      -0.387  10.985  20.600  0.00  0.00    +0.000 A 
BRANCH   6  16
ATOM     12  C   UNL     1      -1.199  14.710  24.299  0.00  0.00    +0.000 C 
ATOM     13  C   UNL     1      -2.065  14.157  23.165  0.00  0.00    +0.000 C 
ATOM     14  C   UNL     1      -3.139  13.196  23.712  0.00  0.00    +0.000 C 
ATOM     15  N   UNL     1      -2.560  11.912  23.470  0.00  0.00    +0.000 N 
ATOM     16  C   UNL     1      -1.483  12.083  22.579  0.00  0.00    +0.000 C 
ATOM     17  N   UNL     1      -1.215  13.314  22.357  0.00  0.00    +0.000 NA
ATOM     18  H   UNL     1      -2.994  11.023  23.750  0.00  0.00    +0.000 HD
ENDBRANCH   6  16
ENDBRANCH   1   9
BRANCH   4  19
ATOM     19  C   UNL     1       3.595   6.106  17.965  0.00  0.00    +0.000 A 
ATOM     20  C   UNL     1       4.362   7.031  17.246  0.00  0.00    +0.000 A 
ATOM     21  C   UNL     1       5.158   6.613  16.185  0.00  0.00    +0.000 A 
ATOM     22  C   UNL     1       5.204   5.258  15.818  0.00  0.00    +0.000 A 
ATOM     23  C   UNL     1       4.437   4.328  16.546  0.00  0.00    +0.000 A 
ATOM     24  C   UNL     1       3.639   4.751  17.613  0.00  0.00    +0.000 A 
BRANCH  22  25
ATOM     25  C   UNL     1       6.044   4.839  14.670  0.00  0.00    +0.000 C 
ATOM     26  N   UNL     1       7.241   5.258  14.506  0.00  0.00    +0.000 NA
ATOM     27  C   UNL     1       7.810   4.728  13.290  0.00  0.00    +0.000 C 
ATOM     28  C   UNL     1       8.056   5.886  12.322  0.00  0.00    +0.000 C 
ATOM     29  C   UNL     1       6.740   3.746  12.763  0.00  0.00    +0.000 C 
ATOM     30  N   UNL     1       5.636   3.962  13.652  0.00  0.00    +0.000 N 
ATOM     31  H   UNL     1       4.731   3.474  13.588  0.00  0.00    +0.000 HD
ENDBRANCH  22  25
ENDBRANCH   4  19
TORSDOF 4
ENDMDL
MODEL 5
REMARK VINA RESULT:      -8.6      0.526      1.401
REMARK  Name = 
REMARK  6 active torsions:
REMARK  status: ('A' for Active; 'I' for Inactive)
REMARK    1  A    between atoms: C_1  and  C_2
REMARK    2  A    between atoms: C_5  and  C_6
REMARK    3  A    between atoms: C_9  and  C_10
REMARK    4  A    between atoms: C_13  and  C_14
REMARK    5  A    between atoms: C_17  and  C_18
REMARK    6  A    between atoms: C_20  and  C_21
REMARK                            x       y       z     vdW  Elec       q    Type
REMARK                         _______ _______ _______ _____ _____    ______ ____
ROOT
ATOM      1  C   UNL     1       1.399   7.887  20.499  0.00  0.00    +0.000 A 
ATOM      2  N   UNL     1       1.481   6.666  21.058  0.00  0.00    +0.000 NA
ATOM      3  N   UNL     1       2.218   5.935  20.247  0.00  0.00    +0.000 NA
ATOM      4  C   UNL     1       2.564   6.731  19.222  0.00  0.00    +0.000 A 
ATOM      5  O   UNL     1       2.065   7.939  19.370  0.00  0.00    +0.000 OA
ENDROOT
BRANCH   1   9
ATOM      6  C   UNL     1      -0.790  11.158  22.186  0.00  0.00    +0.000 A 
ATOM      7  C   UNL     1      -0.364  11.180  20.850  0.00  0.00    +0.000 A 
ATOM      8  C   UNL     1       0.346  10.115  20.317  0.00  0.00    +0.000 A 
ATOM      9  C   UNL     1       0.650   8.998  21.100  0.00  0.00    +0.000 A 
ATOM     10  C   UNL     1       0.230   8.959  22.441  0.00  0.00    +0.000 A 
ATOM     11  C   UNL     1      -0.483  10.036  22.982  0.00  0.00    +0.000 A 
BRANCH   6  16
ATOM     12  C   UNL     1      -1.372  14.844  24.579  0.00  0.00    +0.000 C 
ATOM     13  C   UNL     1      -2.114  14.375  23.324  0.00  0.00    +0.000 C 
ATOM     14  C   UNL     1      -3.296  13.458  23.694  0.00  0.00    +0.000 C 
ATOM     15  N   UNL     1      -2.758  12.152  23.478  0.00  0.00    +0.000 N 
ATOM     16  C   UNL     1      -1.568  12.291  22.737  0.00  0.00    +0.000 C 
ATOM     17  N   UNL     1      -1.211  13.513  22.597  0.00  0.00    +0.000 NA
ATOM     18  H   UNL     1      -3.268  11.280  23.667  0.00  0.00    +0.000 HD
ENDBRANCH   6  16
ENDBRANCH   1   9
BRANCH   4  19
ATOM     19  C   UNL     1       3.406   6.296  18.102  0.00  0.00    +0.000 A 
ATOM     20  C   UNL     1       3.463   4.936  17.769  0.00  0.00    +0.000 A 
ATOM     21  C   UNL     1       4.265   4.501  16.720  0.00  0.00    +0.000 A 
ATOM     22  C   UNL     1       5.031   5.417  15.979  0.00  0.00    +0.000 A 
ATOM     23  C   UNL     1       4.966   6.784  16.311  0.00  0.00    +0.000 A 
ATOM     24  C   UNL     1       4.159   7.220  17.365  0.00  0.00    +0.000 A 
BRANCH  22  25
ATOM     25  C   UNL     1       5.894   4.926  14.878  0.00  0.00    +0.000 C 
ATOM     26  N   UNL     1       7.127   5.250  14.776  0.00  0.00    +0.000 NA
ATOM     27  C   UNL     1       7.715   4.669  13.592  0.00  0.00    +0.000 C 
ATOM     28  C   UNL     1       8.100   5.797  12.635  0.00  0.00    +0.000 C 
ATOM     29  C   UNL     1       6.600   3.769  13.013  0.00  0.00    +0.000 C 
ATOM     30  N   UNL     1       5.472   4.076  13.843  0.00  0.00    +0.000 N 
ATOM     31  H   UNL     1       4.537   3.659  13.734  0.00  0.00    +0.000 HD
ENDBRANCH  22  25
ENDBRANCH   4  19
TORSDOF 4
ENDMDL
MODEL 6
REMARK VINA RESULT:      -8.6      0.423     11.383
REMARK  Name = 
REMARK  6 active torsions:
REMARK  status: ('A' for Active; 'I' for Inactive)
REMARK    1  A    between atoms: C_1  and  C_2
REMARK    2  A    between atoms: C_5  and  C_6
REMARK    3  A    between atoms: C_9  and  C_10
REMARK    4  A    between atoms: C_13  and  C_14
REMARK    5  A    between atoms: C_17  and  C_18
REMARK    6  A    between atoms: C_20  and  C_21
REMARK                            x       y       z     vdW  Elec       q    Type
REMARK                         _______ _______ _______ _____ _____    ______ ____
ROOT
ATOM      1  C   UNL     1       2.720   6.587  19.089  0.00  0.00    +0.000 A 
ATOM      2  N   UNL     1       2.375   5.809  20.132  0.00  0.00    +0.000 NA
ATOM      3  N   UNL     1       1.653   6.563  20.934  0.00  0.00    +0.000 NA
ATOM      4  C   UNL     1       1.577   7.774  20.356  0.00  0.00    +0.000 A 
ATOM      5  O   UNL     1       2.230   7.797  19.216  0.00  0.00    +0.000 OA
ENDROOT
BRANCH   1   9
ATOM      6  C   UNL     1       5.143   5.267  15.814  0.00  0.00    +0.000 A 
ATOM      7  C   UNL     1       5.059   6.625  16.155  0.00  0.00    +0.000 A 
ATOM      8  C   UNL     1       4.269   7.038  17.217  0.00  0.00    +0.000 A 
ATOM      9  C   UNL     1       3.542   6.110  17.968  0.00  0.00    +0.000 A 
ATOM     10  C   UNL     1       3.614   4.746  17.640  0.00  0.00    +0.000 A 
ATOM     11  C   UNL     1       4.409   4.327  16.565  0.00  0.00    +0.000 A 
BRANCH   6  16
ATOM     12  C   UNL     1       7.940   5.886  12.432  0.00  0.00    +0.000 C 
ATOM     13  C   UNL     1       7.791   4.676  13.358  0.00  0.00    +0.000 C 
ATOM     14  C   UNL     1       6.719   3.705  12.826  0.00  0.00    +0.000 C 
ATOM     15  N   UNL     1       5.574   4.046  13.611  0.00  0.00    +0.000 N 
ATOM     16  C   UNL     1       6.009   4.835  14.693  0.00  0.00    +0.000 C 
ATOM     17  N   UNL     1       7.244   5.162  14.603  0.00  0.00    +0.000 NA
ATOM     18  H   UNL     1       4.647   3.616  13.495  0.00  0.00    +0.000 HD
ENDBRANCH   6  16
ENDBRANCH   1   9
BRANCH   4  19
ATOM     19  C   UNL     1       0.839   8.904  20.930  0.00  0.00    +0.000 A 
ATOM     20  C   UNL     1       0.182   8.748  22.158  0.00  0.00    +0.000 A 
ATOM     21  C   UNL     1      -0.534   9.803  22.714  0.00  0.00    +0.000 A 
ATOM     22  C   UNL     1      -0.612  11.040  22.052  0.00  0.00    +0.000 A 
ATOM     23  C   UNL     1       0.054  11.197  20.821  0.00  0.00    +0.000 A 
ATOM     24  C   UNL     1       0.774  10.136  20.265  0.00  0.00    +0.000 A 
BRANCH  22  25
ATOM     25  C   UNL     1      -1.398  12.143  22.654  0.00  0.00    +0.000 C 
ATOM     26  N   UNL     1      -1.042  13.368  22.565  0.00  0.00    +0.000 NA
ATOM     27  C   UNL     1      -1.964  14.224  23.275  0.00  0.00    +0.000 C 
ATOM     28  C   UNL     1      -1.228  14.860  24.454  0.00  0.00    +0.000 C 
ATOM     29  C   UNL     1      -3.091  13.273  23.737  0.00  0.00    +0.000 C 
ATOM     30  N   UNL     1      -2.591  11.978  23.377  0.00  0.00    +0.000 N 
ATOM     31  H   UNL     1      -3.088  11.093  23.549  0.00  0.00    +0.000 HD
ENDBRANCH  22  25
ENDBRANCH   4  19
TORSDOF 4
ENDMDL
MODEL 7
REMARK VINA RESULT:      -8.4      2.547      5.027
REMARK  Name = 
REMARK  6 active torsions:
REMARK  status: ('A' for Active; 'I' for Inactive)
REMARK    1  A    between atoms: C_1  and  C_2
REMARK    2  A    between atoms: C_5  and  C_6
REMARK    3  A    between atoms: C_9  and  C_10
REMARK    4  A    between atoms: C_13  and  C_14
REMARK    5  A    between atoms: C_17  and  C_18
REMARK    6  A    between atoms: C_20  and  C_21
REMARK                            x       y       z     vdW  Elec       q    Type
REMARK                         _______ _______ _______ _____ _____    ______ ____
ROOT
ATOM      1  C   UNL     1      -0.905  11.526  21.360  0.00  0.00    +0.000 A 
ATOM      2  N   UNL     1       0.269  12.097  21.688  0.00  0.00    +0.000 NA
ATOM      3  N   UNL     1       1.210  11.323  21.189  0.00  0.00    +0.000 NA
ATOM      4  C   UNL     1       0.584  10.308  20.571  0.00  0.00    +0.000 A 
ATOM      5  O   UNL     1      -0.722  10.426  20.669  0.00  0.00    +0.000 OA
ENDROOT
BRANCH   1   9
ATOM      6  C   UNL     1      -4.681  13.157  22.548  0.00  0.00    +0.000 A 
ATOM      7  C   UNL     1      -3.787  12.632  23.493  0.00  0.00    +0.000 A 
ATOM      8  C   UNL     1      -2.568  12.105  23.093  0.00  0.00    +0.000 A 
ATOM      9  C   UNL     1      -2.207  12.088  21.743  0.00  0.00    +0.000 A 
ATOM     10  C   UNL     1      -3.092  12.610  20.784  0.00  0.00    +0.000 A 
ATOM     11  C   UNL     1      -4.325  13.140  21.185  0.00  0.00    +0.000 A 
BRANCH   6  16
ATOM     12  C   UNL     1      -7.561  16.446  23.281  0.00  0.00    +0.000 C 
ATOM     13  C   UNL     1      -7.832  14.971  22.976  0.00  0.00    +0.000 C 
ATOM     14  C   UNL     1      -7.833  14.133  24.270  0.00  0.00    +0.000 C 
ATOM     15  N   UNL     1      -6.522  13.564  24.274  0.00  0.00    +0.000 N 
ATOM     16  C   UNL     1      -5.970  13.739  22.990  0.00  0.00    +0.000 C 
ATOM     17  N   UNL     1      -6.694  14.477  22.235  0.00  0.00    +0.000 NA
ATOM     18  H   UNL     1      -6.155  12.968  25.027  0.00  0.00    +0.000 HD
ENDBRANCH   6  16
ENDBRANCH   1   9
BRANCH   4  19
ATOM     19  C   UNL     1       1.284   9.228  19.867  0.00  0.00    +0.000 A 
ATOM     20  C   UNL     1       1.576   8.038  20.545  0.00  0.00    +0.000 A 
ATOM     21  C   UNL     1       2.251   7.006  19.900  0.00  0.00    +0.000 A 
ATOM     22  C   UNL     1       2.651   7.143  18.560  0.00  0.00    +0.000 A 
ATOM     23  C   UNL     1       2.351   8.338  17.879  0.00  0.00    +0.000 A 
ATOM     24  C   UNL     1       1.672   9.373  18.528  0.00  0.00    +0.000 A 
BRANCH  22  25
ATOM     25  C   UNL     1       3.387   6.038  17.901  0.00  0.00    +0.000 C 
ATOM     26  N   UNL     1       4.606   6.150  17.530  0.00  0.00    +0.000 NA
ATOM     27  C   UNL     1       5.059   4.943  16.880  0.00  0.00    +0.000 C 
ATOM     28  C   UNL     1       5.353   5.261  15.413  0.00  0.00    +0.000 C 
ATOM     29  C   UNL     1       3.878   3.958  17.036  0.00  0.00    +0.000 C 
ATOM     30  N   UNL     1       2.848   4.775  17.608  0.00  0.00    +0.000 N 
ATOM     31  H   UNL     1       1.902   4.442  17.841  0.00  0.00    +0.000 HD
ENDBRANCH  22  25
ENDBRANCH   4  19
TORSDOF 4
ENDMDL
MODEL 8
REMARK VINA RESULT:      -8.3      2.792     12.209
REMARK  Name = 
REMARK  6 active torsions:
REMARK  status: ('A' for Active; 'I' for Inactive)
REMARK    1  A    between atoms: C_1  and  C_2
REMARK    2  A    between atoms: C_5  and  C_6
REMARK    3  A    between atoms: C_9  and  C_10
REMARK    4  A    between atoms: C_13  and  C_14
REMARK    5  A    between atoms: C_17  and  C_18
REMARK    6  A    between atoms: C_20  and  C_21
REMARK                            x       y       z     vdW  Elec       q    Type
REMARK                         _______ _______ _______ _____ _____    ______ ____
ROOT
ATOM      1  C   UNL     1       0.546  10.208  20.696  0.00  0.00    +0.000 A 
ATOM      2  N   UNL     1       1.203  11.276  21.186  0.00  0.00    +0.000 NA
ATOM      3  N   UNL     1       0.284  12.095  21.652  0.00  0.00    +0.000 NA
ATOM      4  C   UNL     1      -0.903  11.503  21.436  0.00  0.00    +0.000 A 
ATOM      5  O   UNL     1      -0.751  10.337  20.849  0.00  0.00    +0.000 OA
ENDROOT
BRANCH   1   9
ATOM      6  C   UNL     1       2.532   6.908  18.825  0.00  0.00    +0.000 A 
ATOM      7  C   UNL     1       2.228   8.075  18.108  0.00  0.00    +0.000 A 
ATOM      8  C   UNL     1       1.582   9.135  18.727  0.00  0.00    +0.000 A 
ATOM      9  C   UNL     1       1.223   9.062  20.075  0.00  0.00    +0.000 A 
ATOM     10  C   UNL     1       1.521   7.901  20.808  0.00  0.00    +0.000 A 
ATOM     11  C   UNL     1       2.169   6.827  20.185  0.00  0.00    +0.000 A 
BRANCH   6  16
ATOM     12  C   UNL     1       3.595   2.659  18.148  0.00  0.00    +0.000 C 
ATOM     13  C   UNL     1       3.598   3.828  17.160  0.00  0.00    +0.000 C 
ATOM     14  C   UNL     1       4.942   4.581  17.205  0.00  0.00    +0.000 C 
ATOM     15  N   UNL     1       4.644   5.702  18.041  0.00  0.00    +0.000 N 
ATOM     16  C   UNL     1       3.243   5.793  18.160  0.00  0.00    +0.000 C 
ATOM     17  N   UNL     1       2.636   4.791  17.642  0.00  0.00    +0.000 NA
ATOM     18  H   UNL     1       5.333   6.409  18.324  0.00  0.00    +0.000 HD
ENDBRANCH   6  16
ENDBRANCH   1   9
BRANCH   4  19
ATOM     19  C   UNL     1      -2.188  12.090  21.830  0.00  0.00    +0.000 A 
ATOM     20  C   UNL     1      -2.572  12.072  23.177  0.00  0.00    +0.000 A 
ATOM     21  C   UNL     1      -3.792  12.611  23.570  0.00  0.00    +0.000 A 
ATOM     22  C   UNL     1      -4.659  13.181  22.622  0.00  0.00    +0.000 A 
ATOM     23  C   UNL     1      -4.269  13.203  21.269  0.00  0.00    +0.000 A 
ATOM     24  C   UNL     1      -3.042  12.662  20.877  0.00  0.00    +0.000 A 
BRANCH  22  25
ATOM     25  C   UNL     1      -5.964  13.730  23.062  0.00  0.00    +0.000 C 
ATOM     26  N   UNL     1      -6.668  14.503  22.324  0.00  0.00    +0.000 NA
ATOM     27  C   UNL     1      -7.865  14.922  23.014  0.00  0.00    +0.000 C 
ATOM     28  C   UNL     1      -7.788  16.431  23.250  0.00  0.00    +0.000 C 
ATOM     29  C   UNL     1      -7.844  14.124  24.337  0.00  0.00    +0.000 C 
ATOM     30  N   UNL     1      -6.564  13.480  24.307  0.00  0.00    +0.000 N 
ATOM     31  H   UNL     1      -6.203  12.864  25.049  0.00  0.00    +0.000 HD
ENDBRANCH  22  25
ENDBRANCH   4  19
TORSDOF 4
ENDMDL
MODEL 9
REMARK VINA RESULT:      -8.2      2.626      5.266
REMARK  Name = 
REMARK  6 active torsions:
REMARK  status: ('A' for Active; 'I' for Inactive)
REMARK    1  A    between atoms: C_1  and  C_2
REMARK    2  A    between atoms: C_5  and  C_6
REMARK    3  A    between atoms: C_9  and  C_10
REMARK    4  A    between atoms: C_13  and  C_14
REMARK    5  A    between atoms: C_17  and  C_18
REMARK    6  A    between atoms: C_20  and  C_21
REMARK                            x       y       z     vdW  Elec       q    Type
REMARK                         _______ _______ _______ _____ _____    ______ ____
ROOT
ATOM      1  C   UNL     1      -0.939  11.698  21.347  0.00  0.00    +0.000 A 
ATOM      2  N   UNL     1       0.236  12.292  21.626  0.00  0.00    +0.000 NA
ATOM      3  N   UNL     1       1.174  11.500  21.150  0.00  0.00    +0.000 NA
ATOM      4  C   UNL     1       0.545  10.451  20.594  0.00  0.00    +0.000 A 
ATOM      5  O   UNL     1      -0.760  10.566  20.708  0.00  0.00    +0.000 OA
ENDROOT
BRANCH   1   9
ATOM      6  C   UNL     1      -4.712  13.349  22.517  0.00  0.00    +0.000 A 
ATOM      7  C   UNL     1      -3.893  12.683  23.440  0.00  0.00    +0.000 A 
ATOM      8  C   UNL     1      -2.674  12.151  23.046  0.00  0.00    +0.000 A 
ATOM      9  C   UNL     1      -2.239  12.270  21.724  0.00  0.00    +0.000 A 
ATOM     10  C   UNL     1      -3.048  12.934  20.786  0.00  0.00    +0.000 A 
ATOM     11  C   UNL     1      -4.280  13.469  21.181  0.00  0.00    +0.000 A 
BRANCH   6  16
ATOM     12  C   UNL     1      -7.617  16.634  23.170  0.00  0.00    +0.000 C 
ATOM     13  C   UNL     1      -7.876  15.145  22.922  0.00  0.00    +0.000 C 
ATOM     14  C   UNL     1      -7.851  14.356  24.245  0.00  0.00    +0.000 C 
ATOM     15  N   UNL     1      -6.534  13.800  24.252  0.00  0.00    +0.000 N 
ATOM     16  C   UNL     1      -6.001  13.934  22.955  0.00  0.00    +0.000 C 
ATOM     17  N   UNL     1      -6.743  14.637  22.184  0.00  0.00    +0.000 NA
ATOM     18  H   UNL     1      -6.151  13.236  25.020  0.00  0.00    +0.000 HD
ENDBRANCH   6  16
ENDBRANCH   1   9
BRANCH   4  19
ATOM     19  C   UNL     1       1.241   9.342  19.932  0.00  0.00    +0.000 A 
ATOM     20  C   UNL     1       1.646   9.479  18.598  0.00  0.00    +0.000 A 
ATOM     21  C   UNL     1       2.296   8.435  17.948  0.00  0.00    +0.000 A 
ATOM     22  C   UNL     1       2.554   7.228  18.619  0.00  0.00    +0.000 A 
ATOM     23  C   UNL     1       2.152   7.095  19.962  0.00  0.00    +0.000 A 
ATOM     24  C   UNL     1       1.501   8.146  20.613  0.00  0.00    +0.000 A 
BRANCH  22  25
ATOM     25  C   UNL     1       3.230   6.121  17.898  0.00  0.00    +0.000 C 
ATOM     26  N   UNL     1       2.708   4.960  17.780  0.00  0.00    +0.000 NA
ATOM     27  C   UNL     1       3.596   4.068  17.073  0.00  0.00    +0.000 C 
ATOM     28  C   UNL     1       4.042   2.963  18.031  0.00  0.00    +0.000 C 
ATOM     29  C   UNL     1       4.773   4.967  16.633  0.00  0.00    +0.000 C 
ATOM     30  N   UNL     1       4.489   6.213  17.283  0.00  0.00    +0.000 N 
ATOM     31  H   UNL     1       5.080   7.054  17.218  0.00  0.00    +0.000 HD
ENDBRANCH  22  25
ENDBRANCH   4  19
TORSDOF 4
ENDMDL
