MODEL 1
REMARK VINA RESULT:      -7.2      0.000      0.000
REMARK  Name = 
REMARK  10 active torsions:
REMARK  status: ('A' for Active; 'I' for Inactive)
REMARK    1  A    between atoms: C_1  and  C_2
REMARK    2  A    between atoms: C_2  and  C_3
REMARK    3  A    between atoms: C_2  and  C_4
REMARK    4  A    between atoms: C_4  and  C_5
REMARK    5  A    between atoms: C_5  and  C_6
REMARK    6  A    between atoms: C_5  and  N_14
REMARK    7  A    between atoms: N_10  and  C_11
REMARK    8  A    between atoms: C_11  and  C_12
REMARK    9  A    between atoms: C_11  and  C_13
REMARK   10  A    between atoms: C_18  and  C_20
REMARK                            x       y       z     vdW  Elec       q    Type
REMARK                         _______ _______ _______ _____ _____    ______ ____
ROOT
ATOM      1  C   UNL     1       5.472   4.355  18.579  0.00  0.00    +0.000 C 
ENDROOT
BRANCH   1   2
ATOM      2  N   UNL     1       4.660   4.694  17.385  0.00  0.00    +0.000 NA
ATOM      3  C   UNL     1       5.051   5.907  16.638  0.00  0.00    +0.000 C 
ATOM      4  C   UNL     1       6.167   5.729  15.590  0.00  0.00    +0.000 C 
ATOM      5  N   UNL     1       5.926   4.598  14.694  0.00  0.00    +0.000 N 
ATOM      6  C   UNL     1       6.678   4.571  13.503  0.00  0.00    +0.000 C 
ATOM      7  O   UNL     1       7.535   5.426  13.280  0.00  0.00    +0.000 OA
ATOM      8  C   UNL     1       5.499   3.358  15.358  0.00  0.00    +0.000 C 
ATOM      9  C   UNL     1       4.429   3.588  16.440  0.00  0.00    +0.000 C 
BRANCH   6  10
ATOM     10  C   UNL     1       6.416   3.511  12.550  0.00  0.00    +0.000 A 
ATOM     11  C   UNL     1       7.287   2.711  11.829  0.00  0.00    +0.000 A 
ATOM     12  C   UNL     1       6.495   1.865  11.019  0.00  0.00    +0.000 A 
ATOM     13  C   UNL     1       5.190   2.220  11.258  0.00  0.00    +0.000 A 
ATOM     14  O   UNL     1       5.131   3.224  12.165  0.00  0.00    +0.000 OA
ENDBRANCH   6  10
ENDBRANCH   1   2
BRANCH   1  15
ATOM     15  C   UNL     1       4.629   3.571  19.557  0.00  0.00    +0.000 A 
ATOM     16  N   UNL     1       4.990   2.457  20.172  0.00  0.00    +0.000 NA
ATOM     17  N   UNL     1       3.953   2.100  20.988  0.00  0.00    +0.000 NA
ATOM     18  N   UNL     1       2.958   2.964  20.891  0.00  0.00    +0.000 NA
ATOM     19  N   UNL     1       3.354   3.875  19.979  0.00  0.00    +0.000 N 
BRANCH  19  20
ATOM     20  C   UNL     1       2.382   4.828  19.467  0.00  0.00    +0.000 C 
ATOM     21  C   UNL     1       1.352   4.104  18.593  0.00  0.00    +0.000 C 
ATOM     22  C   UNL     1       1.671   5.615  20.573  0.00  0.00    +0.000 C 
ENDBRANCH  19  20
ENDBRANCH   1  15
BRANCH   1  23
ATOM     23  C   UNL     1       6.150   5.557  19.292  0.00  0.00    +0.000 C 
BRANCH  23  25
ATOM     24  C   UNL     1       8.279   4.598  18.252  0.00  0.00    +0.000 C 
ATOM     25  C   UNL     1       7.680   5.692  19.136  0.00  0.00    +0.000 C 
ATOM     26  C   UNL     1       7.998   7.063  18.518  0.00  0.00    +0.000 C 
ENDBRANCH  23  25
ENDBRANCH   1  23
TORSDOF 6
ENDMDL
MODEL 2
REMARK VINA RESULT:      -7.0      3.778      6.936
REMARK  Name = 
REMARK  10 active torsions:
REMARK  status: ('A' for Active; 'I' for Inactive)
REMARK    1  A    between atoms: C_1  and  C_2
REMARK    2  A    between atoms: C_2  and  C_3
REMARK    3  A    between atoms: C_2  and  C_4
REMARK    4  A    between atoms: C_4  and  C_5
REMARK    5  A    between atoms: C_5  and  C_6
REMARK    6  A    between atoms: C_5  and  N_14
REMARK    7  A    between atoms: N_10  and  C_11
REMARK    8  A    between atoms: C_11  and  C_12
REMARK    9  A    between atoms: C_11  and  C_13
REMARK   10  A    between atoms: C_18  and  C_20
REMARK                            x       y       z     vdW  Elec       q    Type
REMARK                         _______ _______ _______ _____ _____    ______ ____
ROOT
ATOM      1  C   UNL     1       3.878   4.654  17.794  0.00  0.00    +0.000 C 
ENDROOT
BRANCH   1   2
ATOM      2  N   UNL     1       4.305   5.983  18.297  0.00  0.00    +0.000 NA
ATOM      3  C   UNL     1       4.109   7.132  17.389  0.00  0.00    +0.000 C 
ATOM      4  C   UNL     1       2.713   7.785  17.411  0.00  0.00    +0.000 C 
ATOM      5  N   UNL     1       2.250   8.084  18.766  0.00  0.00    +0.000 N 
ATOM      6  C   UNL     1       1.177   8.990  18.875  0.00  0.00    +0.000 C 
ATOM      7  O   UNL     1       0.629   9.441  17.869  0.00  0.00    +0.000 OA
ATOM      8  C   UNL     1       2.440   7.001  19.741  0.00  0.00    +0.000 C 
ATOM      9  C   UNL     1       3.824   6.334  19.645  0.00  0.00    +0.000 C 
BRANCH   6  10
ATOM     10  C   UNL     1       0.736   9.375  20.202  0.00  0.00    +0.000 A 
ATOM     11  C   UNL     1       0.109   8.638  21.192  0.00  0.00    +0.000 A 
ATOM     12  C   UNL     1      -0.127   9.518  22.273  0.00  0.00    +0.000 A 
ATOM     13  C   UNL     1       0.330  10.749  21.870  0.00  0.00    +0.000 A 
ATOM     14  O   UNL     1       0.836  10.679  20.616  0.00  0.00    +0.000 OA
ENDBRANCH   6  10
ENDBRANCH   1   2
BRANCH   1  15
ATOM     15  C   UNL     1       4.045   3.624  18.885  0.00  0.00    +0.000 A 
ATOM     16  N   UNL     1       5.170   3.004  19.201  0.00  0.00    +0.000 NA
ATOM     17  N   UNL     1       4.890   2.185  20.259  0.00  0.00    +0.000 NA
ATOM     18  N   UNL     1       3.619   2.280  20.604  0.00  0.00    +0.000 NA
ATOM     19  N   UNL     1       3.070   3.155  19.737  0.00  0.00    +0.000 N 
BRANCH  19  20
ATOM     20  C   UNL     1       1.623   3.294  19.698  0.00  0.00    +0.000 C 
ATOM     21  C   UNL     1       1.036   2.356  18.637  0.00  0.00    +0.000 C 
ATOM     22  C   UNL     1       0.957   3.036  21.053  0.00  0.00    +0.000 C 
ENDBRANCH  19  20
ENDBRANCH   1  15
BRANCH   1  23
ATOM     23  C   UNL     1       4.573   4.177  16.490  0.00  0.00    +0.000 C 
BRANCH  23  25
ATOM     24  C   UNL     1       7.100   4.502  16.710  0.00  0.00    +0.000 C 
ATOM     25  C   UNL     1       5.815   4.970  16.027  0.00  0.00    +0.000 C 
ATOM     26  C   UNL     1       5.970   4.809  14.507  0.00  0.00    +0.000 C 
ENDBRANCH  23  25
ENDBRANCH   1  23
TORSDOF 6
ENDMDL
MODEL 3
REMARK VINA RESULT:      -6.6      0.629      1.001
REMARK  Name = 
REMARK  10 active torsions:
REMARK  status: ('A' for Active; 'I' for Inactive)
REMARK    1  A    between atoms: C_1  and  C_2
REMARK    2  A    between atoms: C_2  and  C_3
REMARK    3  A    between atoms: C_2  and  C_4
REMARK    4  A    between atoms: C_4  and  C_5
REMARK    5  A    between atoms: C_5  and  C_6
REMARK    6  A    between atoms: C_5  and  N_14
REMARK    7  A    between atoms: N_10  and  C_11
REMARK    8  A    between atoms: C_11  and  C_12
REMARK    9  A    between atoms: C_11  and  C_13
REMARK   10  A    between atoms: C_18  and  C_20
REMARK                            x       y       z     vdW  Elec       q    Type
REMARK                         _______ _______ _______ _____ _____    ______ ____
ROOT
ATOM      1  C   UNL     1       5.431   4.311  18.506  0.00  0.00    +0.000 C 
ENDROOT
BRANCH   1   2
ATOM      2  N   UNL     1       4.625   4.639  17.305  0.00  0.00    +0.000 NA
ATOM      3  C   UNL     1       4.998   5.863  16.568  0.00  0.00    +0.000 C 
ATOM      4  C   UNL     1       6.129   5.714  15.531  0.00  0.00    +0.000 C 
ATOM      5  N   UNL     1       5.922   4.582  14.627  0.00  0.00    +0.000 N 
ATOM      6  C   UNL     1       6.687   4.577  13.445  0.00  0.00    +0.000 C 
ATOM      7  O   UNL     1       7.528   5.451  13.235  0.00  0.00    +0.000 OA
ATOM      8  C   UNL     1       5.514   3.331  15.281  0.00  0.00    +0.000 C 
ATOM      9  C   UNL     1       4.428   3.532  16.352  0.00  0.00    +0.000 C 
BRANCH   6  10
ATOM     10  C   UNL     1       6.458   3.516  12.483  0.00  0.00    +0.000 A 
ATOM     11  C   UNL     1       5.279   2.937  12.045  0.00  0.00    +0.000 A 
ATOM     12  C   UNL     1       5.635   1.921  11.129  0.00  0.00    +0.000 A 
ATOM     13  C   UNL     1       7.008   1.907  11.089  0.00  0.00    +0.000 A 
ATOM     14  O   UNL     1       7.515   2.852  11.916  0.00  0.00    +0.000 OA
ENDBRANCH   6  10
ENDBRANCH   1   2
BRANCH   1  15
ATOM     15  C   UNL     1       4.583   3.537  19.488  0.00  0.00    +0.000 A 
ATOM     16  N   UNL     1       4.919   2.400  20.075  0.00  0.00    +0.000 NA
ATOM     17  N   UNL     1       3.888   2.062  20.906  0.00  0.00    +0.000 NA
ATOM     18  N   UNL     1       2.920   2.959  20.845  0.00  0.00    +0.000 NA
ATOM     19  N   UNL     1       3.327   3.873  19.941  0.00  0.00    +0.000 N 
BRANCH  19  20
ATOM     20  C   UNL     1       2.377   4.867  19.467  0.00  0.00    +0.000 C 
ATOM     21  C   UNL     1       1.364   4.211  18.522  0.00  0.00    +0.000 C 
ATOM     22  C   UNL     1       1.644   5.588  20.602  0.00  0.00    +0.000 C 
ENDBRANCH  19  20
ENDBRANCH   1  15
BRANCH   1  23
ATOM     23  C   UNL     1       6.106   5.519  19.211  0.00  0.00    +0.000 C 
BRANCH  23  25
ATOM     24  C   UNL     1       8.390   5.540  20.359  0.00  0.00    +0.000 C 
ATOM     25  C   UNL     1       7.634   5.667  19.037  0.00  0.00    +0.000 C 
ATOM     26  C   UNL     1       8.131   4.582  18.071  0.00  0.00    +0.000 C 
ENDBRANCH  23  25
ENDBRANCH   1  23
TORSDOF 6
ENDMDL
MODEL 4
REMARK VINA RESULT:      -6.5      3.865      7.301
REMARK  Name = 
REMARK  10 active torsions:
REMARK  status: ('A' for Active; 'I' for Inactive)
REMARK    1  A    between atoms: C_1  and  C_2
REMARK    2  A    between atoms: C_2  and  C_3
REMARK    3  A    between atoms: C_2  and  C_4
REMARK    4  A    between atoms: C_4  and  C_5
REMARK    5  A    between atoms: C_5  and  C_6
REMARK    6  A    between atoms: C_5  and  N_14
REMARK    7  A    between atoms: N_10  and  C_11
REMARK    8  A    between atoms: C_11  and  C_12
REMARK    9  A    between atoms: C_11  and  C_13
REMARK   10  A    between atoms: C_18  and  C_20
REMARK                            x       y       z     vdW  Elec       q    Type
REMARK                         _______ _______ _______ _____ _____    ______ ____
ROOT
ATOM      1  C   UNL     1       3.527   4.811  17.177  0.00  0.00    +0.000 C 
ENDROOT
BRANCH   1   2
ATOM      2  N   UNL     1       4.066   5.769  18.173  0.00  0.00    +0.000 NA
ATOM      3  C   UNL     1       4.224   7.170  17.730  0.00  0.00    +0.000 C 
ATOM      4  C   UNL     1       2.972   8.061  17.837  0.00  0.00    +0.000 C 
ATOM      5  N   UNL     1       2.329   7.980  19.149  0.00  0.00    +0.000 N 
ATOM      6  C   UNL     1       1.415   9.005  19.463  0.00  0.00    +0.000 C 
ATOM      7  O   UNL     1       1.136   9.874  18.637  0.00  0.00    +0.000 OA
ATOM      8  C   UNL     1       2.165   6.618  19.676  0.00  0.00    +0.000 C 
ATOM      9  C   UNL     1       3.417   5.742  19.495  0.00  0.00    +0.000 C 
BRANCH   6  10
ATOM     10  C   UNL     1       0.814   9.007  20.782  0.00  0.00    +0.000 A 
ATOM     11  C   UNL     1      -0.422   8.552  21.209  0.00  0.00    +0.000 A 
ATOM     12  C   UNL     1      -0.509   8.834  22.592  0.00  0.00    +0.000 A 
ATOM     13  C   UNL     1       0.657   9.479  22.924  0.00  0.00    +0.000 A 
ATOM     14  O   UNL     1       1.455   9.605  21.836  0.00  0.00    +0.000 OA
ENDBRANCH   6  10
ENDBRANCH   1   2
BRANCH   1  15
ATOM     15  C   UNL     1       2.487   3.933  17.833  0.00  0.00    +0.000 A 
ATOM     16  N   UNL     1       1.176   4.087  17.748  0.00  0.00    +0.000 NA
ATOM     17  N   UNL     1       0.609   3.065  18.456  0.00  0.00    +0.000 NA
ATOM     18  N   UNL     1       1.536   2.284  18.980  0.00  0.00    +0.000 NA
ATOM     19  N   UNL     1       2.716   2.829  18.623  0.00  0.00    +0.000 N 
BRANCH  19  20
ATOM     20  C   UNL     1       3.936   2.339  19.247  0.00  0.00    +0.000 C 
ATOM     21  C   UNL     1       3.771   2.319  20.771  0.00  0.00    +0.000 C 
ATOM     22  C   UNL     1       4.353   0.953  18.746  0.00  0.00    +0.000 C 
ENDBRANCH  19  20
ENDBRANCH   1  15
BRANCH   1  23
ATOM     23  C   UNL     1       4.583   3.942  16.443  0.00  0.00    +0.000 C 
BRANCH  23  25
ATOM     24  C   UNL     1       7.054   4.570  16.256  0.00  0.00    +0.000 C 
ATOM     25  C   UNL     1       5.664   4.689  15.632  0.00  0.00    +0.000 C 
ATOM     26  C   UNL     1       5.705   4.112  14.209  0.00  0.00    +0.000 C 
ENDBRANCH  23  25
ENDBRANCH   1  23
TORSDOF 6
ENDMDL
MODEL 5
REMARK VINA RESULT:      -6.5      4.532      7.865
REMARK  Name = 
REMARK  10 active torsions:
REMARK  status: ('A' for Active; 'I' for Inactive)
REMARK    1  A    between atoms: C_1  and  C_2
REMARK    2  A    between atoms: C_2  and  C_3
REMARK    3  A    between atoms: C_2  and  C_4
REMARK    4  A    between atoms: C_4  and  C_5
REMARK    5  A    between atoms: C_5  and  C_6
REMARK    6  A    between atoms: C_5  and  N_14
REMARK    7  A    between atoms: N_10  and  C_11
REMARK    8  A    between atoms: C_11  and  C_12
REMARK    9  A    between atoms: C_11  and  C_13
REMARK   10  A    between atoms: C_18  and  C_20
REMARK                            x       y       z     vdW  Elec       q    Type
REMARK                         _______ _______ _______ _____ _____    ______ ____
ROOT
ATOM      1  C   UNL     1       4.254   5.202  18.799  0.00  0.00    +0.000 C 
ENDROOT
BRANCH   1   2
ATOM      2  N   UNL     1       2.800   5.448  18.632  0.00  0.00    +0.000 NA
ATOM      3  C   UNL     1       1.965   5.348  19.847  0.00  0.00    +0.000 C 
ATOM      4  C   UNL     1       1.884   6.615  20.721  0.00  0.00    +0.000 C 
ATOM      5  N   UNL     1       1.570   7.816  19.948  0.00  0.00    +0.000 N 
ATOM      6  C   UNL     1       1.123   8.934  20.681  0.00  0.00    +0.000 C 
ATOM      7  O   UNL     1       1.073   8.901  21.911  0.00  0.00    +0.000 OA
ATOM      8  C   UNL     1       2.336   7.973  18.704  0.00  0.00    +0.000 C 
ATOM      9  C   UNL     1       2.445   6.671  17.891  0.00  0.00    +0.000 C 
BRANCH   6  10
ATOM     10  C   UNL     1       0.726  10.120  19.949  0.00  0.00    +0.000 A 
ATOM     11  C   UNL     1       1.285  11.386  19.914  0.00  0.00    +0.000 A 
ATOM     12  C   UNL     1       0.474  12.171  19.063  0.00  0.00    +0.000 A 
ATOM     13  C   UNL     1      -0.555  11.357  18.658  0.00  0.00    +0.000 A 
ATOM     14  O   UNL     1      -0.423  10.123  19.201  0.00  0.00    +0.000 OA
ENDBRANCH   6  10
ENDBRANCH   1   2
BRANCH   1  15
ATOM     15  C   UNL     1       4.957   5.419  17.480  0.00  0.00    +0.000 A 
ATOM     16  N   UNL     1       4.632   4.861  16.326  0.00  0.00    +0.000 NA
ATOM     17  N   UNL     1       5.497   5.351  15.389  0.00  0.00    +0.000 NA
ATOM     18  N   UNL     1       6.352   6.197  15.934  0.00  0.00    +0.000 NA
ATOM     19  N   UNL     1       6.046   6.229  17.247  0.00  0.00    +0.000 N 
BRANCH  19  20
ATOM     20  C   UNL     1       6.961   6.886  18.168  0.00  0.00    +0.000 C 
ATOM     21  C   UNL     1       7.881   5.847  18.819  0.00  0.00    +0.000 C 
ATOM     22  C   UNL     1       7.796   7.985  17.505  0.00  0.00    +0.000 C 
ENDBRANCH  19  20
ENDBRANCH   1  15
BRANCH   1  23
ATOM     23  C   UNL     1       4.635   3.818  19.393  0.00  0.00    +0.000 C 
BRANCH  23  25
ATOM     24  C   UNL     1       3.626   1.660  18.466  0.00  0.00    +0.000 C 
ATOM     25  C   UNL     1       3.506   2.771  19.509  0.00  0.00    +0.000 C 
ATOM     26  C   UNL     1       3.551   2.146  20.911  0.00  0.00    +0.000 C 
ENDBRANCH  23  25
ENDBRANCH   1  23
TORSDOF 6
ENDMDL
MODEL 6
REMARK VINA RESULT:      -6.4      3.971      6.895
REMARK  Name = 
REMARK  10 active torsions:
REMARK  status: ('A' for Active; 'I' for Inactive)
REMARK    1  A    between atoms: C_1  and  C_2
REMARK    2  A    between atoms: C_2  and  C_3
REMARK    3  A    between atoms: C_2  and  C_4
REMARK    4  A    between atoms: C_4  and  C_5
REMARK    5  A    between atoms: C_5  and  C_6
REMARK    6  A    between atoms: C_5  and  N_14
REMARK    7  A    between atoms: N_10  and  C_11
REMARK    8  A    between atoms: C_11  and  C_12
REMARK    9  A    between atoms: C_11  and  C_13
REMARK   10  A    between atoms: C_18  and  C_20
REMARK                            x       y       z     vdW  Elec       q    Type
REMARK                         _______ _______ _______ _____ _____    ______ ____
ROOT
ATOM      1  C   UNL     1       3.510   4.640  17.495  0.00  0.00    +0.000 C 
ENDROOT
BRANCH   1   2
ATOM      2  N   UNL     1       3.845   5.662  18.517  0.00  0.00    +0.000 NA
ATOM      3  C   UNL     1       4.544   6.873  18.042  0.00  0.00    +0.000 C 
ATOM      4  C   UNL     1       3.650   8.000  17.486  0.00  0.00    +0.000 C 
ATOM      5  N   UNL     1       2.540   8.333  18.380  0.00  0.00    +0.000 N 
ATOM      6  C   UNL     1       1.896   9.564  18.145  0.00  0.00    +0.000 C 
ATOM      7  O   UNL     1       2.221  10.273  17.192  0.00  0.00    +0.000 OA
ATOM      8  C   UNL     1       1.812   7.179  18.924  0.00  0.00    +0.000 C 
ATOM      9  C   UNL     1       2.740   6.051  19.411  0.00  0.00    +0.000 C 
BRANCH   6  10
ATOM     10  C   UNL     1       0.842   9.970  19.053  0.00  0.00    +0.000 A 
ATOM     11  C   UNL     1      -0.488  10.272  18.813  0.00  0.00    +0.000 A 
ATOM     12  C   UNL     1      -1.056  10.645  20.053  0.00  0.00    +0.000 A 
ATOM     13  C   UNL     1      -0.036  10.590  20.972  0.00  0.00    +0.000 A 
ATOM     14  O   UNL     1       1.117  10.203  20.376  0.00  0.00    +0.000 OA
ENDBRANCH   6  10
ENDBRANCH   1   2
BRANCH   1  15
ATOM     15  C   UNL     1       2.429   3.729  18.028  0.00  0.00    +0.000 A 
ATOM     16  N   UNL     1       1.229   3.559  17.499  0.00  0.00    +0.000 NA
ATOM     17  N   UNL     1       0.583   2.632  18.267  0.00  0.00    +0.000 NA
ATOM     18  N   UNL     1       1.353   2.224  19.261  0.00  0.00    +0.000 NA
ATOM     19  N   UNL     1       2.501   2.923  19.141  0.00  0.00    +0.000 N 
BRANCH  19  20
ATOM     20  C   UNL     1       3.467   2.881  20.228  0.00  0.00    +0.000 C 
ATOM     21  C   UNL     1       2.743   2.663  21.561  0.00  0.00    +0.000 C 
ATOM     22  C   UNL     1       4.545   1.810  20.035  0.00  0.00    +0.000 C 
ENDBRANCH  19  20
ENDBRANCH   1  15
BRANCH   1  23
ATOM     23  C   UNL     1       4.708   3.805  16.966  0.00  0.00    +0.000 C 
BRANCH  23  25
ATOM     24  C   UNL     1       7.152   4.539  16.811  0.00  0.00    +0.000 C 
ATOM     25  C   UNL     1       5.777   4.557  16.143  0.00  0.00    +0.000 C 
ATOM     26  C   UNL     1       5.887   3.905  14.757  0.00  0.00    +0.000 C 
ENDBRANCH  23  25
ENDBRANCH   1  23
TORSDOF 6
ENDMDL
MODEL 7
REMARK VINA RESULT:      -6.4      4.007      7.154
REMARK  Name = 
REMARK  10 active torsions:
REMARK  status: ('A' for Active; 'I' for Inactive)
REMARK    1  A    between atoms: C_1  and  C_2
REMARK    2  A    between atoms: C_2  and  C_3
REMARK    3  A    between atoms: C_2  and  C_4
REMARK    4  A    between atoms: C_4  and  C_5
REMARK    5  A    between atoms: C_5  and  C_6
REMARK    6  A    between atoms: C_5  and  N_14
REMARK    7  A    between atoms: N_10  and  C_11
REMARK    8  A    between atoms: C_11  and  C_12
REMARK    9  A    between atoms: C_11  and  C_13
REMARK   10  A    between atoms: C_18  and  C_20
REMARK                            x       y       z     vdW  Elec       q    Type
REMARK                         _______ _______ _______ _____ _____    ______ ____
ROOT
ATOM      1  C   UNL     1       3.682   5.119  17.715  0.00  0.00    +0.000 C 
ENDROOT
BRANCH   1   2
ATOM      2  N   UNL     1       4.065   6.411  18.335  0.00  0.00    +0.000 NA
ATOM      3  C   UNL     1       3.834   7.629  17.531  0.00  0.00    +0.000 C 
ATOM      4  C   UNL     1       2.418   8.233  17.604  0.00  0.00    +0.000 C 
ATOM      5  N   UNL     1       1.943   8.396  18.978  0.00  0.00    +0.000 N 
ATOM      6  C   UNL     1       0.841   9.255  19.161  0.00  0.00    +0.000 C 
ATOM      7  O   UNL     1       0.281   9.776  18.196  0.00  0.00    +0.000 OA
ATOM      8  C   UNL     1       2.165   7.238  19.854  0.00  0.00    +0.000 C 
ATOM      9  C   UNL     1       3.570   6.627  19.706  0.00  0.00    +0.000 C 
BRANCH   6  10
ATOM     10  C   UNL     1       0.385   9.507  20.514  0.00  0.00    +0.000 A 
ATOM     11  C   UNL     1       0.556  10.612  21.331  0.00  0.00    +0.000 A 
ATOM     12  C   UNL     1      -0.064  10.310  22.565  0.00  0.00    +0.000 A 
ATOM     13  C   UNL     1      -0.542   9.028  22.450  0.00  0.00    +0.000 A 
ATOM     14  O   UNL     1      -0.261   8.527  21.223  0.00  0.00    +0.000 OA
ENDBRANCH   6  10
ENDBRANCH   1   2
BRANCH   1  15
ATOM     15  C   UNL     1       3.939   3.995  18.690  0.00  0.00    +0.000 A 
ATOM     16  N   UNL     1       5.115   3.449  18.952  0.00  0.00    +0.000 NA
ATOM     17  N   UNL     1       4.907   2.497  19.911  0.00  0.00    +0.000 NA
ATOM     18  N   UNL     1       3.631   2.439  20.248  0.00  0.00    +0.000 NA
ATOM     19  N   UNL     1       3.008   3.350  19.473  0.00  0.00    +0.000 N 
BRANCH  19  20
ATOM     20  C   UNL     1       1.554   3.362  19.430  0.00  0.00    +0.000 C 
ATOM     21  C   UNL     1       1.044   2.127  18.680  0.00  0.00    +0.000 C 
ATOM     22  C   UNL     1       0.912   3.434  20.819  0.00  0.00    +0.000 C 
ENDBRANCH  19  20
ENDBRANCH   1  15
BRANCH   1  23
ATOM     23  C   UNL     1       4.349   4.810  16.347  0.00  0.00    +0.000 C 
BRANCH  23  25
ATOM     24  C   UNL     1       6.278   3.663  15.122  0.00  0.00    +0.000 C 
ATOM     25  C   UNL     1       5.849   4.440  16.367  0.00  0.00    +0.000 C 
ATOM     26  C   UNL     1       6.678   5.730  16.461  0.00  0.00    +0.000 C 
ENDBRANCH  23  25
ENDBRANCH   1  23
TORSDOF 6
ENDMDL
MODEL 8
REMARK VINA RESULT:      -6.2      3.830      6.772
REMARK  Name = 
REMARK  10 active torsions:
REMARK  status: ('A' for Active; 'I' for Inactive)
REMARK    1  A    between atoms: C_1  and  C_2
REMARK    2  A    between atoms: C_2  and  C_3
REMARK    3  A    between atoms: C_2  and  C_4
REMARK    4  A    between atoms: C_4  and  C_5
REMARK    5  A    between atoms: C_5  and  C_6
REMARK    6  A    between atoms: C_5  and  N_14
REMARK    7  A    between atoms: N_10  and  C_11
REMARK    8  A    between atoms: C_11  and  C_12
REMARK    9  A    between atoms: C_11  and  C_13
REMARK   10  A    between atoms: C_18  and  C_20
REMARK                            x       y       z     vdW  Elec       q    Type
REMARK                         _______ _______ _______ _____ _____    ______ ____
ROOT
ATOM      1  C   UNL     1       3.765   4.499  17.542  0.00  0.00    +0.000 C 
ENDROOT
BRANCH   1   2
ATOM      2  N   UNL     1       4.105   5.561  18.520  0.00  0.00    +0.000 NA
ATOM      3  C   UNL     1       4.713   6.794  17.978  0.00  0.00    +0.000 C 
ATOM      4  C   UNL     1       3.732   7.860  17.451  0.00  0.00    +0.000 C 
ATOM      5  N   UNL     1       2.659   8.160  18.399  0.00  0.00    +0.000 N 
ATOM      6  C   UNL     1       1.940   9.351  18.175  0.00  0.00    +0.000 C 
ATOM      7  O   UNL     1       2.174  10.051  17.190  0.00  0.00    +0.000 OA
ATOM      8  C   UNL     1       2.023   6.985  19.010  0.00  0.00    +0.000 C 
ATOM      9  C   UNL     1       3.034   5.917  19.467  0.00  0.00    +0.000 C 
BRANCH   6  10
ATOM     10  C   UNL     1       0.920   9.727  19.134  0.00  0.00    +0.000 A 
ATOM     11  C   UNL     1       0.944   9.734  20.518  0.00  0.00    +0.000 A 
ATOM     12  C   UNL     1      -0.334  10.156  20.950  0.00  0.00    +0.000 A 
ATOM     13  C   UNL     1      -1.078  10.346  19.811  0.00  0.00    +0.000 A 
ATOM     14  O   UNL     1      -0.338  10.071  18.711  0.00  0.00    +0.000 OA
ENDBRANCH   6  10
ENDBRANCH   1   2
BRANCH   1  15
ATOM     15  C   UNL     1       2.576   3.713  18.044  0.00  0.00    +0.000 A 
ATOM     16  N   UNL     1       1.397   3.629  17.452  0.00  0.00    +0.000 NA
ATOM     17  N   UNL     1       0.627   2.797  18.215  0.00  0.00    +0.000 NA
ATOM     18  N   UNL     1       1.300   2.365  19.267  0.00  0.00    +0.000 NA
ATOM     19  N   UNL     1       2.512   2.951  19.189  0.00  0.00    +0.000 N 
BRANCH  19  20
ATOM     20  C   UNL     1       3.408   2.870  20.332  0.00  0.00    +0.000 C 
ATOM     21  C   UNL     1       2.600   2.636  21.613  0.00  0.00    +0.000 C 
ATOM     22  C   UNL     1       4.479   1.785  20.181  0.00  0.00    +0.000 C 
ENDBRANCH  19  20
ENDBRANCH   1  15
BRANCH   1  23
ATOM     23  C   UNL     1       4.926   3.540  17.165  0.00  0.00    +0.000 C 
BRANCH  23  25
ATOM     24  C   UNL     1       5.127   4.984  15.065  0.00  0.00    +0.000 C 
ATOM     25  C   UNL     1       5.799   3.939  15.955  0.00  0.00    +0.000 C 
ATOM     26  C   UNL     1       7.132   4.506  16.469  0.00  0.00    +0.000 C 
ENDBRANCH  23  25
ENDBRANCH   1  23
TORSDOF 6
ENDMDL
MODEL 9
REMARK VINA RESULT:      -6.1      2.920      4.442
REMARK  Name = 
REMARK  10 active torsions:
REMARK  status: ('A' for Active; 'I' for Inactive)
REMARK    1  A    between atoms: C_1  and  C_2
REMARK    2  A    between atoms: C_2  and  C_3
REMARK    3  A    between atoms: C_2  and  C_4
REMARK    4  A    between atoms: C_4  and  C_5
REMARK    5  A    between atoms: C_5  and  C_6
REMARK    6  A    between atoms: C_5  and  N_14
REMARK    7  A    between atoms: N_10  and  C_11
REMARK    8  A    between atoms: C_11  and  C_12
REMARK    9  A    between atoms: C_11  and  C_13
REMARK   10  A    between atoms: C_18  and  C_20
REMARK                            x       y       z     vdW  Elec       q    Type
REMARK                         _______ _______ _______ _____ _____    ______ ____
ROOT
ATOM      1  C   UNL     1       2.880   6.377  18.654  0.00  0.00    +0.000 C 
ENDROOT
BRANCH   1   2
ATOM      2  N   UNL     1       4.002   7.120  18.029  0.00  0.00    +0.000 NA
ATOM      3  C   UNL     1       5.351   6.876  18.581  0.00  0.00    +0.000 C 
ATOM      4  C   UNL     1       6.103   5.653  18.021  0.00  0.00    +0.000 C 
ATOM      5  N   UNL     1       6.103   5.610  16.559  0.00  0.00    +0.000 N 
ATOM      6  C   UNL     1       7.049   4.756  15.958  0.00  0.00    +0.000 C 
ATOM      7  O   UNL     1       7.780   4.042  16.645  0.00  0.00    +0.000 OA
ATOM      8  C   UNL     1       4.802   5.876  15.929  0.00  0.00    +0.000 C 
ATOM      9  C   UNL     1       4.057   7.066  16.558  0.00  0.00    +0.000 C 
BRANCH   6  10
ATOM     10  C   UNL     1       7.137   4.740  14.511  0.00  0.00    +0.000 A 
ATOM     11  C   UNL     1       6.512   3.929  13.579  0.00  0.00    +0.000 A 
ATOM     12  C   UNL     1       6.986   4.323  12.307  0.00  0.00    +0.000 A 
ATOM     13  C   UNL     1       7.901   5.322  12.532  0.00  0.00    +0.000 A 
ATOM     14  O   UNL     1       8.014   5.569  13.859  0.00  0.00    +0.000 OA
ENDBRANCH   6  10
ENDBRANCH   1   2
BRANCH   1  15
ATOM     15  C   UNL     1       2.145   7.284  19.612  0.00  0.00    +0.000 A 
ATOM     16  N   UNL     1       1.874   7.017  20.879  0.00  0.00    +0.000 NA
ATOM     17  N   UNL     1       1.231   8.111  21.386  0.00  0.00    +0.000 NA
ATOM     18  N   UNL     1       1.095   9.048  20.465  0.00  0.00    +0.000 NA
ATOM     19  N   UNL     1       1.637   8.535  19.342  0.00  0.00    +0.000 N 
BRANCH  19  20
ATOM     20  C   UNL     1       1.429   9.227  18.079  0.00  0.00    +0.000 C 
ATOM     21  C   UNL     1      -0.044   9.626  17.939  0.00  0.00    +0.000 C 
ATOM     22  C   UNL     1       2.324  10.459  17.914  0.00  0.00    +0.000 C 
ENDBRANCH  19  20
ENDBRANCH   1  15
BRANCH   1  23
ATOM     23  C   UNL     1       3.267   5.048  19.358  0.00  0.00    +0.000 C 
BRANCH  23  25
ATOM     24  C   UNL     1       1.136   3.715  19.825  0.00  0.00    +0.000 C 
ATOM     25  C   UNL     1       2.426   3.800  19.010  0.00  0.00    +0.000 C 
ATOM     26  C   UNL     1       2.070   3.842  17.516  0.00  0.00    +0.000 C 
ENDBRANCH  23  25
ENDBRANCH   1  23
TORSDOF 6
ENDMDL
