MODEL 1
REMARK VINA RESULT:      -8.6      0.000      0.000
REMARK  Name = 
REMARK  3 active torsions:
REMARK  status: ('A' for Active; 'I' for Inactive)
REMARK    1  A    between atoms: C_2  and  C_5
REMARK    2  A    between atoms: C_12  and  N_13
REMARK    3  A    between atoms: N_13  and  C_14
REMARK                            x       y       z     vdW  Elec       q    Type
REMARK                         _______ _______ _______ _____ _____    ______ ____
ROOT
ATOM      1  C   UNL     1       4.477   5.318  16.913  0.00  0.00    +0.000 A 
ATOM      2  C   UNL     1       4.101   4.025  16.541  0.00  0.00    +0.000 A 
ATOM      3  C   UNL     1       3.174   3.315  17.309  0.00  0.00    +0.000 A 
ATOM      4  C   UNL     1       2.586   3.859  18.443  0.00  0.00    +0.000 A 
ATOM      5  N   UNL     1       1.692   3.115  19.114  0.00  0.00    +0.000 NA
ATOM      6  C   UNL     1       1.100   3.658  20.195  0.00  0.00    +0.000 A 
ATOM      7  C   UNL     1       1.349   4.936  20.648  0.00  0.00    +0.000 A 
ATOM      8  C   UNL     1       2.285   5.716  19.968  0.00  0.00    +0.000 A 
ATOM      9  C   UNL     1       2.934   5.173  18.827  0.00  0.00    +0.000 A 
ATOM     10  C   UNL     1       3.901   5.874  18.065  0.00  0.00    +0.000 A 
ENDROOT
BRANCH   1  12
ATOM     11  F   UNL     1       6.374   6.794  16.857  0.00  0.00    +0.000 F 
ATOM     12  C   UNL     1       5.473   6.109  16.099  0.00  0.00    +0.000 C 
ATOM     13  F   UNL     1       4.878   7.033  15.297  0.00  0.00    +0.000 F 
ATOM     14  F   UNL     1       6.211   5.314  15.274  0.00  0.00    +0.000 F 
ENDBRANCH   1  12
BRANCH   8  15
ATOM     15  N   UNL     1       2.497   7.079  20.324  0.00  0.00    +0.000 N 
ATOM     16  H   UNL     1       3.396   7.381  19.954  0.00  0.00    +0.000 HD
BRANCH  15  17
ATOM     17  C   UNL     1       1.553   8.131  20.360  0.00  0.00    +0.000 A 
ATOM     18  C   UNL     1       1.325   8.897  19.209  0.00  0.00    +0.000 A 
ATOM     19  C   UNL     1       0.463   9.998  19.239  0.00  0.00    +0.000 A 
ATOM     20  C   UNL     1      -0.172  10.358  20.429  0.00  0.00    +0.000 A 
ATOM     21 CL   UNL     1      -1.183  11.759  20.410  0.00  0.00    +0.000 Cl
ATOM     22  C   UNL     1       0.043   9.603  21.584  0.00  0.00    +0.000 A 
ATOM     23 CL   UNL     1      -0.703   9.987  23.094  0.00  0.00    +0.000 Cl
ATOM     24  C   UNL     1       0.904   8.497  21.545  0.00  0.00    +0.000 A 
ENDBRANCH  15  17
ENDBRANCH   8  15
TORSDOF 3
ENDMDL
MODEL 2
REMARK VINA RESULT:      -8.5      0.670      1.122
REMARK  Name = 
REMARK  3 active torsions:
REMARK  status: ('A' for Active; 'I' for Inactive)
REMARK    1  A    between atoms: C_2  and  C_5
REMARK    2  A    between atoms: C_12  and  N_13
REMARK    3  A    between atoms: N_13  and  C_14
REMARK                            x       y       z     vdW  Elec       q    Type
REMARK                         _______ _______ _______ _____ _____    ______ ____
ROOT
ATOM      1  C   UNL     1       4.620   5.236  17.009  0.00  0.00    +0.000 A 
ATOM      2  C   UNL     1       4.266   3.944  16.611  0.00  0.00    +0.000 A 
ATOM      3  C   UNL     1       3.307   3.226  17.331  0.00  0.00    +0.000 A 
ATOM      4  C   UNL     1       2.665   3.760  18.440  0.00  0.00    +0.000 A 
ATOM      5  N   UNL     1       1.744   3.008  19.064  0.00  0.00    +0.000 NA
ATOM      6  C   UNL     1       1.101   3.541  20.120  0.00  0.00    +0.000 A 
ATOM      7  C   UNL     1       1.324   4.817  20.593  0.00  0.00    +0.000 A 
ATOM      8  C   UNL     1       2.288   5.604  19.963  0.00  0.00    +0.000 A 
ATOM      9  C   UNL     1       2.991   5.072  18.850  0.00  0.00    +0.000 A 
ATOM     10  C   UNL     1       3.989   5.782  18.138  0.00  0.00    +0.000 A 
ENDROOT
BRANCH   1  12
ATOM     11  F   UNL     1       5.169   6.593  15.102  0.00  0.00    +0.000 F 
ATOM     12  C   UNL     1       5.650   6.036  16.249  0.00  0.00    +0.000 C 
ATOM     13  F   UNL     1       6.726   5.289  15.880  0.00  0.00    +0.000 F 
ATOM     14  F   UNL     1       6.145   7.070  16.985  0.00  0.00    +0.000 F 
ENDBRANCH   1  12
BRANCH   8  15
ATOM     15  N   UNL     1       2.478   6.965  20.338  0.00  0.00    +0.000 N 
ATOM     16  H   UNL     1       3.475   7.171  20.342  0.00  0.00    +0.000 HD
BRANCH  15  17
ATOM     17  C   UNL     1       1.702   8.090  19.975  0.00  0.00    +0.000 A 
ATOM     18  C   UNL     1       1.730   8.553  18.653  0.00  0.00    +0.000 A 
ATOM     19  C   UNL     1       1.043   9.715  18.284  0.00  0.00    +0.000 A 
ATOM     20  C   UNL     1       0.329  10.439  19.241  0.00  0.00    +0.000 A 
ATOM     21 CL   UNL     1      -0.455  11.891  18.730  0.00  0.00    +0.000 Cl
ATOM     22  C   UNL     1       0.289   9.987  20.562  0.00  0.00    +0.000 A 
ATOM     23 CL   UNL     1      -0.571  10.830  21.802  0.00  0.00    +0.000 Cl
ATOM     24  C   UNL     1       0.975   8.820  20.922  0.00  0.00    +0.000 A 
ENDBRANCH  15  17
ENDBRANCH   8  15
TORSDOF 3
ENDMDL
MODEL 3
REMARK VINA RESULT:      -8.3      1.290      1.614
REMARK  Name = 
REMARK  3 active torsions:
REMARK  status: ('A' for Active; 'I' for Inactive)
REMARK    1  A    between atoms: C_2  and  C_5
REMARK    2  A    between atoms: C_12  and  N_13
REMARK    3  A    between atoms: N_13  and  C_14
REMARK                            x       y       z     vdW  Elec       q    Type
REMARK                         _______ _______ _______ _____ _____    ______ ____
ROOT
ATOM      1  C   UNL     1       5.797   5.721  17.379  0.00  0.00    +0.000 A 
ATOM      2  C   UNL     1       5.643   4.713  16.424  0.00  0.00    +0.000 A 
ATOM      3  C   UNL     1       4.512   3.893  16.445  0.00  0.00    +0.000 A 
ATOM      4  C   UNL     1       3.504   4.052  17.387  0.00  0.00    +0.000 A 
ATOM      5  N   UNL     1       2.442   3.232  17.325  0.00  0.00    +0.000 NA
ATOM      6  C   UNL     1       1.452   3.409  18.220  0.00  0.00    +0.000 A 
ATOM      7  C   UNL     1       1.457   4.389  19.189  0.00  0.00    +0.000 A 
ATOM      8  C   UNL     1       2.559   5.240  19.273  0.00  0.00    +0.000 A 
ATOM      9  C   UNL     1       3.626   5.077  18.350  0.00  0.00    +0.000 A 
ATOM     10  C   UNL     1       4.792   5.882  18.346  0.00  0.00    +0.000 A 
ENDROOT
BRANCH   1  12
ATOM     11  F   UNL     1       6.698   7.950  17.434  0.00  0.00    +0.000 F 
ATOM     12  C   UNL     1       7.007   6.624  17.379  0.00  0.00    +0.000 C 
ATOM     13  F   UNL     1       7.778   6.465  16.268  0.00  0.00    +0.000 F 
ATOM     14  F   UNL     1       7.826   6.388  18.442  0.00  0.00    +0.000 F 
ENDBRANCH   1  12
BRANCH   8  15
ATOM     15  N   UNL     1       2.566   6.339  20.180  0.00  0.00    +0.000 N 
ATOM     16  H   UNL     1       3.508   6.457  20.548  0.00  0.00    +0.000 HD
BRANCH  15  17
ATOM     17  C   UNL     1       1.878   7.568  20.071  0.00  0.00    +0.000 A 
ATOM     18  C   UNL     1       1.937   8.292  18.872  0.00  0.00    +0.000 A 
ATOM     19  C   UNL     1       1.339   9.552  18.764  0.00  0.00    +0.000 A 
ATOM     20  C   UNL     1       0.685  10.113  19.862  0.00  0.00    +0.000 A 
ATOM     21 CL   UNL     1       0.012  11.693  19.676  0.00  0.00    +0.000 Cl
ATOM     22  C   UNL     1       0.614   9.402  21.062  0.00  0.00    +0.000 A 
ATOM     23 CL   UNL     1      -0.176  10.030  22.464  0.00  0.00    +0.000 Cl
ATOM     24  C   UNL     1       1.210   8.138  21.162  0.00  0.00    +0.000 A 
ENDBRANCH  15  17
ENDBRANCH   8  15
TORSDOF 3
ENDMDL
MODEL 4
REMARK VINA RESULT:      -8.3      4.162      6.215
REMARK  Name = 
REMARK  3 active torsions:
REMARK  status: ('A' for Active; 'I' for Inactive)
REMARK    1  A    between atoms: C_2  and  C_5
REMARK    2  A    between atoms: C_12  and  N_13
REMARK    3  A    between atoms: N_13  and  C_14
REMARK                            x       y       z     vdW  Elec       q    Type
REMARK                         _______ _______ _______ _____ _____    ______ ____
ROOT
ATOM      1  C   UNL     1       5.359   3.716  12.524  0.00  0.00    +0.000 A 
ATOM      2  C   UNL     1       6.668   4.151  12.303  0.00  0.00    +0.000 A 
ATOM      3  C   UNL     1       7.398   4.735  13.342  0.00  0.00    +0.000 A 
ATOM      4  C   UNL     1       6.871   4.891  14.617  0.00  0.00    +0.000 A 
ATOM      5  N   UNL     1       7.646   5.447  15.561  0.00  0.00    +0.000 NA
ATOM      6  C   UNL     1       7.143   5.567  16.804  0.00  0.00    +0.000 A 
ATOM      7  C   UNL     1       5.883   5.144  17.168  0.00  0.00    +0.000 A 
ATOM      8  C   UNL     1       5.061   4.576  16.194  0.00  0.00    +0.000 A 
ATOM      9  C   UNL     1       5.557   4.440  14.870  0.00  0.00    +0.000 A 
ATOM     10  C   UNL     1       4.809   3.881  13.804  0.00  0.00    +0.000 A 
ENDROOT
BRANCH   1  12
ATOM     11  F   UNL     1       3.271   2.777  11.788  0.00  0.00    +0.000 F 
ATOM     12  C   UNL     1       4.548   3.079  11.421  0.00  0.00    +0.000 C 
ATOM     13  F   UNL     1       5.095   1.914  10.976  0.00  0.00    +0.000 F 
ATOM     14  F   UNL     1       4.440   3.886  10.328  0.00  0.00    +0.000 F 
ENDBRANCH   1  12
BRANCH   8  15
ATOM     15  N   UNL     1       3.796   4.020  16.540  0.00  0.00    +0.000 N 
ATOM     16  H   UNL     1       3.557   3.297  15.863  0.00  0.00    +0.000 HD
BRANCH  15  17
ATOM     17  C   UNL     1       3.287   3.736  17.827  0.00  0.00    +0.000 A 
ATOM     18  C   UNL     1       3.240   2.409  18.277  0.00  0.00    +0.000 A 
ATOM     19  C   UNL     1       2.661   2.088  19.509  0.00  0.00    +0.000 A 
ATOM     20  C   UNL     1       2.107   3.093  20.304  0.00  0.00    +0.000 A 
ATOM     21 CL   UNL     1       1.363   2.623  21.791  0.00  0.00    +0.000 Cl
ATOM     22  C   UNL     1       2.149   4.420  19.871  0.00  0.00    +0.000 A 
ATOM     23 CL   UNL     1       1.481   5.717  20.798  0.00  0.00    +0.000 Cl
ATOM     24  C   UNL     1       2.735   4.734  18.638  0.00  0.00    +0.000 A 
ENDBRANCH  15  17
ENDBRANCH   8  15
TORSDOF 3
ENDMDL
MODEL 5
REMARK VINA RESULT:      -8.3      0.981      1.267
REMARK  Name = 
REMARK  3 active torsions:
REMARK  status: ('A' for Active; 'I' for Inactive)
REMARK    1  A    between atoms: C_2  and  C_5
REMARK    2  A    between atoms: C_12  and  N_13
REMARK    3  A    between atoms: N_13  and  C_14
REMARK                            x       y       z     vdW  Elec       q    Type
REMARK                         _______ _______ _______ _____ _____    ______ ____
ROOT
ATOM      1  C   UNL     1       4.588   4.355  17.036  0.00  0.00    +0.000 A 
ATOM      2  C   UNL     1       4.096   3.072  16.785  0.00  0.00    +0.000 A 
ATOM      3  C   UNL     1       3.077   2.544  17.582  0.00  0.00    +0.000 A 
ATOM      4  C   UNL     1       2.509   3.263  18.626  0.00  0.00    +0.000 A 
ATOM      5  N   UNL     1       1.523   2.687  19.331  0.00  0.00    +0.000 NA
ATOM      6  C   UNL     1       0.953   3.399  20.321  0.00  0.00    +0.000 A 
ATOM      7  C   UNL     1       1.314   4.688  20.648  0.00  0.00    +0.000 A 
ATOM      8  C   UNL     1       2.347   5.295  19.932  0.00  0.00    +0.000 A 
ATOM      9  C   UNL     1       2.976   4.570  18.885  0.00  0.00    +0.000 A 
ATOM     10  C   UNL     1       4.033   5.087  18.097  0.00  0.00    +0.000 A 
ENDROOT
BRANCH   1  12
ATOM     11  F   UNL     1       6.720   4.097  15.953  0.00  0.00    +0.000 F 
ATOM     12  C   UNL     1       5.686   4.953  16.189  0.00  0.00    +0.000 C 
ATOM     13  F   UNL     1       6.238   6.062  16.753  0.00  0.00    +0.000 F 
ATOM     14  F   UNL     1       5.238   5.339  14.961  0.00  0.00    +0.000 F 
ENDBRANCH   1  12
BRANCH   8  15
ATOM     15  N   UNL     1       2.683   6.661  20.152  0.00  0.00    +0.000 N 
ATOM     16  H   UNL     1       3.683   6.783  20.005  0.00  0.00    +0.000 HD
BRANCH  15  17
ATOM     17  C   UNL     1       1.947   7.813  19.792  0.00  0.00    +0.000 A 
ATOM     18  C   UNL     1       2.048   8.322  18.490  0.00  0.00    +0.000 A 
ATOM     19  C   UNL     1       1.401   9.508  18.130  0.00  0.00    +0.000 A 
ATOM     20  C   UNL     1       0.654  10.212  19.076  0.00  0.00    +0.000 A 
ATOM     21 CL   UNL     1      -0.078  11.697  18.581  0.00  0.00    +0.000 Cl
ATOM     22  C   UNL     1       0.541   9.717  20.377  0.00  0.00    +0.000 A 
ATOM     23 CL   UNL     1      -0.363  10.532  21.604  0.00  0.00    +0.000 Cl
ATOM     24  C   UNL     1       1.188   8.524  20.729  0.00  0.00    +0.000 A 
ENDBRANCH  15  17
ENDBRANCH   8  15
TORSDOF 3
ENDMDL
MODEL 6
REMARK VINA RESULT:      -8.1      1.392      1.999
REMARK  Name = 
REMARK  3 active torsions:
REMARK  status: ('A' for Active; 'I' for Inactive)
REMARK    1  A    between atoms: C_2  and  C_5
REMARK    2  A    between atoms: C_12  and  N_13
REMARK    3  A    between atoms: N_13  and  C_14
REMARK                            x       y       z     vdW  Elec       q    Type
REMARK                         _______ _______ _______ _____ _____    ______ ____
ROOT
ATOM      1  C   UNL     1       5.325   5.237  17.931  0.00  0.00    +0.000 A 
ATOM      2  C   UNL     1       5.112   4.153  17.076  0.00  0.00    +0.000 A 
ATOM      3  C   UNL     1       3.984   3.343  17.237  0.00  0.00    +0.000 A 
ATOM      4  C   UNL     1       3.037   3.586  18.222  0.00  0.00    +0.000 A 
ATOM      5  N   UNL     1       1.974   2.769  18.296  0.00  0.00    +0.000 NA
ATOM      6  C   UNL     1       1.042   3.026  19.232  0.00  0.00    +0.000 A 
ATOM      7  C   UNL     1       1.107   4.085  20.113  0.00  0.00    +0.000 A 
ATOM      8  C   UNL     1       2.212   4.934  20.056  0.00  0.00    +0.000 A 
ATOM      9  C   UNL     1       3.219   4.688  19.085  0.00  0.00    +0.000 A 
ATOM     10  C   UNL     1       4.382   5.484  18.941  0.00  0.00    +0.000 A 
ENDROOT
BRANCH   1  12
ATOM     11  F   UNL     1       7.255   6.271  18.925  0.00  0.00    +0.000 F 
ATOM     12  C   UNL     1       6.532   6.130  17.778  0.00  0.00    +0.000 C 
ATOM     13  F   UNL     1       6.204   7.391  17.385  0.00  0.00    +0.000 F 
ATOM     14  F   UNL     1       7.406   5.660  16.845  0.00  0.00    +0.000 F 
ENDBRANCH   1  12
BRANCH   8  15
ATOM     15  N   UNL     1       2.275   6.105  20.864  0.00  0.00    +0.000 N 
ATOM     16  H   UNL     1       3.212   6.188  21.254  0.00  0.00    +0.000 HD
BRANCH  15  17
ATOM     17  C   UNL     1       1.683   7.366  20.626  0.00  0.00    +0.000 A 
ATOM     18  C   UNL     1       0.719   7.859  21.515  0.00  0.00    +0.000 A 
ATOM     19  C   UNL     1       0.053   9.063  21.258  0.00  0.00    +0.000 A 
ATOM     20  C   UNL     1       0.334   9.783  20.096  0.00  0.00    +0.000 A 
ATOM     21 CL   UNL     1      -0.560  11.235  19.814  0.00  0.00    +0.000 Cl
ATOM     22  C   UNL     1       1.295   9.307  19.202  0.00  0.00    +0.000 A 
ATOM     23 CL   UNL     1       1.695  10.140  17.742  0.00  0.00    +0.000 Cl
ATOM     24  C   UNL     1       1.961   8.104  19.469  0.00  0.00    +0.000 A 
ENDBRANCH  15  17
ENDBRANCH   8  15
TORSDOF 3
ENDMDL
MODEL 7
REMARK VINA RESULT:      -8.1      1.106      1.918
REMARK  Name = 
REMARK  3 active torsions:
REMARK  status: ('A' for Active; 'I' for Inactive)
REMARK    1  A    between atoms: C_2  and  C_5
REMARK    2  A    between atoms: C_12  and  N_13
REMARK    3  A    between atoms: N_13  and  C_14
REMARK                            x       y       z     vdW  Elec       q    Type
REMARK                         _______ _______ _______ _____ _____    ______ ____
ROOT
ATOM      1  C   UNL     1       4.541   5.161  17.298  0.00  0.00    +0.000 A 
ATOM      2  C   UNL     1       4.157   4.005  16.613  0.00  0.00    +0.000 A 
ATOM      3  C   UNL     1       3.123   3.207  17.109  0.00  0.00    +0.000 A 
ATOM      4  C   UNL     1       2.435   3.530  18.271  0.00  0.00    +0.000 A 
ATOM      5  N   UNL     1       1.443   2.717  18.669  0.00  0.00    +0.000 NA
ATOM      6  C   UNL     1       0.757   3.051  19.778  0.00  0.00    +0.000 A 
ATOM      7  C   UNL     1       1.005   4.182  20.526  0.00  0.00    +0.000 A 
ATOM      8  C   UNL     1       2.042   5.029  20.132  0.00  0.00    +0.000 A 
ATOM      9  C   UNL     1       2.791   4.704  18.970  0.00  0.00    +0.000 A 
ATOM     10  C   UNL     1       3.864   5.491  18.482  0.00  0.00    +0.000 A 
ENDROOT
BRANCH   1  12
ATOM     11  F   UNL     1       5.674   6.159  15.426  0.00  0.00    +0.000 F 
ATOM     12  C   UNL     1       5.653   6.044  16.783  0.00  0.00    +0.000 C 
ATOM     13  F   UNL     1       6.887   5.593  17.140  0.00  0.00    +0.000 F 
ATOM     14  F   UNL     1       5.564   7.316  17.263  0.00  0.00    +0.000 F 
ENDBRANCH   1  12
BRANCH   8  15
ATOM     15  N   UNL     1       2.267   6.266  20.800  0.00  0.00    +0.000 N 
ATOM     16  H   UNL     1       3.266   6.375  20.965  0.00  0.00    +0.000 HD
BRANCH  15  17
ATOM     17  C   UNL     1       1.623   7.506  20.587  0.00  0.00    +0.000 A 
ATOM     18  C   UNL     1       0.630   7.934  21.479  0.00  0.00    +0.000 A 
ATOM     19  C   UNL     1      -0.085   9.113  21.247  0.00  0.00    +0.000 A 
ATOM     20  C   UNL     1       0.174   9.875  20.106  0.00  0.00    +0.000 A 
ATOM     21 CL   UNL     1      -0.780  11.292  19.851  0.00  0.00    +0.000 Cl
ATOM     22  C   UNL     1       1.162   9.463  19.209  0.00  0.00    +0.000 A 
ATOM     23 CL   UNL     1       1.538  10.350  17.774  0.00  0.00    +0.000 Cl
ATOM     24  C   UNL     1       1.879   8.284  19.452  0.00  0.00    +0.000 A 
ENDBRANCH  15  17
ENDBRANCH   8  15
TORSDOF 3
ENDMDL
MODEL 8
REMARK VINA RESULT:      -8.0      1.423      1.587
REMARK  Name = 
REMARK  3 active torsions:
REMARK  status: ('A' for Active; 'I' for Inactive)
REMARK    1  A    between atoms: C_2  and  C_5
REMARK    2  A    between atoms: C_12  and  N_13
REMARK    3  A    between atoms: N_13  and  C_14
REMARK                            x       y       z     vdW  Elec       q    Type
REMARK                         _______ _______ _______ _____ _____    ______ ____
ROOT
ATOM      1  C   UNL     1       5.461   4.929  18.463  0.00  0.00    +0.000 A 
ATOM      2  C   UNL     1       5.274   3.750  17.737  0.00  0.00    +0.000 A 
ATOM      3  C   UNL     1       4.085   3.028  17.868  0.00  0.00    +0.000 A 
ATOM      4  C   UNL     1       3.052   3.450  18.694  0.00  0.00    +0.000 A 
ATOM      5  N   UNL     1       1.937   2.705  18.748  0.00  0.00    +0.000 NA
ATOM      6  C   UNL     1       0.925   3.134  19.526  0.00  0.00    +0.000 A 
ATOM      7  C   UNL     1       0.962   4.298  20.263  0.00  0.00    +0.000 A 
ATOM      8  C   UNL     1       2.120   5.076  20.227  0.00  0.00    +0.000 A 
ATOM      9  C   UNL     1       3.210   4.650  19.422  0.00  0.00    +0.000 A 
ATOM     10  C   UNL     1       4.431   5.359  19.314  0.00  0.00    +0.000 A 
ENDROOT
BRANCH   1  12
ATOM     11  F   UNL     1       7.350   5.964  19.531  0.00  0.00    +0.000 F 
ATOM     12  C   UNL     1       6.734   5.732  18.339  0.00  0.00    +0.000 C 
ATOM     13  F   UNL     1       6.528   6.956  17.779  0.00  0.00    +0.000 F 
ATOM     14  F   UNL     1       7.660   5.111  17.557  0.00  0.00    +0.000 F 
ENDBRANCH   1  12
BRANCH   8  15
ATOM     15  N   UNL     1       2.169   6.342  20.878  0.00  0.00    +0.000 N 
ATOM     16  H   UNL     1       3.080   6.450  21.321  0.00  0.00    +0.000 HD
BRANCH  15  17
ATOM     17  C   UNL     1       1.643   7.576  20.433  0.00  0.00    +0.000 A 
ATOM     18  C   UNL     1       1.927   8.024  19.136  0.00  0.00    +0.000 A 
ATOM     19  C   UNL     1       1.493   9.280  18.698  0.00  0.00    +0.000 A 
ATOM     20  C   UNL     1       0.781  10.113  19.562  0.00  0.00    +0.000 A 
ATOM     21 CL   UNL     1       0.319  11.672  18.976  0.00  0.00    +0.000 Cl
ATOM     22  C   UNL     1       0.487   9.680  20.857  0.00  0.00    +0.000 A 
ATOM     23 CL   UNL     1      -0.387  10.656  21.983  0.00  0.00    +0.000 Cl
ATOM     24  C   UNL     1       0.920   8.419  21.286  0.00  0.00    +0.000 A 
ENDBRANCH  15  17
ENDBRANCH   8  15
TORSDOF 3
ENDMDL
MODEL 9
REMARK VINA RESULT:      -8.0      4.744      6.379
REMARK  Name = 
REMARK  3 active torsions:
REMARK  status: ('A' for Active; 'I' for Inactive)
REMARK    1  A    between atoms: C_2  and  C_5
REMARK    2  A    between atoms: C_12  and  N_13
REMARK    3  A    between atoms: N_13  and  C_14
REMARK                            x       y       z     vdW  Elec       q    Type
REMARK                         _______ _______ _______ _____ _____    ______ ____
ROOT
ATOM      1  C   UNL     1       5.434   3.772  12.711  0.00  0.00    +0.000 A 
ATOM      2  C   UNL     1       6.766   4.160  12.547  0.00  0.00    +0.000 A 
ATOM      3  C   UNL     1       7.449   4.783  13.596  0.00  0.00    +0.000 A 
ATOM      4  C   UNL     1       6.850   5.024  14.825  0.00  0.00    +0.000 A 
ATOM      5  N   UNL     1       7.583   5.612  15.784  0.00  0.00    +0.000 NA
ATOM      6  C   UNL     1       7.009   5.815  16.985  0.00  0.00    +0.000 A 
ATOM      7  C   UNL     1       5.717   5.446  17.293  0.00  0.00    +0.000 A 
ATOM      8  C   UNL     1       4.940   4.846  16.302  0.00  0.00    +0.000 A 
ATOM      9  C   UNL     1       5.510   4.622  15.021  0.00  0.00    +0.000 A 
ATOM     10  C   UNL     1       4.812   4.023  13.943  0.00  0.00    +0.000 A 
ENDROOT
BRANCH   1  12
ATOM     11  F   UNL     1       5.253   1.939  11.164  0.00  0.00    +0.000 F 
ATOM     12  C   UNL     1       4.673   3.094  11.596  0.00  0.00    +0.000 C 
ATOM     13  F   UNL     1       4.544   3.883  10.495  0.00  0.00    +0.000 F 
ATOM     14  F   UNL     1       3.406   2.757  11.969  0.00  0.00    +0.000 F 
ENDBRANCH   1  12
BRANCH   8  15
ATOM     15  N   UNL     1       3.640   4.343  16.599  0.00  0.00    +0.000 N 
ATOM     16  H   UNL     1       3.298   3.820  15.795  0.00  0.00    +0.000 HD
BRANCH  15  17
ATOM     17  C   UNL     1       3.162   3.818  17.821  0.00  0.00    +0.000 A 
ATOM     18  C   UNL     1       1.864   4.126  18.248  0.00  0.00    +0.000 A 
ATOM     19  C   UNL     1       1.395   3.694  19.493  0.00  0.00    +0.000 A 
ATOM     20  C   UNL     1       2.228   2.957  20.336  0.00  0.00    +0.000 A 
ATOM     21 CL   UNL     1       1.604   2.498  21.881  0.00  0.00    +0.000 Cl
ATOM     22  C   UNL     1       3.523   2.639  19.924  0.00  0.00    +0.000 A 
ATOM     23 CL   UNL     1       4.614   1.734  20.913  0.00  0.00    +0.000 Cl
ATOM     24  C   UNL     1       3.984   3.071  18.673  0.00  0.00    +0.000 A 
ENDBRANCH  15  17
ENDBRANCH   8  15
TORSDOF 3
ENDMDL
