MODEL 1
REMARK VINA RESULT:      -8.4      0.000      0.000
REMARK  Name = 
REMARK  8 active torsions:
REMARK  status: ('A' for Active; 'I' for Inactive)
REMARK    1  A    between atoms: C_1  and  O_2
REMARK    2  A    between atoms: O_2  and  C_3
REMARK    3  A    between atoms: C_3  and  C_4
REMARK    4  A    between atoms: C_4  and  O_5
REMARK    5  A    between atoms: O_5  and  C_6
REMARK    6  A    between atoms: C_10  and  C_11
REMARK    7  A    between atoms: C_18  and  O_19
REMARK    8  A    between atoms: O_19  and  C_20
REMARK                            x       y       z     vdW  Elec       q    Type
REMARK                         _______ _______ _______ _____ _____    ______ ____
ROOT
ATOM      1  C   UNL     1       2.145   6.662  19.312  0.00  0.00    +0.000 A 
ATOM      2  C   UNL     1       1.746   6.281  20.581  0.00  0.00    +0.000 A 
ATOM      3  C   UNL     1       1.888   4.950  20.943  0.00  0.00    +0.000 A 
ATOM      4  C   UNL     1       2.426   4.031  20.036  0.00  0.00    +0.000 A 
ATOM      5  C   UNL     1       2.570   2.689  20.410  0.00  0.00    +0.000 A 
ATOM      6  C   UNL     1       3.097   1.765  19.519  0.00  0.00    +0.000 A 
ATOM      7  C   UNL     1       3.493   2.176  18.254  0.00  0.00    +0.000 A 
ATOM      8  C   UNL     1       3.381   3.522  17.874  0.00  0.00    +0.000 A 
ATOM      9  C   UNL     1       2.818   4.479  18.753  0.00  0.00    +0.000 A 
ATOM     10  N   UNL     1       2.662   5.786  18.416  0.00  0.00    +0.000 NA
ENDROOT
BRANCH   1  15
ATOM     11  C   UNL     1       0.133  11.394  20.369  0.00  0.00    +0.000 A 
ATOM     12  C   UNL     1       0.003  10.163  21.142  0.00  0.00    +0.000 A 
ATOM     13  C   UNL     1       0.598   9.041  20.707  0.00  0.00    +0.000 A 
ATOM     14  N   UNL     1       1.334   9.056  19.521  0.00  0.00    +0.000 N 
ATOM     15  C   UNL     1       2.021   8.045  18.865  0.00  0.00    +0.000 A 
ATOM     16  C   UNL     1       2.500   8.658  17.717  0.00  0.00    +0.000 A 
ATOM     17  N   UNL     1       2.153   9.980  17.647  0.00  0.00    +0.000 NA
ATOM     18  C   UNL     1       1.461  10.207  18.743  0.00  0.00    +0.000 A 
ATOM     19  C   UNL     1       0.835  11.396  19.217  0.00  0.00    +0.000 A 
BRANCH  11  20
ATOM     20  O   UNL     1      -0.464  12.567  20.793  0.00  0.00    +0.000 OA
BRANCH  20  21
ATOM     21  C   UNL     1      -1.418  13.179  19.927  0.00  0.00    +0.000 C 
BRANCH  21  22
ATOM     22  C   UNL     1      -2.769  12.497  20.084  0.00  0.00    +0.000 C 
BRANCH  22  24
ATOM     23  C   UNL     1      -4.393  11.788  18.530  0.00  0.00    +0.000 C 
ATOM     24  O   UNL     1      -3.026  11.731  18.907  0.00  0.00    +0.000 OA
ENDBRANCH  22  24
ENDBRANCH  21  22
ENDBRANCH  20  21
ENDBRANCH  11  20
ENDBRANCH   1  15
BRANCH   8  25
ATOM     25  O   UNL     1       3.775   3.967  16.627  0.00  0.00    +0.000 OA
BRANCH  25  26
ATOM     26  C   UNL     1       5.178   3.941  16.293  0.00  0.00    +0.000 C 
ATOM     27  C   UNL     1       6.034   4.553  17.408  0.00  0.00    +0.000 C 
ATOM     28  C   UNL     1       7.498   4.675  16.996  0.00  0.00    +0.000 C 
ATOM     29  N   UNL     1       7.643   5.449  15.769  0.00  0.00    +0.000 NA
ATOM     30  C   UNL     1       6.891   4.848  14.660  0.00  0.00    +0.000 C 
ATOM     31  C   UNL     1       5.394   4.695  14.970  0.00  0.00    +0.000 C 
ATOM     32  F   UNL     1       4.838   5.938  15.043  0.00  0.00    +0.000 F 
ATOM     33  H   UNL     1       8.626   5.545  15.520  0.00  0.00    +0.000 HD
ENDBRANCH  25  26
ENDBRANCH   8  25
TORSDOF 7
ENDMDL
MODEL 2
REMARK VINA RESULT:      -8.4      1.156      1.259
REMARK  Name = 
REMARK  8 active torsions:
REMARK  status: ('A' for Active; 'I' for Inactive)
REMARK    1  A    between atoms: C_1  and  O_2
REMARK    2  A    between atoms: O_2  and  C_3
REMARK    3  A    between atoms: C_3  and  C_4
REMARK    4  A    between atoms: C_4  and  O_5
REMARK    5  A    between atoms: O_5  and  C_6
REMARK    6  A    between atoms: C_10  and  C_11
REMARK    7  A    between atoms: C_18  and  O_19
REMARK    8  A    between atoms: O_19  and  C_20
REMARK                            x       y       z     vdW  Elec       q    Type
REMARK                         _______ _______ _______ _____ _____    ______ ____
ROOT
ATOM      1  C   UNL     1       2.071   6.511  19.322  0.00  0.00    +0.000 A 
ATOM      2  C   UNL     1       1.638   6.038  20.548  0.00  0.00    +0.000 A 
ATOM      3  C   UNL     1       1.773   4.683  20.813  0.00  0.00    +0.000 A 
ATOM      4  C   UNL     1       2.336   3.834  19.855  0.00  0.00    +0.000 A 
ATOM      5  C   UNL     1       2.472   2.467  20.132  0.00  0.00    +0.000 A 
ATOM      6  C   UNL     1       3.023   1.612  19.189  0.00  0.00    +0.000 A 
ATOM      7  C   UNL     1       3.452   2.116  17.969  0.00  0.00    +0.000 A 
ATOM      8  C   UNL     1       3.349   3.487  17.687  0.00  0.00    +0.000 A 
ATOM      9  C   UNL     1       2.761   4.377  18.620  0.00  0.00    +0.000 A 
ATOM     10  N   UNL     1       2.613   5.705  18.377  0.00  0.00    +0.000 NA
ENDROOT
BRANCH   1  15
ATOM     11  C   UNL     1       0.363  11.229  20.870  0.00  0.00    +0.000 A 
ATOM     12  C   UNL     1       0.263   9.954  21.575  0.00  0.00    +0.000 A 
ATOM     13  C   UNL     1       0.767   8.845  21.013  0.00  0.00    +0.000 A 
ATOM     14  N   UNL     1       1.379   8.913  19.760  0.00  0.00    +0.000 N 
ATOM     15  C   UNL     1       1.956   7.925  18.976  0.00  0.00    +0.000 A 
ATOM     16  C   UNL     1       2.340   8.595  17.824  0.00  0.00    +0.000 A 
ATOM     17  N   UNL     1       2.040   9.929  17.872  0.00  0.00    +0.000 NA
ATOM     18  C   UNL     1       1.472  10.106  19.046  0.00  0.00    +0.000 A 
ATOM     19  C   UNL     1       0.945  11.282  19.654  0.00  0.00    +0.000 A 
BRANCH  11  20
ATOM     20  O   UNL     1      -0.142  12.390  21.425  0.00  0.00    +0.000 OA
BRANCH  20  21
ATOM     21  C   UNL     1      -1.088  12.265  22.485  0.00  0.00    +0.000 C 
BRANCH  21  22
ATOM     22  C   UNL     1      -2.499  12.425  21.938  0.00  0.00    +0.000 C 
BRANCH  22  24
ATOM     23  C   UNL     1      -4.619  12.916  22.845  0.00  0.00    +0.000 C 
ATOM     24  O   UNL     1      -3.424  12.164  22.994  0.00  0.00    +0.000 OA
ENDBRANCH  22  24
ENDBRANCH  21  22
ENDBRANCH  20  21
ENDBRANCH  11  20
ENDBRANCH   1  15
BRANCH   8  25
ATOM     25  O   UNL     1       3.775   4.024  16.488  0.00  0.00    +0.000 OA
BRANCH  25  26
ATOM     26  C   UNL     1       5.179   3.968  16.164  0.00  0.00    +0.000 C 
ATOM     27  C   UNL     1       6.039   4.570  17.282  0.00  0.00    +0.000 C 
ATOM     28  C   UNL     1       7.508   4.660  16.879  0.00  0.00    +0.000 C 
ATOM     29  N   UNL     1       7.677   5.425  15.650  0.00  0.00    +0.000 NA
ATOM     30  C   UNL     1       6.921   4.834  14.539  0.00  0.00    +0.000 C 
ATOM     31  C   UNL     1       5.419   4.711  14.839  0.00  0.00    +0.000 C 
ATOM     32  F   UNL     1       4.887   5.965  14.901  0.00  0.00    +0.000 F 
ATOM     33  H   UNL     1       8.664   5.500  15.407  0.00  0.00    +0.000 HD
ENDBRANCH  25  26
ENDBRANCH   8  25
TORSDOF 7
ENDMDL
MODEL 3
REMARK VINA RESULT:      -8.4      1.389      2.116
REMARK  Name = 
REMARK  8 active torsions:
REMARK  status: ('A' for Active; 'I' for Inactive)
REMARK    1  A    between atoms: C_1  and  O_2
REMARK    2  A    between atoms: O_2  and  C_3
REMARK    3  A    between atoms: C_3  and  C_4
REMARK    4  A    between atoms: C_4  and  O_5
REMARK    5  A    between atoms: O_5  and  C_6
REMARK    6  A    between atoms: C_10  and  C_11
REMARK    7  A    between atoms: C_18  and  O_19
REMARK    8  A    between atoms: O_19  and  C_20
REMARK                            x       y       z     vdW  Elec       q    Type
REMARK                         _______ _______ _______ _____ _____    ______ ____
ROOT
ATOM      1  C   UNL     1       2.107   6.516  19.268  0.00  0.00    +0.000 A 
ATOM      2  C   UNL     1       1.674   6.077  20.507  0.00  0.00    +0.000 A 
ATOM      3  C   UNL     1       1.799   4.729  20.806  0.00  0.00    +0.000 A 
ATOM      4  C   UNL     1       2.353   3.851  19.869  0.00  0.00    +0.000 A 
ATOM      5  C   UNL     1       2.479   2.491  20.180  0.00  0.00    +0.000 A 
ATOM      6  C   UNL     1       3.022   1.608  19.258  0.00  0.00    +0.000 A 
ATOM      7  C   UNL     1       3.452   2.077  18.025  0.00  0.00    +0.000 A 
ATOM      8  C   UNL     1       3.359   3.441  17.709  0.00  0.00    +0.000 A 
ATOM      9  C   UNL     1       2.780   4.359  18.620  0.00  0.00    +0.000 A 
ATOM     10  N   UNL     1       2.641   5.682  18.343  0.00  0.00    +0.000 NA
ENDROOT
BRANCH   1  15
ATOM     11  C   UNL     1       0.485  11.293  20.721  0.00  0.00    +0.000 A 
ATOM     12  C   UNL     1       0.384  10.039  21.462  0.00  0.00    +0.000 A 
ATOM     13  C   UNL     1       0.864   8.909  20.920  0.00  0.00    +0.000 A 
ATOM     14  N   UNL     1       1.452   8.936  19.655  0.00  0.00    +0.000 N 
ATOM     15  C   UNL     1       2.002   7.921  18.887  0.00  0.00    +0.000 A 
ATOM     16  C   UNL     1       2.372   8.555  17.710  0.00  0.00    +0.000 A 
ATOM     17  N   UNL     1       2.088   9.894  17.728  0.00  0.00    +0.000 NA
ATOM     18  C   UNL     1       1.546  10.109  18.907  0.00  0.00    +0.000 A 
ATOM     19  C   UNL     1       1.044  11.307  19.493  0.00  0.00    +0.000 A 
BRANCH  11  20
ATOM     20  O   UNL     1       0.005  12.475  21.254  0.00  0.00    +0.000 OA
BRANCH  20  21
ATOM     21  C   UNL     1       0.380  13.694  20.615  0.00  0.00    +0.000 C 
BRANCH  21  22
ATOM     22  C   UNL     1       1.246  14.523  21.551  0.00  0.00    +0.000 C 
BRANCH  22  24
ATOM     23  C   UNL     1       3.433  14.224  20.724  0.00  0.00    +0.000 C 
ATOM     24  O   UNL     1       2.495  13.853  21.723  0.00  0.00    +0.000 OA
ENDBRANCH  22  24
ENDBRANCH  21  22
ENDBRANCH  20  21
ENDBRANCH  11  20
ENDBRANCH   1  15
BRANCH   8  25
ATOM     25  O   UNL     1       3.786   3.944  16.495  0.00  0.00    +0.000 OA
BRANCH  25  26
ATOM     26  C   UNL     1       5.198   3.936  16.200  0.00  0.00    +0.000 C 
ATOM     27  C   UNL     1       6.015   4.557  17.339  0.00  0.00    +0.000 C 
ATOM     28  C   UNL     1       7.488   4.698  16.968  0.00  0.00    +0.000 C 
ATOM     29  N   UNL     1       7.658   5.475  15.747  0.00  0.00    +0.000 NA
ATOM     30  C   UNL     1       6.945   4.866  14.617  0.00  0.00    +0.000 C 
ATOM     31  C   UNL     1       5.442   4.693  14.885  0.00  0.00    +0.000 C 
ATOM     32  F   UNL     1       4.869   5.930  14.943  0.00  0.00    +0.000 F 
ATOM     33  H   UNL     1       8.646   5.583  15.525  0.00  0.00    +0.000 HD
ENDBRANCH  25  26
ENDBRANCH   8  25
TORSDOF 7
ENDMDL
MODEL 4
REMARK VINA RESULT:      -8.1      1.371      1.499
REMARK  Name = 
REMARK  8 active torsions:
REMARK  status: ('A' for Active; 'I' for Inactive)
REMARK    1  A    between atoms: C_1  and  O_2
REMARK    2  A    between atoms: O_2  and  C_3
REMARK    3  A    between atoms: C_3  and  C_4
REMARK    4  A    between atoms: C_4  and  O_5
REMARK    5  A    between atoms: O_5  and  C_6
REMARK    6  A    between atoms: C_10  and  C_11
REMARK    7  A    between atoms: C_18  and  O_19
REMARK    8  A    between atoms: O_19  and  C_20
REMARK                            x       y       z     vdW  Elec       q    Type
REMARK                         _______ _______ _______ _____ _____    ______ ____
ROOT
ATOM      1  C   UNL     1       2.054   6.422  19.392  0.00  0.00    +0.000 A 
ATOM      2  C   UNL     1       1.625   5.911  20.605  0.00  0.00    +0.000 A 
ATOM      3  C   UNL     1       1.775   4.552  20.834  0.00  0.00    +0.000 A 
ATOM      4  C   UNL     1       2.349   3.735  19.854  0.00  0.00    +0.000 A 
ATOM      5  C   UNL     1       2.501   2.363  20.095  0.00  0.00    +0.000 A 
ATOM      6  C   UNL     1       3.063   1.540  19.130  0.00  0.00    +0.000 A 
ATOM      7  C   UNL     1       3.488   2.081  17.925  0.00  0.00    +0.000 A 
ATOM      8  C   UNL     1       3.369   3.458  17.680  0.00  0.00    +0.000 A 
ATOM      9  C   UNL     1       2.770   4.315  18.635  0.00  0.00    +0.000 A 
ATOM     10  N   UNL     1       2.606   5.648  18.428  0.00  0.00    +0.000 NA
ENDROOT
BRANCH   1  15
ATOM     11  C   UNL     1       0.583  11.131  21.190  0.00  0.00    +0.000 A 
ATOM     12  C   UNL     1       0.540   9.845  21.880  0.00  0.00    +0.000 A 
ATOM     13  C   UNL     1       0.967   8.740  21.250  0.00  0.00    +0.000 A 
ATOM     14  N   UNL     1       1.446   8.823  19.941  0.00  0.00    +0.000 N 
ATOM     15  C   UNL     1       1.923   7.843  19.084  0.00  0.00    +0.000 A 
ATOM     16  C   UNL     1       2.194   8.529  17.910  0.00  0.00    +0.000 A 
ATOM     17  N   UNL     1       1.919   9.866  18.011  0.00  0.00    +0.000 NA
ATOM     18  C   UNL     1       1.480  10.029  19.241  0.00  0.00    +0.000 A 
ATOM     19  C   UNL     1       1.035  11.199  19.921  0.00  0.00    +0.000 A 
BRANCH  11  20
ATOM     20  O   UNL     1       0.156  12.288  21.814  0.00  0.00    +0.000 OA
BRANCH  20  21
ATOM     21  C   UNL     1       0.633  13.533  21.307  0.00  0.00    +0.000 C 
BRANCH  21  22
ATOM     22  C   UNL     1       0.014  14.681  22.088  0.00  0.00    +0.000 C 
BRANCH  22  24
ATOM     23  C   UNL     1      -1.957  15.058  20.852  0.00  0.00    +0.000 C 
ATOM     24  O   UNL     1      -1.406  14.537  22.052  0.00  0.00    +0.000 OA
ENDBRANCH  22  24
ENDBRANCH  21  22
ENDBRANCH  20  21
ENDBRANCH  11  20
ENDBRANCH   1  15
BRANCH   8  25
ATOM     25  O   UNL     1       3.791   4.031  16.496  0.00  0.00    +0.000 OA
BRANCH  25  26
ATOM     26  C   UNL     1       5.194   3.989  16.167  0.00  0.00    +0.000 C 
ATOM     27  C   UNL     1       6.055   4.568  17.296  0.00  0.00    +0.000 C 
ATOM     28  C   UNL     1       7.522   4.674  16.892  0.00  0.00    +0.000 C 
ATOM     29  N   UNL     1       7.685   5.468  15.681  0.00  0.00    +0.000 NA
ATOM     30  C   UNL     1       6.928   4.901  14.558  0.00  0.00    +0.000 C 
ATOM     31  C   UNL     1       5.428   4.764  14.859  0.00  0.00    +0.000 C 
ATOM     32  F   UNL     1       4.891   6.014  14.953  0.00  0.00    +0.000 F 
ATOM     33  H   UNL     1       8.670   5.554  15.437  0.00  0.00    +0.000 HD
ENDBRANCH  25  26
ENDBRANCH   8  25
TORSDOF 7
ENDMDL
MODEL 5
REMARK VINA RESULT:      -8.0      1.243      1.781
REMARK  Name = 
REMARK  8 active torsions:
REMARK  status: ('A' for Active; 'I' for Inactive)
REMARK    1  A    between atoms: C_1  and  O_2
REMARK    2  A    between atoms: O_2  and  C_3
REMARK    3  A    between atoms: C_3  and  C_4
REMARK    4  A    between atoms: C_4  and  O_5
REMARK    5  A    between atoms: O_5  and  C_6
REMARK    6  A    between atoms: C_10  and  C_11
REMARK    7  A    between atoms: C_18  and  O_19
REMARK    8  A    between atoms: O_19  and  C_20
REMARK                            x       y       z     vdW  Elec       q    Type
REMARK                         _______ _______ _______ _____ _____    ______ ____
ROOT
ATOM      1  C   UNL     1       2.112   6.585  19.311  0.00  0.00    +0.000 A 
ATOM      2  C   UNL     1       1.638   6.153  20.538  0.00  0.00    +0.000 A 
ATOM      3  C   UNL     1       1.767   4.810  20.856  0.00  0.00    +0.000 A 
ATOM      4  C   UNL     1       2.364   3.929  19.949  0.00  0.00    +0.000 A 
ATOM      5  C   UNL     1       2.494   2.574  20.278  0.00  0.00    +0.000 A 
ATOM      6  C   UNL     1       3.080   1.688  19.386  0.00  0.00    +0.000 A 
ATOM      7  C   UNL     1       3.549   2.149  18.165  0.00  0.00    +0.000 A 
ATOM      8  C   UNL     1       3.452   3.509  17.831  0.00  0.00    +0.000 A 
ATOM      9  C   UNL     1       2.831   4.429  18.710  0.00  0.00    +0.000 A 
ATOM     10  N   UNL     1       2.688   5.747  18.415  0.00  0.00    +0.000 NA
ENDROOT
BRANCH   1  15
ATOM     11  C   UNL     1       0.229  11.322  20.568  0.00  0.00    +0.000 A 
ATOM     12  C   UNL     1       0.091  10.069  21.305  0.00  0.00    +0.000 A 
ATOM     13  C   UNL     1       0.651   8.950  20.820  0.00  0.00    +0.000 A 
ATOM     14  N   UNL     1       1.358   8.988  19.616  0.00  0.00    +0.000 N 
ATOM     15  C   UNL     1       2.006   7.985  18.912  0.00  0.00    +0.000 A 
ATOM     16  C   UNL     1       2.469   8.624  17.771  0.00  0.00    +0.000 A 
ATOM     17  N   UNL     1       2.149   9.954  17.752  0.00  0.00    +0.000 NA
ATOM     18  C   UNL     1       1.490  10.160  18.873  0.00  0.00    +0.000 A 
ATOM     19  C   UNL     1       0.902  11.346  19.399  0.00  0.00    +0.000 A 
BRANCH  11  20
ATOM     20  O   UNL     1      -0.332  12.493  21.045  0.00  0.00    +0.000 OA
BRANCH  20  21
ATOM     21  C   UNL     1      -1.609  12.410  21.674  0.00  0.00    +0.000 C 
BRANCH  21  22
ATOM     22  C   UNL     1      -1.503  12.874  23.119  0.00  0.00    +0.000 C 
BRANCH  22  24
ATOM     23  C   UNL     1      -1.217  14.955  24.189  0.00  0.00    +0.000 C 
ATOM     24  O   UNL     1      -0.772  14.099  23.148  0.00  0.00    +0.000 OA
ENDBRANCH  22  24
ENDBRANCH  21  22
ENDBRANCH  20  21
ENDBRANCH  11  20
ENDBRANCH   1  15
BRANCH   8  25
ATOM     25  O   UNL     1       3.919   4.004  16.629  0.00  0.00    +0.000 OA
BRANCH  25  26
ATOM     26  C   UNL     1       5.340   4.180  16.456  0.00  0.00    +0.000 C 
ATOM     27  C   UNL     1       5.810   5.534  17.002  0.00  0.00    +0.000 C 
ATOM     28  C   UNL     1       7.279   5.794  16.680  0.00  0.00    +0.000 C 
ATOM     29  N   UNL     1       7.531   5.717  15.247  0.00  0.00    +0.000 NA
ATOM     30  C   UNL     1       7.157   4.405  14.703  0.00  0.00    +0.000 C 
ATOM     31  C   UNL     1       5.685   4.051  14.963  0.00  0.00    +0.000 C 
ATOM     32  F   UNL     1       4.902   4.891  14.226  0.00  0.00    +0.000 F 
ATOM     33  H   UNL     1       8.509   5.919  15.043  0.00  0.00    +0.000 HD
ENDBRANCH  25  26
ENDBRANCH   8  25
TORSDOF 7
ENDMDL
MODEL 6
REMARK VINA RESULT:      -8.0      2.820      9.002
REMARK  Name = 
REMARK  8 active torsions:
REMARK  status: ('A' for Active; 'I' for Inactive)
REMARK    1  A    between atoms: C_1  and  O_2
REMARK    2  A    between atoms: O_2  and  C_3
REMARK    3  A    between atoms: C_3  and  C_4
REMARK    4  A    between atoms: C_4  and  O_5
REMARK    5  A    between atoms: O_5  and  C_6
REMARK    6  A    between atoms: C_10  and  C_11
REMARK    7  A    between atoms: C_18  and  O_19
REMARK    8  A    between atoms: O_19  and  C_20
REMARK                            x       y       z     vdW  Elec       q    Type
REMARK                         _______ _______ _______ _____ _____    ______ ____
ROOT
ATOM      1  C   UNL     1       0.795   9.402  20.279  0.00  0.00    +0.000 A 
ATOM      2  C   UNL     1       0.505   8.695  21.433  0.00  0.00    +0.000 A 
ATOM      3  C   UNL     1      -0.258   9.317  22.409  0.00  0.00    +0.000 A 
ATOM      4  C   UNL     1      -0.714  10.625  22.215  0.00  0.00    +0.000 A 
ATOM      5  C   UNL     1      -1.488  11.245  23.205  0.00  0.00    +0.000 A 
ATOM      6  C   UNL     1      -1.943  12.544  23.028  0.00  0.00    +0.000 A 
ATOM      7  C   UNL     1      -1.640  13.227  21.859  0.00  0.00    +0.000 A 
ATOM      8  C   UNL     1      -0.890  12.609  20.846  0.00  0.00    +0.000 A 
ATOM      9  C   UNL     1      -0.387  11.296  21.014  0.00  0.00    +0.000 A 
ATOM     10  N   UNL     1       0.368  10.671  20.073  0.00  0.00    +0.000 NA
ENDROOT
BRANCH   1  15
ATOM     11  C   UNL     1       3.562   5.208  18.755  0.00  0.00    +0.000 A 
ATOM     12  C   UNL     1       2.863   5.420  20.019  0.00  0.00    +0.000 A 
ATOM     13  C   UNL     1       2.201   6.569  20.225  0.00  0.00    +0.000 A 
ATOM     14  N   UNL     1       2.185   7.554  19.236  0.00  0.00    +0.000 N 
ATOM     15  C   UNL     1       1.595   8.808  19.212  0.00  0.00    +0.000 A 
ATOM     16  C   UNL     1       1.978   9.334  17.987  0.00  0.00    +0.000 A 
ATOM     17  N   UNL     1       2.753   8.467  17.266  0.00  0.00    +0.000 NA
ATOM     18  C   UNL     1       2.860   7.398  18.026  0.00  0.00    +0.000 A 
ATOM     19  C   UNL     1       3.552   6.171  17.809  0.00  0.00    +0.000 A 
BRANCH  11  20
ATOM     20  O   UNL     1       4.248   4.033  18.509  0.00  0.00    +0.000 OA
BRANCH  20  21
ATOM     21  C   UNL     1       3.754   2.837  19.110  0.00  0.00    +0.000 C 
BRANCH  21  22
ATOM     22  C   UNL     1       3.307   1.863  18.029  0.00  0.00    +0.000 C 
BRANCH  22  24
ATOM     23  C   UNL     1       1.110   2.343  18.737  0.00  0.00    +0.000 C 
ATOM     24  O   UNL     1       1.984   2.215  17.625  0.00  0.00    +0.000 OA
ENDBRANCH  22  24
ENDBRANCH  21  22
ENDBRANCH  20  21
ENDBRANCH  11  20
ENDBRANCH   1  15
BRANCH   8  25
ATOM     25  O   UNL     1      -0.579  13.256  19.665  0.00  0.00    +0.000 OA
BRANCH  25  26
ATOM     26  C   UNL     1       0.305  14.395  19.711  0.00  0.00    +0.000 C 
ATOM     27  C   UNL     1      -0.195  15.532  18.812  0.00  0.00    +0.000 C 
ATOM     28  C   UNL     1       0.814  16.674  18.731  0.00  0.00    +0.000 C 
ATOM     29  N   UNL     1       2.114  16.205  18.270  0.00  0.00    +0.000 NA
ATOM     30  C   UNL     1       2.655  15.163  19.151  0.00  0.00    +0.000 C 
ATOM     31  C   UNL     1       1.716  13.954  19.290  0.00  0.00    +0.000 C 
ATOM     32  F   UNL     1       1.667  13.306  18.091  0.00  0.00    +0.000 F 
ATOM     33  H   UNL     1       2.770  16.981  18.195  0.00  0.00    +0.000 HD
ENDBRANCH  25  26
ENDBRANCH   8  25
TORSDOF 7
ENDMDL
MODEL 7
REMARK VINA RESULT:      -7.9      1.996      2.317
REMARK  Name = 
REMARK  8 active torsions:
REMARK  status: ('A' for Active; 'I' for Inactive)
REMARK    1  A    between atoms: C_1  and  O_2
REMARK    2  A    between atoms: O_2  and  C_3
REMARK    3  A    between atoms: C_3  and  C_4
REMARK    4  A    between atoms: C_4  and  O_5
REMARK    5  A    between atoms: O_5  and  C_6
REMARK    6  A    between atoms: C_10  and  C_11
REMARK    7  A    between atoms: C_18  and  O_19
REMARK    8  A    between atoms: O_19  and  C_20
REMARK                            x       y       z     vdW  Elec       q    Type
REMARK                         _______ _______ _______ _____ _____    ______ ____
ROOT
ATOM      1  C   UNL     1       1.943   6.904  20.025  0.00  0.00    +0.000 A 
ATOM      2  C   UNL     1       1.129   6.020  20.711  0.00  0.00    +0.000 A 
ATOM      3  C   UNL     1       1.550   4.705  20.839  0.00  0.00    +0.000 A 
ATOM      4  C   UNL     1       2.768   4.301  20.284  0.00  0.00    +0.000 A 
ATOM      5  C   UNL     1       3.188   2.972  20.421  0.00  0.00    +0.000 A 
ATOM      6  C   UNL     1       4.392   2.556  19.871  0.00  0.00    +0.000 A 
ATOM      7  C   UNL     1       5.190   3.466  19.192  0.00  0.00    +0.000 A 
ATOM      8  C   UNL     1       4.797   4.808  19.071  0.00  0.00    +0.000 A 
ATOM      9  C   UNL     1       3.558   5.251  19.595  0.00  0.00    +0.000 A 
ATOM     10  N   UNL     1       3.124   6.533  19.475  0.00  0.00    +0.000 NA
ENDROOT
BRANCH   1  15
ATOM     11  C   UNL     1      -0.290  11.099  22.257  0.00  0.00    +0.000 A 
ATOM     12  C   UNL     1      -0.094   9.769  22.825  0.00  0.00    +0.000 A 
ATOM     13  C   UNL     1       0.506   8.817  22.093  0.00  0.00    +0.000 A 
ATOM     14  N   UNL     1       0.937   9.101  20.796  0.00  0.00    +0.000 N 
ATOM     15  C   UNL     1       1.560   8.302  19.850  0.00  0.00    +0.000 A 
ATOM     16  C   UNL     1       1.683   9.128  18.743  0.00  0.00    +0.000 A 
ATOM     17  N   UNL     1       1.181  10.381  18.969  0.00  0.00    +0.000 NA
ATOM     18  C   UNL     1       0.746  10.352  20.210  0.00  0.00    +0.000 A 
ATOM     19  C   UNL     1       0.117  11.360  20.997  0.00  0.00    +0.000 A 
BRANCH  11  20
ATOM     20  O   UNL     1      -0.900  12.102  22.988  0.00  0.00    +0.000 OA
BRANCH  20  21
ATOM     21  C   UNL     1      -2.253  11.902  23.392  0.00  0.00    +0.000 C 
BRANCH  21  22
ATOM     22  C   UNL     1      -3.193  12.547  22.385  0.00  0.00    +0.000 C 
BRANCH  22  24
ATOM     23  C   UNL     1      -4.674  12.769  24.206  0.00  0.00    +0.000 C 
ATOM     24  O   UNL     1      -4.533  12.379  22.849  0.00  0.00    +0.000 OA
ENDBRANCH  22  24
ENDBRANCH  21  22
ENDBRANCH  20  21
ENDBRANCH  11  20
ENDBRANCH   1  15
BRANCH   8  25
ATOM     25  O   UNL     1       5.572   5.742  18.411  0.00  0.00    +0.000 OA
BRANCH  25  26
ATOM     26  C   UNL     1       5.712   5.638  16.979  0.00  0.00    +0.000 C 
ATOM     27  C   UNL     1       4.796   4.553  16.401  0.00  0.00    +0.000 C 
ATOM     28  C   UNL     1       5.055   4.328  14.914  0.00  0.00    +0.000 C 
ATOM     29  N   UNL     1       6.450   3.992  14.661  0.00  0.00    +0.000 NA
ATOM     30  C   UNL     1       7.353   5.046  15.140  0.00  0.00    +0.000 C 
ATOM     31  C   UNL     1       7.182   5.341  16.638  0.00  0.00    +0.000 C 
ATOM     32  F   UNL     1       7.618   4.259  17.344  0.00  0.00    +0.000 F 
ATOM     33  H   UNL     1       6.603   3.818  13.669  0.00  0.00    +0.000 HD
ENDBRANCH  25  26
ENDBRANCH   8  25
TORSDOF 7
ENDMDL
MODEL 8
REMARK VINA RESULT:      -7.8      2.641      9.058
REMARK  Name = 
REMARK  8 active torsions:
REMARK  status: ('A' for Active; 'I' for Inactive)
REMARK    1  A    between atoms: C_1  and  O_2
REMARK    2  A    between atoms: O_2  and  C_3
REMARK    3  A    between atoms: C_3  and  C_4
REMARK    4  A    between atoms: C_4  and  O_5
REMARK    5  A    between atoms: O_5  and  C_6
REMARK    6  A    between atoms: C_10  and  C_11
REMARK    7  A    between atoms: C_18  and  O_19
REMARK    8  A    between atoms: O_19  and  C_20
REMARK                            x       y       z     vdW  Elec       q    Type
REMARK                         _______ _______ _______ _____ _____    ______ ____
ROOT
ATOM      1  C   UNL     1       0.945   9.166  20.321  0.00  0.00    +0.000 A 
ATOM      2  C   UNL     1       0.975   8.638  21.599  0.00  0.00    +0.000 A 
ATOM      3  C   UNL     1       0.209   9.248  22.580  0.00  0.00    +0.000 A 
ATOM      4  C   UNL     1      -0.571  10.366  22.267  0.00  0.00    +0.000 A 
ATOM      5  C   UNL     1      -1.345  10.974  23.263  0.00  0.00    +0.000 A 
ATOM      6  C   UNL     1      -2.119  12.088  22.967  0.00  0.00    +0.000 A 
ATOM      7  C   UNL     1      -2.134  12.593  21.675  0.00  0.00    +0.000 A 
ATOM      8  C   UNL     1      -1.385  11.978  20.660  0.00  0.00    +0.000 A 
ATOM      9  C   UNL     1      -0.563  10.860  20.942  0.00  0.00    +0.000 A 
ATOM     10  N   UNL     1       0.202  10.252  19.997  0.00  0.00    +0.000 NA
ENDROOT
BRANCH   1  15
ATOM     11  C   UNL     1       3.664   4.964  18.735  0.00  0.00    +0.000 A 
ATOM     12  C   UNL     1       2.980   5.172  20.008  0.00  0.00    +0.000 A 
ATOM     13  C   UNL     1       2.328   6.324  20.230  0.00  0.00    +0.000 A 
ATOM     14  N   UNL     1       2.310   7.317  19.249  0.00  0.00    +0.000 N 
ATOM     15  C   UNL     1       1.729   8.575  19.241  0.00  0.00    +0.000 A 
ATOM     16  C   UNL     1       2.103   9.108  18.016  0.00  0.00    +0.000 A 
ATOM     17  N   UNL     1       2.865   8.241  17.281  0.00  0.00    +0.000 NA
ATOM     18  C   UNL     1       2.971   7.165  18.031  0.00  0.00    +0.000 A 
ATOM     19  C   UNL     1       3.652   5.934  17.798  0.00  0.00    +0.000 A 
BRANCH  11  20
ATOM     20  O   UNL     1       4.338   3.786  18.473  0.00  0.00    +0.000 OA
BRANCH  20  21
ATOM     21  C   UNL     1       4.045   2.655  19.293  0.00  0.00    +0.000 C 
BRANCH  21  22
ATOM     22  C   UNL     1       3.092   1.722  18.562  0.00  0.00    +0.000 C 
BRANCH  22  24
ATOM     23  C   UNL     1       0.863   2.465  18.746  0.00  0.00    +0.000 C 
ATOM     24  O   UNL     1       1.876   1.645  19.307  0.00  0.00    +0.000 OA
ENDBRANCH  22  24
ENDBRANCH  21  22
ENDBRANCH  20  21
ENDBRANCH  11  20
ENDBRANCH   1  15
BRANCH   8  25
ATOM     25  O   UNL     1      -1.385  12.449  19.361  0.00  0.00    +0.000 OA
BRANCH  25  26
ATOM     26  C   UNL     1      -2.613  12.398  18.605  0.00  0.00    +0.000 C 
ATOM     27  C   UNL     1      -3.817  12.105  19.508  0.00  0.00    +0.000 C 
ATOM     28  C   UNL     1      -5.092  11.891  18.697  0.00  0.00    +0.000 C 
ATOM     29  N   UNL     1      -4.928  10.825  17.716  0.00  0.00    +0.000 NA
ATOM     30  C   UNL     1      -3.825  11.110  16.790  0.00  0.00    +0.000 C 
ATOM     31  C   UNL     1      -2.485  11.327  17.510  0.00  0.00    +0.000 C 
ATOM     32  F   UNL     1      -2.091  10.141  18.056  0.00  0.00    +0.000 F 
ATOM     33  H   UNL     1      -5.794  10.676  17.201  0.00  0.00    +0.000 HD
ENDBRANCH  25  26
ENDBRANCH   8  25
TORSDOF 7
ENDMDL
MODEL 9
REMARK VINA RESULT:      -7.8      2.091      2.674
REMARK  Name = 
REMARK  8 active torsions:
REMARK  status: ('A' for Active; 'I' for Inactive)
REMARK    1  A    between atoms: C_1  and  O_2
REMARK    2  A    between atoms: O_2  and  C_3
REMARK    3  A    between atoms: C_3  and  C_4
REMARK    4  A    between atoms: C_4  and  O_5
REMARK    5  A    between atoms: O_5  and  C_6
REMARK    6  A    between atoms: C_10  and  C_11
REMARK    7  A    between atoms: C_18  and  O_19
REMARK    8  A    between atoms: O_19  and  C_20
REMARK                            x       y       z     vdW  Elec       q    Type
REMARK                         _______ _______ _______ _____ _____    ______ ____
ROOT
ATOM      1  C   UNL     1       1.954   6.706  20.005  0.00  0.00    +0.000 A 
ATOM      2  C   UNL     1       1.100   5.830  20.651  0.00  0.00    +0.000 A 
ATOM      3  C   UNL     1       1.497   4.509  20.791  0.00  0.00    +0.000 A 
ATOM      4  C   UNL     1       2.733   4.091  20.288  0.00  0.00    +0.000 A 
ATOM      5  C   UNL     1       3.129   2.756  20.437  0.00  0.00    +0.000 A 
ATOM      6  C   UNL     1       4.350   2.327  19.937  0.00  0.00    +0.000 A 
ATOM      7  C   UNL     1       5.188   3.228  19.297  0.00  0.00    +0.000 A 
ATOM      8  C   UNL     1       4.819   4.576  19.165  0.00  0.00    +0.000 A 
ATOM      9  C   UNL     1       3.564   5.033  19.638  0.00  0.00    +0.000 A 
ATOM     10  N   UNL     1       3.152   6.321  19.504  0.00  0.00    +0.000 NA
ENDROOT
BRANCH   1  15
ATOM     11  C   UNL     1      -0.106  10.986  22.242  0.00  0.00    +0.000 A 
ATOM     12  C   UNL     1       0.078   9.660  22.825  0.00  0.00    +0.000 A 
ATOM     13  C   UNL     1       0.632   8.684  22.089  0.00  0.00    +0.000 A 
ATOM     14  N   UNL     1       1.024   8.938  20.773  0.00  0.00    +0.000 N 
ATOM     15  C   UNL     1       1.597   8.109  19.820  0.00  0.00    +0.000 A 
ATOM     16  C   UNL     1       1.701   8.915  18.697  0.00  0.00    +0.000 A 
ATOM     17  N   UNL     1       1.236  10.183  18.918  0.00  0.00    +0.000 NA
ATOM     18  C   UNL     1       0.842  10.184  20.174  0.00  0.00    +0.000 A 
ATOM     19  C   UNL     1       0.264  11.218  20.965  0.00  0.00    +0.000 A 
BRANCH  11  20
ATOM     20  O   UNL     1      -0.668  12.014  22.976  0.00  0.00    +0.000 OA
BRANCH  20  21
ATOM     21  C   UNL     1      -0.605  13.331  22.432  0.00  0.00    +0.000 C 
BRANCH  21  22
ATOM     22  C   UNL     1      -1.518  14.259  23.219  0.00  0.00    +0.000 C 
BRANCH  22  24
ATOM     23  C   UNL     1      -1.659  15.256  25.351  0.00  0.00    +0.000 C 
ATOM     24  O   UNL     1      -0.792  14.758  24.343  0.00  0.00    +0.000 OA
ENDBRANCH  22  24
ENDBRANCH  21  22
ENDBRANCH  20  21
ENDBRANCH  11  20
ENDBRANCH   1  15
BRANCH   8  25
ATOM     25  O   UNL     1       5.633   5.502  18.542  0.00  0.00    +0.000 OA
BRANCH  25  26
ATOM     26  C   UNL     1       5.727   5.486  17.103  0.00  0.00    +0.000 C 
ATOM     27  C   UNL     1       4.845   4.389  16.494  0.00  0.00    +0.000 C 
ATOM     28  C   UNL     1       5.062   4.260  14.989  0.00  0.00    +0.000 C 
ATOM     29  N   UNL     1       6.463   4.011  14.672  0.00  0.00    +0.000 NA
ATOM     30  C   UNL     1       7.329   5.082  15.181  0.00  0.00    +0.000 C 
ATOM     31  C   UNL     1       7.197   5.284  16.698  0.00  0.00    +0.000 C 
ATOM     32  F   UNL     1       7.710   4.188  17.326  0.00  0.00    +0.000 F 
ATOM     33  H   UNL     1       6.589   3.901  13.667  0.00  0.00    +0.000 HD
ENDBRANCH  25  26
ENDBRANCH   8  25
TORSDOF 7
ENDMDL
