MODEL 1
REMARK VINA RESULT:      -7.0      0.000      0.000
REMARK  Name = 
REMARK  10 active torsions:
REMARK  status: ('A' for Active; 'I' for Inactive)
REMARK    1  A    between atoms: C_1  and  C_2
REMARK    2  A    between atoms: C_2  and  N_3
REMARK    3  A    between atoms: N_3  and  C_4
REMARK    4  A    between atoms: N_3  and  C_16
REMARK    5  A    between atoms: C_4  and  C_5
REMARK    6  A    between atoms: C_5  and  C_6
REMARK    7  A    between atoms: C_6  and  C_7
REMARK    8  A    between atoms: C_7  and  C_9
REMARK    9  A    between atoms: C_16  and  C_17
REMARK   10  A    between atoms: C_17  and  C_18
REMARK                            x       y       z     vdW  Elec       q    Type
REMARK                         _______ _______ _______ _____ _____    ______ ____
ROOT
ATOM      1  C   UNL     1       4.207   6.130  17.085  0.00  0.00    +0.000 C 
ENDROOT
BRANCH   1   2
ATOM      2  N   UNL     1       5.022   5.338  18.038  0.00  0.00    +0.000 NA
BRANCH   2   4
ATOM      3  C   UNL     1       7.463   4.764  17.549  0.00  0.00    +0.000 C 
ATOM      4  C   UNL     1       6.436   5.766  18.063  0.00  0.00    +0.000 C 
ENDBRANCH   2   4
BRANCH   2   5
ATOM      5  C   UNL     1       4.945   3.887  17.715  0.00  0.00    +0.000 C 
BRANCH   5   6
ATOM      6  C   UNL     1       3.522   3.322  17.554  0.00  0.00    +0.000 C 
BRANCH   6   7
ATOM      7  C   UNL     1       2.794   3.285  18.878  0.00  0.00    +0.000 A 
ATOM      8  C   UNL     1       1.522   3.864  18.990  0.00  0.00    +0.000 A 
ATOM      9  C   UNL     1       0.835   3.833  20.204  0.00  0.00    +0.000 A 
ATOM     10  C   UNL     1       1.418   3.232  21.317  0.00  0.00    +0.000 A 
ATOM     11  C   UNL     1       2.690   2.668  21.220  0.00  0.00    +0.000 A 
ATOM     12  C   UNL     1       3.379   2.697  20.005  0.00  0.00    +0.000 A 
ENDBRANCH   6   7
ENDBRANCH   5   6
ENDBRANCH   2   5
ENDBRANCH   1   2
BRANCH   1  13
ATOM     13  C   UNL     1       3.779   7.486  17.670  0.00  0.00    +0.000 C 
BRANCH  13  14
ATOM     14  C   UNL     1       2.471   7.437  18.460  0.00  0.00    +0.000 C 
BRANCH  14  15
ATOM     15  C   UNL     1       1.808   8.810  18.452  0.00  0.00    +0.000 C 
ATOM     16  O   UNL     1       1.882   9.574  17.493  0.00  0.00    +0.000 OA
BRANCH  15  17
ATOM     17  C   UNL     1       1.044   9.251  19.654  0.00  0.00    +0.000 A 
ATOM     18  C   UNL     1       0.192  10.358  19.627  0.00  0.00    +0.000 A 
ATOM     19  C   UNL     1      -0.491  10.740  20.790  0.00  0.00    +0.000 A 
ATOM     20  C   UNL     1      -0.322  10.013  21.964  0.00  0.00    +0.000 A 
ATOM     21  F   UNL     1      -0.976  10.386  23.068  0.00  0.00    +0.000 F 
ATOM     22  C   UNL     1       0.517   8.904  22.002  0.00  0.00    +0.000 A 
ATOM     23  C   UNL     1       1.200   8.522  20.846  0.00  0.00    +0.000 A 
ENDBRANCH  15  17
ENDBRANCH  14  15
ENDBRANCH  13  14
ENDBRANCH   1  13
TORSDOF 9
ENDMDL
MODEL 2
REMARK VINA RESULT:      -6.9      0.481      1.501
REMARK  Name = 
REMARK  10 active torsions:
REMARK  status: ('A' for Active; 'I' for Inactive)
REMARK    1  A    between atoms: C_1  and  C_2
REMARK    2  A    between atoms: C_2  and  N_3
REMARK    3  A    between atoms: N_3  and  C_4
REMARK    4  A    between atoms: N_3  and  C_16
REMARK    5  A    between atoms: C_4  and  C_5
REMARK    6  A    between atoms: C_5  and  C_6
REMARK    7  A    between atoms: C_6  and  C_7
REMARK    8  A    between atoms: C_7  and  C_9
REMARK    9  A    between atoms: C_16  and  C_17
REMARK   10  A    between atoms: C_17  and  C_18
REMARK                            x       y       z     vdW  Elec       q    Type
REMARK                         _______ _______ _______ _____ _____    ______ ____
ROOT
ATOM      1  C   UNL     1       4.381   6.145  17.081  0.00  0.00    +0.000 C 
ENDROOT
BRANCH   1   2
ATOM      2  N   UNL     1       5.536   5.848  17.961  0.00  0.00    +0.000 NA
BRANCH   2   4
ATOM      3  C   UNL     1       7.711   4.559  17.597  0.00  0.00    +0.000 C 
ATOM      4  C   UNL     1       6.801   5.719  17.209  0.00  0.00    +0.000 C 
ENDBRANCH   2   4
BRANCH   2   5
ATOM      5  C   UNL     1       5.293   4.608  18.747  0.00  0.00    +0.000 C 
BRANCH   5   6
ATOM      6  C   UNL     1       4.156   3.711  18.227  0.00  0.00    +0.000 C 
BRANCH   6   7
ATOM      7  C   UNL     1       3.112   3.476  19.294  0.00  0.00    +0.000 A 
ATOM      8  C   UNL     1       3.445   2.750  20.446  0.00  0.00    +0.000 A 
ATOM      9  C   UNL     1       2.493   2.528  21.442  0.00  0.00    +0.000 A 
ATOM     10  C   UNL     1       1.200   3.023  21.290  0.00  0.00    +0.000 A 
ATOM     11  C   UNL     1       0.855   3.733  20.140  0.00  0.00    +0.000 A 
ATOM     12  C   UNL     1       1.806   3.957  19.143  0.00  0.00    +0.000 A 
ENDBRANCH   6   7
ENDBRANCH   5   6
ENDBRANCH   2   5
ENDBRANCH   1   2
BRANCH   1  13
ATOM     13  C   UNL     1       3.744   7.510  17.393  0.00  0.00    +0.000 C 
BRANCH  13  14
ATOM     14  C   UNL     1       2.621   7.449  18.428  0.00  0.00    +0.000 C 
BRANCH  14  15
ATOM     15  C   UNL     1       1.866   8.774  18.455  0.00  0.00    +0.000 C 
ATOM     16  O   UNL     1       1.811   9.522  17.482  0.00  0.00    +0.000 OA
BRANCH  15  17
ATOM     17  C   UNL     1       1.173   9.186  19.708  0.00  0.00    +0.000 A 
ATOM     18  C   UNL     1       1.235   8.421  20.876  0.00  0.00    +0.000 A 
ATOM     19  C   UNL     1       0.551   8.846  22.024  0.00  0.00    +0.000 A 
ATOM     20  C   UNL     1      -0.182  10.027  21.997  0.00  0.00    +0.000 A 
ATOM     21  F   UNL     1      -0.832  10.423  23.095  0.00  0.00    +0.000 F 
ATOM     22  C   UNL     1      -0.245  10.802  20.843  0.00  0.00    +0.000 A 
ATOM     23  C   UNL     1       0.433  10.381  19.698  0.00  0.00    +0.000 A 
ENDBRANCH  15  17
ENDBRANCH  14  15
ENDBRANCH  13  14
ENDBRANCH   1  13
TORSDOF 9
ENDMDL
MODEL 3
REMARK VINA RESULT:      -6.9      0.872      1.355
REMARK  Name = 
REMARK  10 active torsions:
REMARK  status: ('A' for Active; 'I' for Inactive)
REMARK    1  A    between atoms: C_1  and  C_2
REMARK    2  A    between atoms: C_2  and  N_3
REMARK    3  A    between atoms: N_3  and  C_4
REMARK    4  A    between atoms: N_3  and  C_16
REMARK    5  A    between atoms: C_4  and  C_5
REMARK    6  A    between atoms: C_5  and  C_6
REMARK    7  A    between atoms: C_6  and  C_7
REMARK    8  A    between atoms: C_7  and  C_9
REMARK    9  A    between atoms: C_16  and  C_17
REMARK   10  A    between atoms: C_17  and  C_18
REMARK                            x       y       z     vdW  Elec       q    Type
REMARK                         _______ _______ _______ _____ _____    ______ ____
ROOT
ATOM      1  C   UNL     1       4.468   6.386  16.758  0.00  0.00    +0.000 C 
ENDROOT
BRANCH   1   2
ATOM      2  N   UNL     1       5.590   5.653  17.392  0.00  0.00    +0.000 NA
BRANCH   2   4
ATOM      3  C   UNL     1       6.714   4.615  15.345  0.00  0.00    +0.000 C 
ATOM      4  C   UNL     1       6.782   5.584  16.521  0.00  0.00    +0.000 C 
ENDBRANCH   2   4
BRANCH   2   5
ATOM      5  C   UNL     1       5.170   4.278  17.774  0.00  0.00    +0.000 C 
BRANCH   5   6
ATOM      6  C   UNL     1       3.738   3.888  17.367  0.00  0.00    +0.000 C 
BRANCH   6   7
ATOM      7  C   UNL     1       2.834   3.784  18.573  0.00  0.00    +0.000 A 
ATOM      8  C   UNL     1       1.575   3.181  18.449  0.00  0.00    +0.000 A 
ATOM      9  C   UNL     1       0.731   3.073  19.555  0.00  0.00    +0.000 A 
ATOM     10  C   UNL     1       1.135   3.575  20.789  0.00  0.00    +0.000 A 
ATOM     11  C   UNL     1       2.379   4.191  20.919  0.00  0.00    +0.000 A 
ATOM     12  C   UNL     1       3.226   4.299  19.814  0.00  0.00    +0.000 A 
ENDBRANCH   6   7
ENDBRANCH   5   6
ENDBRANCH   2   5
ENDBRANCH   1   2
BRANCH   1  13
ATOM     13  C   UNL     1       3.915   7.501  17.662  0.00  0.00    +0.000 C 
BRANCH  13  14
ATOM     14  C   UNL     1       2.411   7.402  17.920  0.00  0.00    +0.000 C 
BRANCH  14  15
ATOM     15  C   UNL     1       1.830   8.794  18.143  0.00  0.00    +0.000 C 
ATOM     16  O   UNL     1       1.939   9.696  17.315  0.00  0.00    +0.000 OA
BRANCH  15  17
ATOM     17  C   UNL     1       1.106   9.081  19.414  0.00  0.00    +0.000 A 
ATOM     18  C   UNL     1       1.357   8.367  20.589  0.00  0.00    +0.000 A 
ATOM     19  C   UNL     1       0.637   8.666  21.753  0.00  0.00    +0.000 A 
ATOM     20  C   UNL     1      -0.320   9.674  21.737  0.00  0.00    +0.000 A 
ATOM     21  F   UNL     1      -1.004   9.951  22.851  0.00  0.00    +0.000 F 
ATOM     22  C   UNL     1      -0.575  10.398  20.576  0.00  0.00    +0.000 A 
ATOM     23  C   UNL     1       0.139  10.101  19.414  0.00  0.00    +0.000 A 
ENDBRANCH  15  17
ENDBRANCH  14  15
ENDBRANCH  13  14
ENDBRANCH   1  13
TORSDOF 9
ENDMDL
MODEL 4
REMARK VINA RESULT:      -6.8      0.919      1.746
REMARK  Name = 
REMARK  10 active torsions:
REMARK  status: ('A' for Active; 'I' for Inactive)
REMARK    1  A    between atoms: C_1  and  C_2
REMARK    2  A    between atoms: C_2  and  N_3
REMARK    3  A    between atoms: N_3  and  C_4
REMARK    4  A    between atoms: N_3  and  C_16
REMARK    5  A    between atoms: C_4  and  C_5
REMARK    6  A    between atoms: C_5  and  C_6
REMARK    7  A    between atoms: C_6  and  C_7
REMARK    8  A    between atoms: C_7  and  C_9
REMARK    9  A    between atoms: C_16  and  C_17
REMARK   10  A    between atoms: C_17  and  C_18
REMARK                            x       y       z     vdW  Elec       q    Type
REMARK                         _______ _______ _______ _____ _____    ______ ____
ROOT
ATOM      1  C   UNL     1       4.820   5.904  18.208  0.00  0.00    +0.000 C 
ENDROOT
BRANCH   1   2
ATOM      2  N   UNL     1       5.324   4.914  17.226  0.00  0.00    +0.000 NA
BRANCH   2   4
ATOM      3  C   UNL     1       6.066   5.039  14.784  0.00  0.00    +0.000 C 
ATOM      4  C   UNL     1       4.986   5.278  15.834  0.00  0.00    +0.000 C 
ENDBRANCH   2   4
BRANCH   2   5
ATOM      5  C   UNL     1       4.795   3.556  17.530  0.00  0.00    +0.000 C 
BRANCH   5   6
ATOM      6  C   UNL     1       3.271   3.396  17.388  0.00  0.00    +0.000 C 
BRANCH   6   7
ATOM      7  C   UNL     1       2.599   3.327  18.740  0.00  0.00    +0.000 A 
ATOM      8  C   UNL     1       3.308   2.836  19.846  0.00  0.00    +0.000 A 
ATOM      9  C   UNL     1       2.703   2.772  21.101  0.00  0.00    +0.000 A 
ATOM     10  C   UNL     1       1.383   3.188  21.259  0.00  0.00    +0.000 A 
ATOM     11  C   UNL     1       0.665   3.664  20.162  0.00  0.00    +0.000 A 
ATOM     12  C   UNL     1       1.269   3.730  18.905  0.00  0.00    +0.000 A 
ENDBRANCH   6   7
ENDBRANCH   5   6
ENDBRANCH   2   5
ENDBRANCH   1   2
BRANCH   1  13
ATOM     13  C   UNL     1       3.926   6.972  17.555  0.00  0.00    +0.000 C 
BRANCH  13  14
ATOM     14  C   UNL     1       2.502   7.012  18.108  0.00  0.00    +0.000 C 
BRANCH  14  15
ATOM     15  C   UNL     1       2.041   8.458  18.253  0.00  0.00    +0.000 C 
ATOM     16  O   UNL     1       2.146   9.279  17.345  0.00  0.00    +0.000 OA
BRANCH  15  17
ATOM     17  C   UNL     1       1.446   8.901  19.546  0.00  0.00    +0.000 A 
ATOM     18  C   UNL     1       1.519   8.121  20.703  0.00  0.00    +0.000 A 
ATOM     19  C   UNL     1       0.928   8.577  21.890  0.00  0.00    +0.000 A 
ATOM     20  C   UNL     1       0.277   9.805  21.913  0.00  0.00    +0.000 A 
ATOM     21  F   UNL     1      -0.285  10.231  23.048  0.00  0.00    +0.000 F 
ATOM     22  C   UNL     1       0.204  10.595  20.769  0.00  0.00    +0.000 A 
ATOM     23  C   UNL     1       0.789  10.143  19.586  0.00  0.00    +0.000 A 
ENDBRANCH  15  17
ENDBRANCH  14  15
ENDBRANCH  13  14
ENDBRANCH   1  13
TORSDOF 9
ENDMDL
MODEL 5
REMARK VINA RESULT:      -6.8      2.404      5.500
REMARK  Name = 
REMARK  10 active torsions:
REMARK  status: ('A' for Active; 'I' for Inactive)
REMARK    1  A    between atoms: C_1  and  C_2
REMARK    2  A    between atoms: C_2  and  N_3
REMARK    3  A    between atoms: N_3  and  C_4
REMARK    4  A    between atoms: N_3  and  C_16
REMARK    5  A    between atoms: C_4  and  C_5
REMARK    6  A    between atoms: C_5  and  C_6
REMARK    7  A    between atoms: C_6  and  C_7
REMARK    8  A    between atoms: C_7  and  C_9
REMARK    9  A    between atoms: C_16  and  C_17
REMARK   10  A    between atoms: C_17  and  C_18
REMARK                            x       y       z     vdW  Elec       q    Type
REMARK                         _______ _______ _______ _____ _____    ______ ____
ROOT
ATOM      1  C   UNL     1       6.404   4.594  16.888  0.00  0.00    +0.000 C 
ENDROOT
BRANCH   1   2
ATOM      2  N   UNL     1       6.164   6.042  17.098  0.00  0.00    +0.000 NA
BRANCH   2   4
ATOM      3  C   UNL     1       7.897   6.047  18.975  0.00  0.00    +0.000 C 
ATOM      4  C   UNL     1       7.313   6.718  17.737  0.00  0.00    +0.000 C 
ENDBRANCH   2   4
BRANCH   2   5
ATOM      5  C   UNL     1       4.939   6.259  17.915  0.00  0.00    +0.000 C 
BRANCH   5   6
ATOM      6  C   UNL     1       3.785   6.979  17.195  0.00  0.00    +0.000 C 
BRANCH   6   7
ATOM      7  C   UNL     1       2.845   7.632  18.181  0.00  0.00    +0.000 A 
ATOM      8  C   UNL     1       2.589   7.014  19.413  0.00  0.00    +0.000 A 
ATOM      9  C   UNL     1       1.728   7.607  20.337  0.00  0.00    +0.000 A 
ATOM     10  C   UNL     1       1.109   8.817  20.032  0.00  0.00    +0.000 A 
ATOM     11  C   UNL     1       1.346   9.432  18.802  0.00  0.00    +0.000 A 
ATOM     12  C   UNL     1       2.208   8.840  17.877  0.00  0.00    +0.000 A 
ENDBRANCH   6   7
ENDBRANCH   5   6
ENDBRANCH   2   5
ENDBRANCH   1   2
BRANCH   1  13
ATOM     13  C   UNL     1       5.196   3.889  16.249  0.00  0.00    +0.000 C 
BRANCH  13  14
ATOM     14  C   UNL     1       4.540   2.841  17.148  0.00  0.00    +0.000 C 
BRANCH  14  15
ATOM     15  C   UNL     1       3.091   3.226  17.424  0.00  0.00    +0.000 C 
ATOM     16  O   UNL     1       2.343   3.655  16.548  0.00  0.00    +0.000 OA
BRANCH  15  17
ATOM     17  C   UNL     1       2.556   3.086  18.808  0.00  0.00    +0.000 A 
ATOM     18  C   UNL     1       3.381   2.783  19.895  0.00  0.00    +0.000 A 
ATOM     19  C   UNL     1       2.825   2.646  21.175  0.00  0.00    +0.000 A 
ATOM     20  C   UNL     1       1.457   2.816  21.358  0.00  0.00    +0.000 A 
ATOM     21  F   UNL     1       0.935   2.682  22.581  0.00  0.00    +0.000 F 
ATOM     22  C   UNL     1       0.626   3.125  20.286  0.00  0.00    +0.000 A 
ATOM     23  C   UNL     1       1.176   3.260  19.010  0.00  0.00    +0.000 A 
ENDBRANCH  15  17
ENDBRANCH  14  15
ENDBRANCH  13  14
ENDBRANCH   1  13
TORSDOF 9
ENDMDL
MODEL 6
REMARK VINA RESULT:      -6.8      1.458      2.229
REMARK  Name = 
REMARK  10 active torsions:
REMARK  status: ('A' for Active; 'I' for Inactive)
REMARK    1  A    between atoms: C_1  and  C_2
REMARK    2  A    between atoms: C_2  and  N_3
REMARK    3  A    between atoms: N_3  and  C_4
REMARK    4  A    between atoms: N_3  and  C_16
REMARK    5  A    between atoms: C_4  and  C_5
REMARK    6  A    between atoms: C_5  and  C_6
REMARK    7  A    between atoms: C_6  and  C_7
REMARK    8  A    between atoms: C_7  and  C_9
REMARK    9  A    between atoms: C_16  and  C_17
REMARK   10  A    between atoms: C_17  and  C_18
REMARK                            x       y       z     vdW  Elec       q    Type
REMARK                         _______ _______ _______ _____ _____    ______ ____
ROOT
ATOM      1  C   UNL     1       5.578   5.018  17.200  0.00  0.00    +0.000 C 
ENDROOT
BRANCH   1   2
ATOM      2  N   UNL     1       5.936   5.444  18.575  0.00  0.00    +0.000 NA
BRANCH   2   4
ATOM      3  C   UNL     1       7.958   6.990  18.358  0.00  0.00    +0.000 C 
ATOM      4  C   UNL     1       7.392   5.629  18.747  0.00  0.00    +0.000 C 
ENDBRANCH   2   4
BRANCH   2   5
ATOM      5  C   UNL     1       5.434   4.464  19.576  0.00  0.00    +0.000 C 
BRANCH   5   6
ATOM      6  C   UNL     1       4.709   3.238  18.992  0.00  0.00    +0.000 C 
BRANCH   6   7
ATOM      7  C   UNL     1       3.246   3.235  19.369  0.00  0.00    +0.000 A 
ATOM      8  C   UNL     1       2.805   4.008  20.452  0.00  0.00    +0.000 A 
ATOM      9  C   UNL     1       1.456   4.020  20.810  0.00  0.00    +0.000 A 
ATOM     10  C   UNL     1       0.541   3.253  20.094  0.00  0.00    +0.000 A 
ATOM     11  C   UNL     1       0.973   2.468  19.024  0.00  0.00    +0.000 A 
ATOM     12  C   UNL     1       2.322   2.456  18.664  0.00  0.00    +0.000 A 
ENDBRANCH   6   7
ENDBRANCH   5   6
ENDBRANCH   2   5
ENDBRANCH   1   2
BRANCH   1  13
ATOM     13  C   UNL     1       4.655   6.027  16.498  0.00  0.00    +0.000 C 
BRANCH  13  14
ATOM     14  C   UNL     1       4.180   7.166  17.399  0.00  0.00    +0.000 C 
BRANCH  14  15
ATOM     15  C   UNL     1       2.782   6.863  17.926  0.00  0.00    +0.000 C 
ATOM     16  O   UNL     1       2.190   5.818  17.667  0.00  0.00    +0.000 OA
BRANCH  15  17
ATOM     17  C   UNL     1       2.097   7.872  18.784  0.00  0.00    +0.000 A 
ATOM     18  C   UNL     1       1.884   7.664  20.149  0.00  0.00    +0.000 A 
ATOM     19  C   UNL     1       1.221   8.639  20.908  0.00  0.00    +0.000 A 
ATOM     20  C   UNL     1       0.782   9.810  20.300  0.00  0.00    +0.000 A 
ATOM     21  F   UNL     1       0.149  10.733  21.030  0.00  0.00    +0.000 F 
ATOM     22  C   UNL     1       0.994  10.033  18.943  0.00  0.00    +0.000 A 
ATOM     23  C   UNL     1       1.653   9.064  18.184  0.00  0.00    +0.000 A 
ENDBRANCH  15  17
ENDBRANCH  14  15
ENDBRANCH  13  14
ENDBRANCH   1  13
TORSDOF 9
ENDMDL
MODEL 7
REMARK VINA RESULT:      -6.8      3.136      6.582
REMARK  Name = 
REMARK  10 active torsions:
REMARK  status: ('A' for Active; 'I' for Inactive)
REMARK    1  A    between atoms: C_1  and  C_2
REMARK    2  A    between atoms: C_2  and  N_3
REMARK    3  A    between atoms: N_3  and  C_4
REMARK    4  A    between atoms: N_3  and  C_16
REMARK    5  A    between atoms: C_4  and  C_5
REMARK    6  A    between atoms: C_5  and  C_6
REMARK    7  A    between atoms: C_6  and  C_7
REMARK    8  A    between atoms: C_7  and  C_9
REMARK    9  A    between atoms: C_16  and  C_17
REMARK   10  A    between atoms: C_17  and  C_18
REMARK                            x       y       z     vdW  Elec       q    Type
REMARK                         _______ _______ _______ _____ _____    ______ ____
ROOT
ATOM      1  C   UNL     1       4.164   3.255  18.696  0.00  0.00    +0.000 C 
ENDROOT
BRANCH   1   2
ATOM      2  N   UNL     1       3.067   3.513  19.660  0.00  0.00    +0.000 NA
BRANCH   2   4
ATOM      3  C   UNL     1       0.698   2.770  20.262  0.00  0.00    +0.000 C 
ATOM      4  C   UNL     1       2.063   2.429  19.673  0.00  0.00    +0.000 C 
ENDBRANCH   2   4
BRANCH   2   5
ATOM      5  C   UNL     1       2.400   4.809  19.362  0.00  0.00    +0.000 C 
BRANCH   5   6
ATOM      6  C   UNL     1       3.262   6.062  19.597  0.00  0.00    +0.000 C 
BRANCH   6   7
ATOM      7  C   UNL     1       2.486   7.325  19.301  0.00  0.00    +0.000 A 
ATOM      8  C   UNL     1       1.699   7.910  20.303  0.00  0.00    +0.000 A 
ATOM      9  C   UNL     1       0.981   9.078  20.046  0.00  0.00    +0.000 A 
ATOM     10  C   UNL     1       1.036   9.665  18.785  0.00  0.00    +0.000 A 
ATOM     11  C   UNL     1       1.804   9.082  17.777  0.00  0.00    +0.000 A 
ATOM     12  C   UNL     1       2.524   7.913  18.031  0.00  0.00    +0.000 A 
ENDBRANCH   6   7
ENDBRANCH   5   6
ENDBRANCH   2   5
ENDBRANCH   1   2
BRANCH   1  13
ATOM     13  C   UNL     1       3.680   3.288  17.237  0.00  0.00    +0.000 C 
BRANCH  13  14
ATOM     14  C   UNL     1       4.197   4.483  16.437  0.00  0.00    +0.000 C 
BRANCH  14  15
ATOM     15  C   UNL     1       5.717   4.423  16.338  0.00  0.00    +0.000 C 
ATOM     16  O   UNL     1       6.303   3.556  15.694  0.00  0.00    +0.000 OA
BRANCH  15  17
ATOM     17  C   UNL     1       6.530   5.449  17.052  0.00  0.00    +0.000 A 
ATOM     18  C   UNL     1       6.570   6.783  16.640  0.00  0.00    +0.000 A 
ATOM     19  C   UNL     1       7.363   7.705  17.338  0.00  0.00    +0.000 A 
ATOM     20  C   UNL     1       8.103   7.288  18.439  0.00  0.00    +0.000 A 
ATOM     21  F   UNL     1       8.859   8.173  19.097  0.00  0.00    +0.000 F 
ATOM     22  C   UNL     1       8.067   5.963  18.864  0.00  0.00    +0.000 A 
ATOM     23  C   UNL     1       7.280   5.043  18.170  0.00  0.00    +0.000 A 
ENDBRANCH  15  17
ENDBRANCH  14  15
ENDBRANCH  13  14
ENDBRANCH   1  13
TORSDOF 9
ENDMDL
MODEL 8
REMARK VINA RESULT:      -6.7      1.017      1.334
REMARK  Name = 
REMARK  10 active torsions:
REMARK  status: ('A' for Active; 'I' for Inactive)
REMARK    1  A    between atoms: C_1  and  C_2
REMARK    2  A    between atoms: C_2  and  N_3
REMARK    3  A    between atoms: N_3  and  C_4
REMARK    4  A    between atoms: N_3  and  C_16
REMARK    5  A    between atoms: C_4  and  C_5
REMARK    6  A    between atoms: C_5  and  C_6
REMARK    7  A    between atoms: C_6  and  C_7
REMARK    8  A    between atoms: C_7  and  C_9
REMARK    9  A    between atoms: C_16  and  C_17
REMARK   10  A    between atoms: C_17  and  C_18
REMARK                            x       y       z     vdW  Elec       q    Type
REMARK                         _______ _______ _______ _____ _____    ______ ____
ROOT
ATOM      1  C   UNL     1       5.068   5.878  16.616  0.00  0.00    +0.000 C 
ENDROOT
BRANCH   1   2
ATOM      2  N   UNL     1       5.785   5.653  17.895  0.00  0.00    +0.000 NA
BRANCH   2   4
ATOM      3  C   UNL     1       7.986   6.132  19.099  0.00  0.00    +0.000 C 
ATOM      4  C   UNL     1       7.231   5.937  17.789  0.00  0.00    +0.000 C 
ENDBRANCH   2   4
BRANCH   2   5
ATOM      5  C   UNL     1       5.583   4.257  18.371  0.00  0.00    +0.000 C 
BRANCH   5   6
ATOM      6  C   UNL     1       4.366   3.527  17.775  0.00  0.00    +0.000 C 
BRANCH   6   7
ATOM      7  C   UNL     1       3.197   3.538  18.732  0.00  0.00    +0.000 A 
ATOM      8  C   UNL     1       3.310   4.202  19.962  0.00  0.00    +0.000 A 
ATOM      9  C   UNL     1       2.238   4.225  20.854  0.00  0.00    +0.000 A 
ATOM     10  C   UNL     1       1.049   3.578  20.528  0.00  0.00    +0.000 A 
ATOM     11  C   UNL     1       0.932   2.902  19.314  0.00  0.00    +0.000 A 
ATOM     12  C   UNL     1       2.004   2.878  18.419  0.00  0.00    +0.000 A 
ENDBRANCH   6   7
ENDBRANCH   5   6
ENDBRANCH   2   5
ENDBRANCH   1   2
BRANCH   1  13
ATOM     13  C   UNL     1       4.100   7.071  16.692  0.00  0.00    +0.000 C 
BRANCH  13  14
ATOM     14  C   UNL     1       3.582   7.362  18.101  0.00  0.00    +0.000 C 
BRANCH  14  15
ATOM     15  C   UNL     1       2.515   8.449  18.048  0.00  0.00    +0.000 C 
ATOM     16  O   UNL     1       2.366   9.182  17.072  0.00  0.00    +0.000 OA
BRANCH  15  17
ATOM     17  C   UNL     1       1.619   8.642  19.224  0.00  0.00    +0.000 A 
ATOM     18  C   UNL     1       0.689   9.683  19.286  0.00  0.00    +0.000 A 
ATOM     19  C   UNL     1      -0.118   9.829  20.422  0.00  0.00    +0.000 A 
ATOM     20  C   UNL     1       0.006   8.935  21.480  0.00  0.00    +0.000 A 
ATOM     21  F   UNL     1      -0.767   9.083  22.561  0.00  0.00    +0.000 F 
ATOM     22  C   UNL     1       0.922   7.890  21.428  0.00  0.00    +0.000 A 
ATOM     23  C   UNL     1       1.729   7.743  20.299  0.00  0.00    +0.000 A 
ENDBRANCH  15  17
ENDBRANCH  14  15
ENDBRANCH  13  14
ENDBRANCH   1  13
TORSDOF 9
ENDMDL
MODEL 9
REMARK VINA RESULT:      -6.7      0.999      1.147
REMARK  Name = 
REMARK  10 active torsions:
REMARK  status: ('A' for Active; 'I' for Inactive)
REMARK    1  A    between atoms: C_1  and  C_2
REMARK    2  A    between atoms: C_2  and  N_3
REMARK    3  A    between atoms: N_3  and  C_4
REMARK    4  A    between atoms: N_3  and  C_16
REMARK    5  A    between atoms: C_4  and  C_5
REMARK    6  A    between atoms: C_5  and  C_6
REMARK    7  A    between atoms: C_6  and  C_7
REMARK    8  A    between atoms: C_7  and  C_9
REMARK    9  A    between atoms: C_16  and  C_17
REMARK   10  A    between atoms: C_17  and  C_18
REMARK                            x       y       z     vdW  Elec       q    Type
REMARK                         _______ _______ _______ _____ _____    ______ ____
ROOT
ATOM      1  C   UNL     1       4.334   6.453  17.770  0.00  0.00    +0.000 C 
ENDROOT
BRANCH   1   2
ATOM      2  N   UNL     1       4.877   5.075  17.691  0.00  0.00    +0.000 NA
BRANCH   2   4
ATOM      3  C   UNL     1       7.397   4.670  17.808  0.00  0.00    +0.000 C 
ATOM      4  C   UNL     1       6.169   5.018  16.975  0.00  0.00    +0.000 C 
ENDBRANCH   2   4
BRANCH   2   5
ATOM      5  C   UNL     1       3.901   4.162  17.037  0.00  0.00    +0.000 C 
BRANCH   5   6
ATOM      6  C   UNL     1       3.755   2.776  17.690  0.00  0.00    +0.000 C 
BRANCH   6   7
ATOM      7  C   UNL     1       2.912   2.847  18.942  0.00  0.00    +0.000 A 
ATOM      8  C   UNL     1       1.535   3.090  18.842  0.00  0.00    +0.000 A 
ATOM      9  C   UNL     1       0.743   3.152  19.988  0.00  0.00    +0.000 A 
ATOM     10  C   UNL     1       1.322   2.982  21.243  0.00  0.00    +0.000 A 
ATOM     11  C   UNL     1       2.694   2.755  21.354  0.00  0.00    +0.000 A 
ATOM     12  C   UNL     1       3.488   2.691  20.208  0.00  0.00    +0.000 A 
ENDBRANCH   6   7
ENDBRANCH   5   6
ENDBRANCH   2   5
ENDBRANCH   1   2
BRANCH   1  13
ATOM     13  C   UNL     1       2.822   6.469  18.049  0.00  0.00    +0.000 C 
BRANCH  13  14
ATOM     14  C   UNL     1       2.393   7.502  19.090  0.00  0.00    +0.000 C 
BRANCH  14  15
ATOM     15  C   UNL     1       1.851   8.747  18.395  0.00  0.00    +0.000 C 
ATOM     16  O   UNL     1       2.229   9.098  17.280  0.00  0.00    +0.000 OA
BRANCH  15  17
ATOM     17  C   UNL     1       0.828   9.577  19.092  0.00  0.00    +0.000 A 
ATOM     18  C   UNL     1      -0.191  10.236  18.400  0.00  0.00    +0.000 A 
ATOM     19  C   UNL     1      -1.118  11.018  19.102  0.00  0.00    +0.000 A 
ATOM     20  C   UNL     1      -1.023  11.131  20.485  0.00  0.00    +0.000 A 
ATOM     21  F   UNL     1      -1.910  11.880  21.147  0.00  0.00    +0.000 F 
ATOM     22  C   UNL     1      -0.018  10.474  21.187  0.00  0.00    +0.000 A 
ATOM     23  C   UNL     1       0.908   9.696  20.491  0.00  0.00    +0.000 A 
ENDBRANCH  15  17
ENDBRANCH  14  15
ENDBRANCH  13  14
ENDBRANCH   1  13
TORSDOF 9
ENDMDL
