MODEL 1
REMARK VINA RESULT:      -7.2      0.000      0.000
REMARK  Name = 
REMARK  1 active torsions:
REMARK  status: ('A' for Active; 'I' for Inactive)
REMARK    1  A    between atoms: C_5  and  C_6
REMARK                            x       y       z     vdW  Elec       q    Type
REMARK                         _______ _______ _______ _____ _____    ______ ____
ROOT
ATOM      1  C   UNL     1      -3.383  11.864  19.156  0.00  0.00    +0.000 A 
ATOM      2  N   UNL     1      -2.196  12.163  19.744  0.00  0.00    +0.000 NA
ATOM      3  C   UNL     1      -2.187  12.628  21.003  0.00  0.00    +0.000 A 
ATOM      4  N   UNL     1      -0.969  12.827  21.624  0.00  0.00    +0.000 N 
ATOM      5  C   UNL     1       0.255  12.048  21.088  0.00  0.00    +0.000 C 
ATOM      6  C   UNL     1       1.369  13.014  20.633  0.00  0.00    +0.000 C 
ATOM      7  C   UNL     1       2.628  13.860  20.826  0.00  0.00    +0.000 C 
ATOM      8  C   UNL     1       2.075  15.156  21.603  0.00  0.00    +0.000 C 
ATOM      9  C   UNL     1       0.575  14.874  21.743  0.00  0.00    +0.000 C 
ATOM     10  C   UNL     1      -0.682  14.168  22.324  0.00  0.00    +0.000 C 
ATOM     11  O   UNL     1       1.191  13.575  21.971  0.00  0.00    +0.000 OA
ATOM     12  C   UNL     1      -3.381  12.813  21.646  0.00  0.00    +0.000 A 
ATOM     13  C   UNL     1      -4.545  12.448  20.983  0.00  0.00    +0.000 A 
ATOM     14  N   UNL     1      -4.585  11.995  19.736  0.00  0.00    +0.000 NA
ATOM     15  N   UNL     1      -5.643  12.544  21.824  0.00  0.00    +0.000 N 
ATOM     16  C   UNL     1      -7.024  12.555  21.414  0.00  0.00    +0.000 C 
ATOM     17  C   UNL     1      -7.917  12.897  22.633  0.00  0.00    +0.000 C 
ATOM     18  O   UNL     1      -7.376  12.486  23.901  0.00  0.00    +0.000 OA
ATOM     19  C   UNL     1      -6.053  12.990  24.182  0.00  0.00    +0.000 C 
ATOM     20  C   UNL     1      -5.239  13.381  22.941  0.00  0.00    +0.000 C 
ATOM     21  C   UNL     1      -3.711  13.206  23.055  0.00  0.00    +0.000 C 
ENDROOT
BRANCH   1  26
ATOM     22  N   UNL     1      -3.272   9.996  13.834  0.00  0.00    +0.000 N 
ATOM     23  C   UNL     1      -3.285  10.407  15.164  0.00  0.00    +0.000 A 
ATOM     24  C   UNL     1      -2.268  10.031  16.026  0.00  0.00    +0.000 A 
ATOM     25  C   UNL     1      -2.295  10.496  17.341  0.00  0.00    +0.000 A 
ATOM     26  C   UNL     1      -3.326  11.339  17.784  0.00  0.00    +0.000 A 
ATOM     27  C   UNL     1      -4.292  11.647  16.828  0.00  0.00    +0.000 A 
ATOM     28  N   UNL     1      -4.293  11.206  15.539  0.00  0.00    +0.000 NA
ATOM     29  H   UNL     1      -3.187   8.991  13.753  0.00  0.00    +0.000 HD
ATOM     30  H   UNL     1      -4.130  10.342  13.412  0.00  0.00    +0.000 HD
ENDBRANCH   1  26
TORSDOF 1
ENDMDL
MODEL 2
REMARK VINA RESULT:      -6.9      3.366      7.059
REMARK  Name = 
REMARK  1 active torsions:
REMARK  status: ('A' for Active; 'I' for Inactive)
REMARK    1  A    between atoms: C_5  and  C_6
REMARK                            x       y       z     vdW  Elec       q    Type
REMARK                         _______ _______ _______ _____ _____    ______ ____
ROOT
ATOM      1  C   UNL     1       0.394  12.157  20.128  0.00  0.00    +0.000 A 
ATOM      2  N   UNL     1      -0.865  12.507  20.497  0.00  0.00    +0.000 NA
ATOM      3  C   UNL     1      -1.268  13.776  20.331  0.00  0.00    +0.000 A 
ATOM      4  N   UNL     1      -2.583  14.094  20.612  0.00  0.00    +0.000 N 
ATOM      5  C   UNL     1      -3.626  12.952  20.590  0.00  0.00    +0.000 C 
ATOM      6  C   UNL     1      -4.329  12.818  21.957  0.00  0.00    +0.000 C 
ATOM      7  C   UNL     1      -5.423  13.115  22.983  0.00  0.00    +0.000 C 
ATOM      8  C   UNL     1      -5.005  14.563  23.546  0.00  0.00    +0.000 C 
ATOM      9  C   UNL     1      -3.726  14.892  22.768  0.00  0.00    +0.000 C 
ATOM     10  C   UNL     1      -2.898  15.299  21.517  0.00  0.00    +0.000 C 
ATOM     11  O   UNL     1      -4.575  14.248  21.777  0.00  0.00    +0.000 OA
ATOM     12  C   UNL     1      -0.384  14.687  19.820  0.00  0.00    +0.000 A 
ATOM     13  C   UNL     1       0.872  14.235  19.435  0.00  0.00    +0.000 A 
ATOM     14  N   UNL     1       1.300  12.989  19.595  0.00  0.00    +0.000 NA
ATOM     15  N   UNL     1       1.581  15.238  18.791  0.00  0.00    +0.000 N 
ATOM     16  C   UNL     1       2.999  15.242  18.540  0.00  0.00    +0.000 C 
ATOM     17  C   UNL     1       3.419  16.632  18.000  0.00  0.00    +0.000 C 
ATOM     18  O   UNL     1       2.391  17.321  17.267  0.00  0.00    +0.000 OA
ATOM     19  C   UNL     1       1.152  17.496  17.988  0.00  0.00    +0.000 C 
ATOM     20  C   UNL     1       0.927  16.491  19.126  0.00  0.00    +0.000 C 
ATOM     21  C   UNL     1      -0.542  16.124  19.418  0.00  0.00    +0.000 C 
ENDROOT
BRANCH   1  26
ATOM     22  N   UNL     1       1.936   6.759  20.682  0.00  0.00    +0.000 N 
ATOM     23  C   UNL     1       1.513   8.081  20.579  0.00  0.00    +0.000 A 
ATOM     24  C   UNL     1       1.097   8.776  21.702  0.00  0.00    +0.000 A 
ATOM     25  C   UNL     1       0.719  10.112  21.564  0.00  0.00    +0.000 A 
ATOM     26  C   UNL     1       0.767  10.747  20.314  0.00  0.00    +0.000 A 
ATOM     27  C   UNL     1       1.201   9.947  19.259  0.00  0.00    +0.000 A 
ATOM     28  N   UNL     1       1.574   8.641  19.363  0.00  0.00    +0.000 NA
ATOM     29  H   UNL     1       1.243   6.178  21.136  0.00  0.00    +0.000 HD
ATOM     30  H   UNL     1       2.141   6.442  19.738  0.00  0.00    +0.000 HD
ENDBRANCH   1  26
TORSDOF 1
ENDMDL
MODEL 3
REMARK VINA RESULT:      -6.9      1.259      1.563
REMARK  Name = 
REMARK  1 active torsions:
REMARK  status: ('A' for Active; 'I' for Inactive)
REMARK    1  A    between atoms: C_5  and  C_6
REMARK                            x       y       z     vdW  Elec       q    Type
REMARK                         _______ _______ _______ _____ _____    ______ ____
ROOT
ATOM      1  C   UNL     1      -2.652  11.940  19.010  0.00  0.00    +0.000 A 
ATOM      2  N   UNL     1      -1.356  12.287  19.220  0.00  0.00    +0.000 NA
ATOM      3  C   UNL     1      -0.999  12.800  20.408  0.00  0.00    +0.000 A 
ATOM      4  N   UNL     1       0.340  13.050  20.643  0.00  0.00    +0.000 N 
ATOM      5  C   UNL     1       1.382  12.278  19.799  0.00  0.00    +0.000 C 
ATOM      6  C   UNL     1       2.285  13.251  19.013  0.00  0.00    +0.000 C 
ATOM      7  C   UNL     1       3.518  14.131  18.807  0.00  0.00    +0.000 C 
ATOM      8  C   UNL     1       3.171  15.442  19.671  0.00  0.00    +0.000 C 
ATOM      9  C   UNL     1       1.785  15.133  20.248  0.00  0.00    +0.000 C 
ATOM     10  C   UNL     1       0.773  14.423  21.189  0.00  0.00    +0.000 C 
ATOM     11  O   UNL     1       2.483  13.858  20.327  0.00  0.00    +0.000 OA
ATOM     12  C   UNL     1      -1.961  12.984  21.363  0.00  0.00    +0.000 A 
ATOM     13  C   UNL     1      -3.256  12.568  21.077  0.00  0.00    +0.000 A 
ATOM     14  N   UNL     1      -3.639  12.066  19.910  0.00  0.00    +0.000 NA
ATOM     15  N   UNL     1      -4.066  12.672  22.197  0.00  0.00    +0.000 N 
ATOM     16  C   UNL     1      -5.506  12.636  22.204  0.00  0.00    +0.000 C 
ATOM     17  C   UNL     1      -6.020  13.005  23.618  0.00  0.00    +0.000 C 
ATOM     18  O   UNL     1      -5.123  12.655  24.687  0.00  0.00    +0.000 OA
ATOM     19  C   UNL     1      -3.792  13.199  24.558  0.00  0.00    +0.000 C 
ATOM     20  C   UNL     1      -3.384  13.559  23.123  0.00  0.00    +0.000 C 
ATOM     21  C   UNL     1      -1.883  13.423  22.795  0.00  0.00    +0.000 C 
ENDROOT
BRANCH   1  26
ATOM     22  N   UNL     1      -4.020   9.874  13.943  0.00  0.00    +0.000 N 
ATOM     23  C   UNL     1      -3.663  10.334  15.206  0.00  0.00    +0.000 A 
ATOM     24  C   UNL     1      -2.432  10.008  15.752  0.00  0.00    +0.000 A 
ATOM     25  C   UNL     1      -2.093  10.522  17.004  0.00  0.00    +0.000 A 
ATOM     26  C   UNL     1      -2.976  11.364  17.697  0.00  0.00    +0.000 A 
ATOM     27  C   UNL     1      -4.183  11.620  17.050  0.00  0.00    +0.000 A 
ATOM     28  N   UNL     1      -4.542  11.131  15.830  0.00  0.00    +0.000 NA
ATOM     29  H   UNL     1      -3.937   8.867  13.873  0.00  0.00    +0.000 HD
ATOM     30  H   UNL     1      -4.972  10.190  13.774  0.00  0.00    +0.000 HD
ENDBRANCH   1  26
TORSDOF 1
ENDMDL
MODEL 4
REMARK VINA RESULT:      -6.8      8.076     11.381
REMARK  Name = 
REMARK  1 active torsions:
REMARK  status: ('A' for Active; 'I' for Inactive)
REMARK    1  A    between atoms: C_5  and  C_6
REMARK                            x       y       z     vdW  Elec       q    Type
REMARK                         _______ _______ _______ _____ _____    ______ ____
ROOT
ATOM      1  C   UNL     1       8.153  13.965  20.132  0.00  0.00    +0.000 A 
ATOM      2  N   UNL     1       7.073  14.717  19.795  0.00  0.00    +0.000 NA
ATOM      3  C   UNL     1       6.151  14.996  20.729  0.00  0.00    +0.000 A 
ATOM      4  N   UNL     1       5.114  15.848  20.399  0.00  0.00    +0.000 N 
ATOM      5  C   UNL     1       5.324  16.823  19.217  0.00  0.00    +0.000 C 
ATOM      6  C   UNL     1       4.265  16.596  18.118  0.00  0.00    +0.000 C 
ATOM      7  C   UNL     1       2.927  16.835  17.419  0.00  0.00    +0.000 C 
ATOM      8  C   UNL     1       1.892  16.007  18.330  0.00  0.00    +0.000 C 
ATOM      9  C   UNL     1       2.782  15.405  19.423  0.00  0.00    +0.000 C 
ATOM     10  C   UNL     1       3.663  15.433  20.703  0.00  0.00    +0.000 C 
ATOM     11  O   UNL     1       3.329  16.740  19.231  0.00  0.00    +0.000 OA
ATOM     12  C   UNL     1       6.314  14.488  21.989  0.00  0.00    +0.000 A 
ATOM     13  C   UNL     1       7.466  13.759  22.257  0.00  0.00    +0.000 A 
ATOM     14  N   UNL     1       8.390  13.461  21.352  0.00  0.00    +0.000 NA
ATOM     15  N   UNL     1       7.557  13.459  23.608  0.00  0.00    +0.000 N 
ATOM     16  C   UNL     1       8.423  12.471  24.197  0.00  0.00    +0.000 C 
ATOM     17  C   UNL     1       8.059  12.298  25.693  0.00  0.00    +0.000 C 
ATOM     18  O   UNL     1       7.514  13.476  26.312  0.00  0.00    +0.000 OA
ATOM     19  C   UNL     1       6.355  14.024  25.648  0.00  0.00    +0.000 C 
ATOM     20  C   UNL     1       6.229  13.646  24.165  0.00  0.00    +0.000 C 
ATOM     21  C   UNL     1       5.545  14.691  23.261  0.00  0.00    +0.000 C 
ENDROOT
BRANCH   1  26
ATOM     22  N   UNL     1      12.006  13.176  16.088  0.00  0.00    +0.000 N 
ATOM     23  C   UNL     1      11.026  13.329  17.064  0.00  0.00    +0.000 A 
ATOM     24  C   UNL     1      10.483  12.223  17.696  0.00  0.00    +0.000 A 
ATOM     25  C   UNL     1       9.532  12.419  18.699  0.00  0.00    +0.000 A 
ATOM     26  C   UNL     1       9.138  13.713  19.071  0.00  0.00    +0.000 A 
ATOM     27  C   UNL     1       9.751  14.746  18.364  0.00  0.00    +0.000 A 
ATOM     28  N   UNL     1      10.680  14.585  17.381  0.00  0.00    +0.000 NA
ATOM     29  H   UNL     1      11.707  12.547  15.353  0.00  0.00    +0.000 HD
ATOM     30  H   UNL     1      12.213  14.106  15.733  0.00  0.00    +0.000 HD
ENDBRANCH   1  26
TORSDOF 1
ENDMDL
MODEL 5
REMARK VINA RESULT:      -6.7      3.788      6.925
REMARK  Name = 
REMARK  1 active torsions:
REMARK  status: ('A' for Active; 'I' for Inactive)
REMARK    1  A    between atoms: C_5  and  C_6
REMARK                            x       y       z     vdW  Elec       q    Type
REMARK                         _______ _______ _______ _____ _____    ______ ____
ROOT
ATOM      1  C   UNL     1       0.363  13.793  19.683  0.00  0.00    +0.000 A 
ATOM      2  N   UNL     1      -0.342  13.840  20.842  0.00  0.00    +0.000 NA
ATOM      3  C   UNL     1      -0.559  12.704  21.524  0.00  0.00    +0.000 A 
ATOM      4  N   UNL     1      -1.185  12.781  22.753  0.00  0.00    +0.000 N 
ATOM      5  C   UNL     1      -1.135  14.129  23.511  0.00  0.00    +0.000 C 
ATOM      6  C   UNL     1      -2.556  14.663  23.783  0.00  0.00    +0.000 C 
ATOM      7  C   UNL     1      -3.837  14.829  24.602  0.00  0.00    +0.000 C 
ATOM      8  C   UNL     1      -4.606  13.439  24.352  0.00  0.00    +0.000 C 
ATOM      9  C   UNL     1      -3.661  12.672  23.420  0.00  0.00    +0.000 C 
ATOM     10  C   UNL     1      -2.385  11.864  23.055  0.00  0.00    +0.000 C 
ATOM     11  O   UNL     1      -2.762  13.334  24.353  0.00  0.00    +0.000 OA
ATOM     12  C   UNL     1      -0.085  11.527  21.011  0.00  0.00    +0.000 A 
ATOM     13  C   UNL     1       0.657  11.576  19.838  0.00  0.00    +0.000 A 
ATOM     14  N   UNL     1       0.879  12.682  19.139  0.00  0.00    +0.000 NA
ATOM     15  N   UNL     1       1.197  10.333  19.545  0.00  0.00    +0.000 N 
ATOM     16  C   UNL     1       1.745   9.929  18.275  0.00  0.00    +0.000 C 
ATOM     17  C   UNL     1       2.036   8.407  18.305  0.00  0.00    +0.000 C 
ATOM     18  O   UNL     1       2.352   7.887  19.608  0.00  0.00    +0.000 OA
ATOM     19  C   UNL     1       1.356   8.155  20.620  0.00  0.00    +0.000 C 
ATOM     20  C   UNL     1       0.453   9.361  20.326  0.00  0.00    +0.000 C 
ATOM     21  C   UNL     1      -0.063  10.131  21.559  0.00  0.00    +0.000 C 
ENDROOT
BRANCH   1  26
ATOM     22  N   UNL     1       1.377  18.630  16.963  0.00  0.00    +0.000 N 
ATOM     23  C   UNL     1       1.095  17.464  17.668  0.00  0.00    +0.000 A 
ATOM     24  C   UNL     1      -0.202  17.179  18.064  0.00  0.00    +0.000 A 
ATOM     25  C   UNL     1      -0.452  15.981  18.734  0.00  0.00    +0.000 A 
ATOM     26  C   UNL     1       0.585  15.073  18.995  0.00  0.00    +0.000 A 
ATOM     27  C   UNL     1       1.846  15.470  18.551  0.00  0.00    +0.000 A 
ATOM     28  N   UNL     1       2.120  16.633  17.897  0.00  0.00    +0.000 NA
ATOM     29  H   UNL     1       1.040  19.453  17.447  0.00  0.00    +0.000 HD
ATOM     30  H   UNL     1       2.385  18.653  16.828  0.00  0.00    +0.000 HD
ENDBRANCH   1  26
TORSDOF 1
ENDMDL
MODEL 6
REMARK VINA RESULT:      -6.7      3.903      4.845
REMARK  Name = 
REMARK  1 active torsions:
REMARK  status: ('A' for Active; 'I' for Inactive)
REMARK    1  A    between atoms: C_5  and  C_6
REMARK                            x       y       z     vdW  Elec       q    Type
REMARK                         _______ _______ _______ _____ _____    ______ ____
ROOT
ATOM      1  C   UNL     1       0.571  11.244  21.037  0.00  0.00    +0.000 A 
ATOM      2  N   UNL     1       1.322  12.293  20.615  0.00  0.00    +0.000 NA
ATOM      3  C   UNL     1       0.974  13.537  20.980  0.00  0.00    +0.000 A 
ATOM      4  N   UNL     1       1.806  14.584  20.632  0.00  0.00    +0.000 N 
ATOM      5  C   UNL     1       3.288  14.264  20.326  0.00  0.00    +0.000 C 
ATOM      6  C   UNL     1       3.663  14.699  18.894  0.00  0.00    +0.000 C 
ATOM      7  C   UNL     1       4.182  15.674  17.838  0.00  0.00    +0.000 C 
ATOM      8  C   UNL     1       2.929  16.658  17.611  0.00  0.00    +0.000 C 
ATOM      9  C   UNL     1       1.865  16.105  18.565  0.00  0.00    +0.000 C 
ATOM     10  C   UNL     1       1.214  15.831  19.949  0.00  0.00    +0.000 C 
ATOM     11  O   UNL     1       3.103  15.979  19.320  0.00  0.00    +0.000 OA
ATOM     12  C   UNL     1      -0.146  13.710  21.746  0.00  0.00    +0.000 A 
ATOM     13  C   UNL     1      -0.835  12.579  22.164  0.00  0.00    +0.000 A 
ATOM     14  N   UNL     1      -0.520  11.339  21.811  0.00  0.00    +0.000 NA
ATOM     15  N   UNL     1      -1.840  12.915  23.059  0.00  0.00    +0.000 N 
ATOM     16  C   UNL     1      -2.939  12.071  23.450  0.00  0.00    +0.000 C 
ATOM     17  C   UNL     1      -3.945  12.898  24.289  0.00  0.00    +0.000 C 
ATOM     18  O   UNL     1      -3.355  13.979  25.031  0.00  0.00    +0.000 OA
ATOM     19  C   UNL     1      -2.591  14.910  24.234  0.00  0.00    +0.000 C 
ATOM     20  C   UNL     1      -2.073  14.340  22.906  0.00  0.00    +0.000 C 
ATOM     21  C   UNL     1      -0.738  14.924  22.399  0.00  0.00    +0.000 C 
ENDROOT
BRANCH   1  26
ATOM     22  N   UNL     1       2.377   6.191  19.297  0.00  0.00    +0.000 N 
ATOM     23  C   UNL     1       1.891   7.412  19.754  0.00  0.00    +0.000 A 
ATOM     24  C   UNL     1       1.511   7.567  21.076  0.00  0.00    +0.000 A 
ATOM     25  C   UNL     1       1.067   8.819  21.507  0.00  0.00    +0.000 A 
ATOM     26  C   UNL     1       1.016   9.906  20.621  0.00  0.00    +0.000 A 
ATOM     27  C   UNL     1       1.422   9.629  19.317  0.00  0.00    +0.000 A 
ATOM     28  N   UNL     1       1.857   8.418  18.869  0.00  0.00    +0.000 NA
ATOM     29  H   UNL     1       1.737   5.433  19.499  0.00  0.00    +0.000 HD
ATOM     30  H   UNL     1       2.540   6.296  18.298  0.00  0.00    +0.000 HD
ENDBRANCH   1  26
TORSDOF 1
ENDMDL
MODEL 7
REMARK VINA RESULT:      -6.6      3.861      6.720
REMARK  Name = 
REMARK  1 active torsions:
REMARK  status: ('A' for Active; 'I' for Inactive)
REMARK    1  A    between atoms: C_5  and  C_6
REMARK                            x       y       z     vdW  Elec       q    Type
REMARK                         _______ _______ _______ _____ _____    ______ ____
ROOT
ATOM      1  C   UNL     1       1.918  13.601  20.379  0.00  0.00    +0.000 A 
ATOM      2  N   UNL     1       1.847  12.353  19.850  0.00  0.00    +0.000 NA
ATOM      3  C   UNL     1       0.891  11.513  20.279  0.00  0.00    +0.000 A 
ATOM      4  N   UNL     1       0.764  10.286  19.658  0.00  0.00    +0.000 N 
ATOM      5  C   UNL     1       1.326  10.135  18.225  0.00  0.00    +0.000 C 
ATOM      6  C   UNL     1       2.395   9.024  18.163  0.00  0.00    +0.000 C 
ATOM      7  C   UNL     1       2.887   7.590  17.964  0.00  0.00    +0.000 C 
ATOM      8  C   UNL     1       2.488   6.877  19.348  0.00  0.00    +0.000 C 
ATOM      9  C   UNL     1       1.826   8.002  20.152  0.00  0.00    +0.000 C 
ATOM     10  C   UNL     1       0.695   9.005  20.510  0.00  0.00    +0.000 C 
ATOM     11  O   UNL     1       1.349   8.221  18.794  0.00  0.00    +0.000 OA
ATOM     12  C   UNL     1       0.036  11.934  21.260  0.00  0.00    +0.000 A 
ATOM     13  C   UNL     1       0.157  13.240  21.719  0.00  0.00    +0.000 A 
ATOM     14  N   UNL     1       1.096  14.088  21.320  0.00  0.00    +0.000 NA
ATOM     15  N   UNL     1      -0.879  13.557  22.584  0.00  0.00    +0.000 N 
ATOM     16  C   UNL     1      -0.913  14.681  23.485  0.00  0.00    +0.000 C 
ATOM     17  C   UNL     1      -2.139  14.547  24.422  0.00  0.00    +0.000 C 
ATOM     18  O   UNL     1      -3.253  13.842  23.848  0.00  0.00    +0.000 OA
ATOM     19  C   UNL     1      -2.941  12.520  23.358  0.00  0.00    +0.000 C 
ATOM     20  C   UNL     1      -1.461  12.298  23.015  0.00  0.00    +0.000 C 
ATOM     21  C   UNL     1      -1.178  11.301  21.874  0.00  0.00    +0.000 C 
ENDROOT
BRANCH   1  26
ATOM     22  N   UNL     1       6.021  17.009  18.538  0.00  0.00    +0.000 N 
ATOM     23  C   UNL     1       4.983  16.175  18.944  0.00  0.00    +0.000 A 
ATOM     24  C   UNL     1       4.473  15.217  18.084  0.00  0.00    +0.000 A 
ATOM     25  C   UNL     1       3.460  14.373  18.541  0.00  0.00    +0.000 A 
ATOM     26  C   UNL     1       2.972  14.481  19.852  0.00  0.00    +0.000 A 
ATOM     27  C   UNL     1       3.561  15.481  20.623  0.00  0.00    +0.000 A 
ATOM     28  N   UNL     1       4.548  16.321  20.203  0.00  0.00    +0.000 NA
ATOM     29  H   UNL     1       5.799  17.491  17.676  0.00  0.00    +0.000 HD
ATOM     30  H   UNL     1       6.192  17.656  19.304  0.00  0.00    +0.000 HD
ENDBRANCH   1  26
TORSDOF 1
ENDMDL
MODEL 8
REMARK VINA RESULT:      -6.6      3.578      6.951
REMARK  Name = 
REMARK  1 active torsions:
REMARK  status: ('A' for Active; 'I' for Inactive)
REMARK    1  A    between atoms: C_5  and  C_6
REMARK                            x       y       z     vdW  Elec       q    Type
REMARK                         _______ _______ _______ _____ _____    ______ ____
ROOT
ATOM      1  C   UNL     1       0.961  11.957  19.532  0.00  0.00    +0.000 A 
ATOM      2  N   UNL     1      -0.151  12.253  20.252  0.00  0.00    +0.000 NA
ATOM      3  C   UNL     1      -0.529  13.535  20.377  0.00  0.00    +0.000 A 
ATOM      4  N   UNL     1      -1.719  13.811  21.023  0.00  0.00    +0.000 N 
ATOM      5  C   UNL     1      -2.782  12.690  21.100  0.00  0.00    +0.000 C 
ATOM      6  C   UNL     1      -3.128  12.357  22.566  0.00  0.00    +0.000 C 
ATOM      7  C   UNL     1      -3.919  12.502  23.866  0.00  0.00    +0.000 C 
ATOM      8  C   UNL     1      -3.315  13.848  24.507  0.00  0.00    +0.000 C 
ATOM      9  C   UNL     1      -2.257  14.284  23.487  0.00  0.00    +0.000 C 
ATOM     10  C   UNL     1      -1.750  14.870  22.141  0.00  0.00    +0.000 C 
ATOM     11  O   UNL     1      -3.352  13.798  22.661  0.00  0.00    +0.000 OA
ATOM     12  C   UNL     1       0.237  14.507  19.795  0.00  0.00    +0.000 A 
ATOM     13  C   UNL     1       1.338  14.113  19.046  0.00  0.00    +0.000 A 
ATOM     14  N   UNL     1       1.740  12.856  18.913  0.00  0.00    +0.000 NA
ATOM     15  N   UNL     1       1.905  15.198  18.395  0.00  0.00    +0.000 N 
ATOM     16  C   UNL     1       3.216  15.234  17.798  0.00  0.00    +0.000 C 
ATOM     17  C   UNL     1       3.545  16.687  17.375  0.00  0.00    +0.000 C 
ATOM     18  O   UNL     1       2.397  17.482  17.031  0.00  0.00    +0.000 OA
ATOM     19  C   UNL     1       1.384  17.552  18.058  0.00  0.00    +0.000 C 
ATOM     20  C   UNL     1       1.407  16.389  19.060  0.00  0.00    +0.000 C 
ATOM     21  C   UNL     1       0.043  15.989  19.657  0.00  0.00    +0.000 C 
ENDROOT
BRANCH   1  26
ATOM     22  N   UNL     1       2.180   6.457  19.226  0.00  0.00    +0.000 N 
ATOM     23  C   UNL     1       1.926   7.825  19.274  0.00  0.00    +0.000 A 
ATOM     24  C   UNL     1       2.126   8.617  18.156  0.00  0.00    +0.000 A 
ATOM     25  C   UNL     1       1.821   9.977  18.232  0.00  0.00    +0.000 A 
ATOM     26  C   UNL     1       1.311  10.534  19.414  0.00  0.00    +0.000 A 
ATOM     27  C   UNL     1       1.154   9.639  20.471  0.00  0.00    +0.000 A 
ATOM     28  N   UNL     1       1.445   8.309  20.427  0.00  0.00    +0.000 NA
ATOM     29  H   UNL     1       3.120   6.262  18.903  0.00  0.00    +0.000 HD
ATOM     30  H   UNL     1       2.016   6.096  20.162  0.00  0.00    +0.000 HD
ENDBRANCH   1  26
TORSDOF 1
ENDMDL
MODEL 9
REMARK VINA RESULT:      -6.6      8.059     12.033
REMARK  Name = 
REMARK  1 active torsions:
REMARK  status: ('A' for Active; 'I' for Inactive)
REMARK    1  A    between atoms: C_5  and  C_6
REMARK                            x       y       z     vdW  Elec       q    Type
REMARK                         _______ _______ _______ _____ _____    ______ ____
ROOT
ATOM      1  C   UNL     1       6.510  14.687  20.164  0.00  0.00    +0.000 A 
ATOM      2  N   UNL     1       6.553  14.348  21.478  0.00  0.00    +0.000 NA
ATOM      3  C   UNL     1       7.650  13.745  21.963  0.00  0.00    +0.000 A 
ATOM      4  N   UNL     1       7.723  13.501  23.321  0.00  0.00    +0.000 N 
ATOM      5  C   UNL     1       6.843  14.358  24.261  0.00  0.00    +0.000 C 
ATOM      6  C   UNL     1       5.888  13.470  25.086  0.00  0.00    +0.000 C 
ATOM      7  C   UNL     1       5.482  12.631  26.298  0.00  0.00    +0.000 C 
ATOM      8  C   UNL     1       6.265  11.247  26.056  0.00  0.00    +0.000 C 
ATOM      9  C   UNL     1       7.007  11.483  24.736  0.00  0.00    +0.000 C 
ATOM     10  C   UNL     1       8.104  12.096  23.822  0.00  0.00    +0.000 C 
ATOM     11  O   UNL     1       7.119  12.760  25.427  0.00  0.00    +0.000 OA
ATOM     12  C   UNL     1       8.682  13.467  21.108  0.00  0.00    +0.000 A 
ATOM     13  C   UNL     1       8.568  13.882  19.787  0.00  0.00    +0.000 A 
ATOM     14  N   UNL     1       7.493  14.471  19.279  0.00  0.00    +0.000 NA
ATOM     15  N   UNL     1       9.754  13.671  19.101  0.00  0.00    +0.000 N 
ATOM     16  C   UNL     1       9.913  13.680  17.669  0.00  0.00    +0.000 C 
ATOM     17  C   UNL     1      11.338  13.188  17.311  0.00  0.00    +0.000 C 
ATOM     18  O   UNL     1      12.333  13.465  18.311  0.00  0.00    +0.000 OA
ATOM     19  C   UNL     1      12.021  12.957  19.627  0.00  0.00    +0.000 C 
ATOM     20  C   UNL     1      10.526  12.723  19.884  0.00  0.00    +0.000 C 
ATOM     21  C   UNL     1      10.056  12.912  21.341  0.00  0.00    +0.000 C 
ENDROOT
BRANCH   1  26
ATOM     22  N   UNL     1       1.931  17.356  18.228  0.00  0.00    +0.000 N 
ATOM     23  C   UNL     1       3.037  16.694  18.755  0.00  0.00    +0.000 A 
ATOM     24  C   UNL     1       2.871  15.586  19.570  0.00  0.00    +0.000 A 
ATOM     25  C   UNL     1       4.004  14.925  20.045  0.00  0.00    +0.000 A 
ATOM     26  C   UNL     1       5.290  15.364  19.699  0.00  0.00    +0.000 A 
ATOM     27  C   UNL     1       5.331  16.488  18.876  0.00  0.00    +0.000 A 
ATOM     28  N   UNL     1       4.243  17.155  18.399  0.00  0.00    +0.000 NA
ATOM     29  H   UNL     1       1.279  17.630  18.952  0.00  0.00    +0.000 HD
ATOM     30  H   UNL     1       2.288  18.157  17.713  0.00  0.00    +0.000 HD
ENDBRANCH   1  26
TORSDOF 1
ENDMDL
