MODEL 1
REMARK VINA RESULT:      -8.1      0.000      0.000
REMARK  Name = 
REMARK  5 active torsions:
REMARK  status: ('A' for Active; 'I' for Inactive)
REMARK    1  A    between atoms: C_2  and  C_3
REMARK    2  A    between atoms: C_2  and  C_22
REMARK    3  A    between atoms: C_3  and  S_4
REMARK    4  A    between atoms: S_4  and  C_5
REMARK    5  A    between atoms: N_11  and  C_12
REMARK                            x       y       z     vdW  Elec       q    Type
REMARK                         _______ _______ _______ _____ _____    ______ ____
ROOT
ATOM      1  C   UNL     1       2.338   7.413  19.032  0.00  0.00    +0.000 A 
ATOM      2  N   UNL     1       2.400   7.960  17.839  0.00  0.00    +0.000 NA
ATOM      3  N   UNL     1       1.789   9.201  17.919  0.00  0.00    +0.000 NA
ATOM      4  C   UNL     1       1.389   9.364  19.164  0.00  0.00    +0.000 A 
ATOM      5  C   UNL     1       0.648  10.473  19.742  0.00  0.00    +0.000 A 
ATOM      6  O   UNL     1       0.231  11.420  19.078  0.00  0.00    +0.000 OA
ATOM      7  N   UNL     1       0.468  10.370  21.162  0.00  0.00    +0.000 N 
ATOM      8  C   UNL     1       0.947   9.273  21.887  0.00  0.00    +0.000 A 
ATOM      9  C   UNL     1       1.564   8.246  21.289  0.00  0.00    +0.000 A 
ATOM     10  N   UNL     1       1.778   8.291  19.923  0.00  0.00    +0.000 N 
ENDROOT
BRANCH   7  11
ATOM     11  C   UNL     1      -0.244  11.398  21.850  0.00  0.00    +0.000 A 
ATOM     12  C   UNL     1       0.149  12.738  21.731  0.00  0.00    +0.000 A 
ATOM     13  C   UNL     1      -0.627  13.753  22.300  0.00  0.00    +0.000 A 
ATOM     14  C   UNL     1      -1.772  13.431  23.026  0.00  0.00    +0.000 A 
ATOM     15  C   UNL     1      -2.138  12.097  23.169  0.00  0.00    +0.000 A 
ATOM     16  F   UNL     1      -3.226  11.785  23.886  0.00  0.00    +0.000 F 
ATOM     17  C   UNL     1      -1.401  11.082  22.573  0.00  0.00    +0.000 A 
ENDBRANCH   7  11
BRANCH   1  18
ATOM     18  S   UNL     1       2.777   5.796  19.455  0.00  0.00    +0.000 S 
BRANCH  18  19
ATOM     19  C   UNL     1       2.858   5.022  17.821  0.00  0.00    +0.000 C 
BRANCH  19  21
ATOM     20  O   UNL     1       4.444   3.381  16.978  0.00  0.00    +0.000 OA
ATOM     21  C   UNL     1       4.247   4.486  17.484  0.00  0.00    +0.000 C 
BRANCH  21  22
ATOM     22  C   UNL     1       5.418   5.368  17.776  0.00  0.00    +0.000 A 
ATOM     23  C   UNL     1       6.283   5.005  18.823  0.00  0.00    +0.000 A 
ATOM     24  C   UNL     1       7.410   5.778  19.112  0.00  0.00    +0.000 A 
ATOM     25  C   UNL     1       7.674   6.913  18.357  0.00  0.00    +0.000 A 
ATOM     26  F   UNL     1       8.760   7.649  18.625  0.00  0.00    +0.000 F 
ATOM     27  C   UNL     1       6.827   7.295  17.324  0.00  0.00    +0.000 A 
ATOM     28  C   UNL     1       5.696   6.527  17.033  0.00  0.00    +0.000 A 
ENDBRANCH  21  22
ENDBRANCH  19  21
ENDBRANCH  18  19
ENDBRANCH   1  18
TORSDOF 5
ENDMDL
MODEL 2
REMARK VINA RESULT:      -8.0      1.675      2.041
REMARK  Name = 
REMARK  5 active torsions:
REMARK  status: ('A' for Active; 'I' for Inactive)
REMARK    1  A    between atoms: C_2  and  C_3
REMARK    2  A    between atoms: C_2  and  C_22
REMARK    3  A    between atoms: C_3  and  S_4
REMARK    4  A    between atoms: S_4  and  C_5
REMARK    5  A    between atoms: N_11  and  C_12
REMARK                            x       y       z     vdW  Elec       q    Type
REMARK                         _______ _______ _______ _____ _____    ______ ____
ROOT
ATOM      1  C   UNL     1       2.297   7.273  18.921  0.00  0.00    +0.000 A 
ATOM      2  N   UNL     1       2.434   7.848  17.748  0.00  0.00    +0.000 NA
ATOM      3  N   UNL     1       1.894   9.120  17.845  0.00  0.00    +0.000 NA
ATOM      4  C   UNL     1       1.460   9.272  19.080  0.00  0.00    +0.000 A 
ATOM      5  C   UNL     1       0.765  10.406  19.666  0.00  0.00    +0.000 A 
ATOM      6  O   UNL     1       0.428  11.395  19.017  0.00  0.00    +0.000 OA
ATOM      7  N   UNL     1       0.528  10.274  21.074  0.00  0.00    +0.000 N 
ATOM      8  C   UNL     1       0.916   9.131  21.782  0.00  0.00    +0.000 A 
ATOM      9  C   UNL     1       1.493   8.086  21.175  0.00  0.00    +0.000 A 
ATOM     10  N   UNL     1       1.758   8.157  19.819  0.00  0.00    +0.000 N 
ENDROOT
BRANCH   7  11
ATOM     11  C   UNL     1      -0.147  11.323  21.769  0.00  0.00    +0.000 A 
ATOM     12  C   UNL     1       0.268  12.654  21.624  0.00  0.00    +0.000 A 
ATOM     13  C   UNL     1      -0.474  13.690  22.201  0.00  0.00    +0.000 A 
ATOM     14  C   UNL     1      -1.606  13.398  22.960  0.00  0.00    +0.000 A 
ATOM     15  C   UNL     1      -1.992  12.073  23.128  0.00  0.00    +0.000 A 
ATOM     16  F   UNL     1      -3.066  11.790  23.876  0.00  0.00    +0.000 F 
ATOM     17  C   UNL     1      -1.289  11.037  22.525  0.00  0.00    +0.000 A 
ENDBRANCH   7  11
BRANCH   1  18
ATOM     18  S   UNL     1       2.625   5.621  19.311  0.00  0.00    +0.000 S 
BRANCH  18  19
ATOM     19  C   UNL     1       4.432   5.646  19.419  0.00  0.00    +0.000 C 
BRANCH  19  21
ATOM     20  O   UNL     1       5.138   3.319  19.488  0.00  0.00    +0.000 OA
ATOM     21  C   UNL     1       5.080   4.379  18.865  0.00  0.00    +0.000 C 
BRANCH  21  22
ATOM     22  C   UNL     1       5.656   4.444  17.487  0.00  0.00    +0.000 A 
ATOM     23  C   UNL     1       4.795   4.249  16.394  0.00  0.00    +0.000 A 
ATOM     24  C   UNL     1       5.280   4.335  15.087  0.00  0.00    +0.000 A 
ATOM     25  C   UNL     1       6.622   4.615  14.870  0.00  0.00    +0.000 A 
ATOM     26  F   UNL     1       7.086   4.708  13.617  0.00  0.00    +0.000 F 
ATOM     27  C   UNL     1       7.493   4.802  15.937  0.00  0.00    +0.000 A 
ATOM     28  C   UNL     1       7.013   4.713  17.248  0.00  0.00    +0.000 A 
ENDBRANCH  21  22
ENDBRANCH  19  21
ENDBRANCH  18  19
ENDBRANCH   1  18
TORSDOF 5
ENDMDL
MODEL 3
REMARK VINA RESULT:      -8.0      6.091      8.355
REMARK  Name = 
REMARK  5 active torsions:
REMARK  status: ('A' for Active; 'I' for Inactive)
REMARK    1  A    between atoms: C_2  and  C_3
REMARK    2  A    between atoms: C_2  and  C_22
REMARK    3  A    between atoms: C_3  and  S_4
REMARK    4  A    between atoms: S_4  and  C_5
REMARK    5  A    between atoms: N_11  and  C_12
REMARK                            x       y       z     vdW  Elec       q    Type
REMARK                         _______ _______ _______ _____ _____    ______ ____
ROOT
ATOM      1  C   UNL     1       7.682   7.310  18.191  0.00  0.00    +0.000 A 
ATOM      2  N   UNL     1       8.513   6.573  18.892  0.00  0.00    +0.000 NA
ATOM      3  N   UNL     1       7.827   5.436  19.286  0.00  0.00    +0.000 NA
ATOM      4  C   UNL     1       6.606   5.522  18.797  0.00  0.00    +0.000 A 
ATOM      5  C   UNL     1       5.490   4.609  18.976  0.00  0.00    +0.000 A 
ATOM      6  O   UNL     1       5.543   3.617  19.701  0.00  0.00    +0.000 OA
ATOM      7  N   UNL     1       4.328   4.960  18.212  0.00  0.00    +0.000 N 
ATOM      8  C   UNL     1       4.296   6.101  17.403  0.00  0.00    +0.000 A 
ATOM      9  C   UNL     1       5.334   6.945  17.330  0.00  0.00    +0.000 A 
ATOM     10  N   UNL     1       6.488   6.655  18.035  0.00  0.00    +0.000 N 
ENDROOT
BRANCH   7  11
ATOM     11  C   UNL     1       3.161   4.141  18.300  0.00  0.00    +0.000 A 
ATOM     12  C   UNL     1       3.042   2.986  17.514  0.00  0.00    +0.000 A 
ATOM     13  C   UNL     1       1.961   2.119  17.698  0.00  0.00    +0.000 A 
ATOM     14  C   UNL     1       0.974   2.423  18.633  0.00  0.00    +0.000 A 
ATOM     15  C   UNL     1       1.080   3.587  19.385  0.00  0.00    +0.000 A 
ATOM     16  F   UNL     1       0.121   3.892  20.268  0.00  0.00    +0.000 F 
ATOM     17  C   UNL     1       2.171   4.436  19.244  0.00  0.00    +0.000 A 
ENDBRANCH   7  11
BRANCH   1  18
ATOM     18  S   UNL     1       7.953   8.918  17.615  0.00  0.00    +0.000 S 
BRANCH  18  19
ATOM     19  C   UNL     1       9.053   9.562  18.901  0.00  0.00    +0.000 C 
BRANCH  19  21
ATOM     20  O   UNL     1       9.863  11.425  17.563  0.00  0.00    +0.000 OA
ATOM     21  C   UNL     1       9.475  11.008  18.654  0.00  0.00    +0.000 C 
BRANCH  21  22
ATOM     22  C   UNL     1       9.392  11.958  19.805  0.00  0.00    +0.000 A 
ATOM     23  C   UNL     1       9.372  13.337  19.533  0.00  0.00    +0.000 A 
ATOM     24  C   UNL     1       9.261  14.263  20.573  0.00  0.00    +0.000 A 
ATOM     25  C   UNL     1       9.169  13.813  21.884  0.00  0.00    +0.000 A 
ATOM     26  F   UNL     1       9.051  14.699  22.881  0.00  0.00    +0.000 F 
ATOM     27  C   UNL     1       9.196  12.455  22.176  0.00  0.00    +0.000 A 
ATOM     28  C   UNL     1       9.312  11.524  21.138  0.00  0.00    +0.000 A 
ENDBRANCH  21  22
ENDBRANCH  19  21
ENDBRANCH  18  19
ENDBRANCH   1  18
TORSDOF 5
ENDMDL
MODEL 4
REMARK VINA RESULT:      -8.0      0.542      1.061
REMARK  Name = 
REMARK  5 active torsions:
REMARK  status: ('A' for Active; 'I' for Inactive)
REMARK    1  A    between atoms: C_2  and  C_3
REMARK    2  A    between atoms: C_2  and  C_22
REMARK    3  A    between atoms: C_3  and  S_4
REMARK    4  A    between atoms: S_4  and  C_5
REMARK    5  A    between atoms: N_11  and  C_12
REMARK                            x       y       z     vdW  Elec       q    Type
REMARK                         _______ _______ _______ _____ _____    ______ ____
ROOT
ATOM      1  C   UNL     1       2.060   7.876  19.176  0.00  0.00    +0.000 A 
ATOM      2  N   UNL     1       2.053   8.429  17.984  0.00  0.00    +0.000 NA
ATOM      3  N   UNL     1       1.391   9.641  18.094  0.00  0.00    +0.000 NA
ATOM      4  C   UNL     1       1.031   9.782  19.354  0.00  0.00    +0.000 A 
ATOM      5  C   UNL     1       0.262  10.854  19.965  0.00  0.00    +0.000 A 
ATOM      6  O   UNL     1      -0.221  11.784  19.322  0.00  0.00    +0.000 OA
ATOM      7  N   UNL     1       0.141  10.738  21.389  0.00  0.00    +0.000 N 
ATOM      8  C   UNL     1       0.695   9.661  22.091  0.00  0.00    +0.000 A 
ATOM      9  C   UNL     1       1.335   8.665  21.465  0.00  0.00    +0.000 A 
ATOM     10  N   UNL     1       1.496   8.724  20.092  0.00  0.00    +0.000 N 
ENDROOT
BRANCH   7  11
ATOM     11  C   UNL     1      -0.591  11.731  22.110  0.00  0.00    +0.000 A 
ATOM     12  C   UNL     1      -0.182  13.071  22.086  0.00  0.00    +0.000 A 
ATOM     13  C   UNL     1      -0.972  14.059  22.684  0.00  0.00    +0.000 A 
ATOM     14  C   UNL     1      -2.148  13.706  23.343  0.00  0.00    +0.000 A 
ATOM     15  C   UNL     1      -2.530  12.370  23.392  0.00  0.00    +0.000 A 
ATOM     16  F   UNL     1      -3.648  12.027  24.044  0.00  0.00    +0.000 F 
ATOM     17  C   UNL     1      -1.777  11.384  22.765  0.00  0.00    +0.000 A 
ENDBRANCH   7  11
BRANCH   1  18
ATOM     18  S   UNL     1       2.587   6.279  19.575  0.00  0.00    +0.000 S 
BRANCH  18  19
ATOM     19  C   UNL     1       2.421   5.451  17.973  0.00  0.00    +0.000 C 
BRANCH  19  21
ATOM     20  O   UNL     1       3.656   3.596  17.000  0.00  0.00    +0.000 OA
ATOM     21  C   UNL     1       3.678   4.690  17.562  0.00  0.00    +0.000 C 
BRANCH  21  22
ATOM     22  C   UNL     1       4.998   5.330  17.852  0.00  0.00    +0.000 A 
ATOM     23  C   UNL     1       5.421   6.390  17.032  0.00  0.00    +0.000 A 
ATOM     24  C   UNL     1       6.630   7.042  17.285  0.00  0.00    +0.000 A 
ATOM     25  C   UNL     1       7.418   6.637  18.355  0.00  0.00    +0.000 A 
ATOM     26  F   UNL     1       8.571   7.269  18.605  0.00  0.00    +0.000 F 
ATOM     27  C   UNL     1       7.023   5.585  19.172  0.00  0.00    +0.000 A 
ATOM     28  C   UNL     1       5.815   4.926  18.921  0.00  0.00    +0.000 A 
ENDBRANCH  21  22
ENDBRANCH  19  21
ENDBRANCH  18  19
ENDBRANCH   1  18
TORSDOF 5
ENDMDL
MODEL 5
REMARK VINA RESULT:      -7.9      3.870      8.774
REMARK  Name = 
REMARK  5 active torsions:
REMARK  status: ('A' for Active; 'I' for Inactive)
REMARK    1  A    between atoms: C_2  and  C_3
REMARK    2  A    between atoms: C_2  and  C_22
REMARK    3  A    between atoms: C_3  and  S_4
REMARK    4  A    between atoms: S_4  and  C_5
REMARK    5  A    between atoms: N_11  and  C_12
REMARK                            x       y       z     vdW  Elec       q    Type
REMARK                         _______ _______ _______ _____ _____    ______ ____
ROOT
ATOM      1  C   UNL     1       1.271  10.230  19.459  0.00  0.00    +0.000 A 
ATOM      2  N   UNL     1       1.621  10.619  18.253  0.00  0.00    +0.000 NA
ATOM      3  N   UNL     1       2.209   9.535  17.622  0.00  0.00    +0.000 NA
ATOM      4  C   UNL     1       2.183   8.524  18.468  0.00  0.00    +0.000 A 
ATOM      5  C   UNL     1       2.726   7.186  18.302  0.00  0.00    +0.000 A 
ATOM      6  O   UNL     1       3.367   6.840  17.311  0.00  0.00    +0.000 OA
ATOM      7  N   UNL     1       2.427   6.302  19.391  0.00  0.00    +0.000 N 
ATOM      8  C   UNL     1       1.703   6.729  20.509  0.00  0.00    +0.000 A 
ATOM      9  C   UNL     1       1.285   7.995  20.639  0.00  0.00    +0.000 A 
ATOM     10  N   UNL     1       1.533   8.894  19.617  0.00  0.00    +0.000 N 
ENDROOT
BRANCH   7  11
ATOM     11  C   UNL     1       2.904   4.957  19.348  0.00  0.00    +0.000 A 
ATOM     12  C   UNL     1       4.279   4.688  19.408  0.00  0.00    +0.000 A 
ATOM     13  C   UNL     1       4.734   3.368  19.497  0.00  0.00    +0.000 A 
ATOM     14  C   UNL     1       3.823   2.314  19.482  0.00  0.00    +0.000 A 
ATOM     15  C   UNL     1       2.463   2.586  19.387  0.00  0.00    +0.000 A 
ATOM     16  F   UNL     1       1.589   1.573  19.349  0.00  0.00    +0.000 F 
ATOM     17  C   UNL     1       1.994   3.893  19.342  0.00  0.00    +0.000 A 
ENDBRANCH   7  11
BRANCH   1  18
ATOM     18  S   UNL     1       0.668  11.227  20.735  0.00  0.00    +0.000 S 
BRANCH  18  19
ATOM     19  C   UNL     1      -1.112  10.931  20.591  0.00  0.00    +0.000 C 
BRANCH  19  21
ATOM     20  O   UNL     1      -1.871  13.124  19.863  0.00  0.00    +0.000 OA
ATOM     21  C   UNL     1      -1.805  11.914  19.651  0.00  0.00    +0.000 C 
BRANCH  21  22
ATOM     22  C   UNL     1      -2.419  11.362  18.404  0.00  0.00    +0.000 A 
ATOM     23  C   UNL     1      -3.710  11.789  18.049  0.00  0.00    +0.000 A 
ATOM     24  C   UNL     1      -4.311  11.329  16.875  0.00  0.00    +0.000 A 
ATOM     25  C   UNL     1      -3.625  10.443  16.055  0.00  0.00    +0.000 A 
ATOM     26  F   UNL     1      -4.195  10.010  14.924  0.00  0.00    +0.000 F 
ATOM     27  C   UNL     1      -2.351  10.001  16.392  0.00  0.00    +0.000 A 
ATOM     28  C   UNL     1      -1.746  10.456  17.568  0.00  0.00    +0.000 A 
ENDBRANCH  21  22
ENDBRANCH  19  21
ENDBRANCH  18  19
ENDBRANCH   1  18
TORSDOF 5
ENDMDL
MODEL 6
REMARK VINA RESULT:      -7.8      4.054      8.674
REMARK  Name = 
REMARK  5 active torsions:
REMARK  status: ('A' for Active; 'I' for Inactive)
REMARK    1  A    between atoms: C_2  and  C_3
REMARK    2  A    between atoms: C_2  and  C_22
REMARK    3  A    between atoms: C_3  and  S_4
REMARK    4  A    between atoms: S_4  and  C_5
REMARK    5  A    between atoms: N_11  and  C_12
REMARK                            x       y       z     vdW  Elec       q    Type
REMARK                         _______ _______ _______ _____ _____    ______ ____
ROOT
ATOM      1  C   UNL     1       1.420  10.062  18.907  0.00  0.00    +0.000 A 
ATOM      2  N   UNL     1       1.821  10.163  17.660  0.00  0.00    +0.000 NA
ATOM      3  N   UNL     1       2.371   8.944  17.301  0.00  0.00    +0.000 NA
ATOM      4  C   UNL     1       2.272   8.144  18.344  0.00  0.00    +0.000 A 
ATOM      5  C   UNL     1       2.752   6.780  18.493  0.00  0.00    +0.000 A 
ATOM      6  O   UNL     1       3.401   6.199  17.624  0.00  0.00    +0.000 OA
ATOM      7  N   UNL     1       2.380   6.168  19.735  0.00  0.00    +0.000 N 
ATOM      8  C   UNL     1       1.648   6.860  20.707  0.00  0.00    +0.000 A 
ATOM      9  C   UNL     1       1.291   8.141  20.543  0.00  0.00    +0.000 A 
ATOM     10  N   UNL     1       1.610   8.783  19.361  0.00  0.00    +0.000 N 
ENDROOT
BRANCH   7  11
ATOM     11  C   UNL     1       2.791   4.827  20.002  0.00  0.00    +0.000 A 
ATOM     12  C   UNL     1       3.978   4.324  19.452  0.00  0.00    +0.000 A 
ATOM     13  C   UNL     1       4.443   3.057  19.820  0.00  0.00    +0.000 A 
ATOM     14  C   UNL     1       3.703   2.273  20.703  0.00  0.00    +0.000 A 
ATOM     15  C   UNL     1       2.509   2.764  21.219  0.00  0.00    +0.000 A 
ATOM     16  F   UNL     1       1.786   2.002  22.049  0.00  0.00    +0.000 F 
ATOM     17  C   UNL     1       2.058   4.038  20.896  0.00  0.00    +0.000 A 
ENDBRANCH   7  11
BRANCH   1  18
ATOM     18  S   UNL     1       0.832  11.339  19.914  0.00  0.00    +0.000 S 
BRANCH  18  19
ATOM     19  C   UNL     1      -0.900  10.851  20.111  0.00  0.00    +0.000 C 
BRANCH  19  21
ATOM     20  O   UNL     1      -2.130  12.937  19.880  0.00  0.00    +0.000 OA
ATOM     21  C   UNL     1      -1.871  11.818  19.439  0.00  0.00    +0.000 C 
BRANCH  21  22
ATOM     22  C   UNL     1      -2.523  11.371  18.170  0.00  0.00    +0.000 A 
ATOM     23  C   UNL     1      -1.823  10.481  17.336  0.00  0.00    +0.000 A 
ATOM     24  C   UNL     1      -2.405  10.008  16.158  0.00  0.00    +0.000 A 
ATOM     25  C   UNL     1      -3.685  10.421  15.811  0.00  0.00    +0.000 A 
ATOM     26  F   UNL     1      -4.247   9.959  14.687  0.00  0.00    +0.000 F 
ATOM     27  C   UNL     1      -4.391  11.307  16.615  0.00  0.00    +0.000 A 
ATOM     28  C   UNL     1      -3.811  11.787  17.794  0.00  0.00    +0.000 A 
ENDBRANCH  21  22
ENDBRANCH  19  21
ENDBRANCH  18  19
ENDBRANCH   1  18
TORSDOF 5
ENDMDL
MODEL 7
REMARK VINA RESULT:      -7.8      2.106      2.415
REMARK  Name = 
REMARK  5 active torsions:
REMARK  status: ('A' for Active; 'I' for Inactive)
REMARK    1  A    between atoms: C_2  and  C_3
REMARK    2  A    between atoms: C_2  and  C_22
REMARK    3  A    between atoms: C_3  and  S_4
REMARK    4  A    between atoms: S_4  and  C_5
REMARK    5  A    between atoms: N_11  and  C_12
REMARK                            x       y       z     vdW  Elec       q    Type
REMARK                         _______ _______ _______ _____ _____    ______ ____
ROOT
ATOM      1  C   UNL     1       2.514   6.548  19.393  0.00  0.00    +0.000 A 
ATOM      2  N   UNL     1       3.000   6.783  18.195  0.00  0.00    +0.000 NA
ATOM      3  N   UNL     1       2.632   8.072  17.844  0.00  0.00    +0.000 NA
ATOM      4  C   UNL     1       1.944   8.574  18.851  0.00  0.00    +0.000 A 
ATOM      5  C   UNL     1       1.292   9.869  18.949  0.00  0.00    +0.000 A 
ATOM      6  O   UNL     1       1.256  10.674  18.021  0.00  0.00    +0.000 OA
ATOM      7  N   UNL     1       0.716  10.129  20.237  0.00  0.00    +0.000 N 
ATOM      8  C   UNL     1       0.766   9.187  21.270  0.00  0.00    +0.000 A 
ATOM      9  C   UNL     1       1.322   7.980  21.100  0.00  0.00    +0.000 A 
ATOM     10  N   UNL     1       1.906   7.673  19.884  0.00  0.00    +0.000 N 
ENDROOT
BRANCH   7  11
ATOM     11  C   UNL     1       0.046  11.369  20.463  0.00  0.00    +0.000 A 
ATOM     12  C   UNL     1      -1.311  11.514  20.140  0.00  0.00    +0.000 A 
ATOM     13  C   UNL     1      -1.995  12.685  20.483  0.00  0.00    +0.000 A 
ATOM     14  C   UNL     1      -1.317  13.730  21.108  0.00  0.00    +0.000 A 
ATOM     15  C   UNL     1       0.036  13.594  21.394  0.00  0.00    +0.000 A 
ATOM     16  F   UNL     1       0.694  14.606  21.974  0.00  0.00    +0.000 F 
ATOM     17  C   UNL     1       0.718  12.419  21.099  0.00  0.00    +0.000 A 
ENDBRANCH   7  11
BRANCH   1  18
ATOM     18  S   UNL     1       2.514   5.037  20.233  0.00  0.00    +0.000 S 
BRANCH  18  19
ATOM     19  C   UNL     1       3.006   3.906  18.908  0.00  0.00    +0.000 C 
BRANCH  19  21
ATOM     20  O   UNL     1       5.121   3.097  19.796  0.00  0.00    +0.000 OA
ATOM     21  C   UNL     1       4.509   3.642  18.877  0.00  0.00    +0.000 C 
BRANCH  21  22
ATOM     22  C   UNL     1       5.259   4.060  17.654  0.00  0.00    +0.000 A 
ATOM     23  C   UNL     1       6.588   4.494  17.801  0.00  0.00    +0.000 A 
ATOM     24  C   UNL     1       7.341   4.861  16.683  0.00  0.00    +0.000 A 
ATOM     25  C   UNL     1       6.769   4.796  15.419  0.00  0.00    +0.000 A 
ATOM     26  F   UNL     1       7.494   5.137  14.346  0.00  0.00    +0.000 F 
ATOM     27  C   UNL     1       5.455   4.378  15.252  0.00  0.00    +0.000 A 
ATOM     28  C   UNL     1       4.695   4.013  16.368  0.00  0.00    +0.000 A 
ENDBRANCH  21  22
ENDBRANCH  19  21
ENDBRANCH  18  19
ENDBRANCH   1  18
TORSDOF 5
ENDMDL
MODEL 8
REMARK VINA RESULT:      -7.8      1.134      1.474
REMARK  Name = 
REMARK  5 active torsions:
REMARK  status: ('A' for Active; 'I' for Inactive)
REMARK    1  A    between atoms: C_2  and  C_3
REMARK    2  A    between atoms: C_2  and  C_22
REMARK    3  A    between atoms: C_3  and  S_4
REMARK    4  A    between atoms: S_4  and  C_5
REMARK    5  A    between atoms: N_11  and  C_12
REMARK                            x       y       z     vdW  Elec       q    Type
REMARK                         _______ _______ _______ _____ _____    ______ ____
ROOT
ATOM      1  C   UNL     1       2.339   7.710  18.884  0.00  0.00    +0.000 A 
ATOM      2  N   UNL     1       2.629   8.262  17.727  0.00  0.00    +0.000 NA
ATOM      3  N   UNL     1       1.974   9.482  17.675  0.00  0.00    +0.000 NA
ATOM      4  C   UNL     1       1.320   9.628  18.811  0.00  0.00    +0.000 A 
ATOM      5  C   UNL     1       0.439  10.709  19.220  0.00  0.00    +0.000 A 
ATOM      6  O   UNL     1       0.138  11.645  18.481  0.00  0.00    +0.000 OA
ATOM      7  N   UNL     1      -0.026  10.595  20.572  0.00  0.00    +0.000 N 
ATOM      8  C   UNL     1       0.328   9.513  21.384  0.00  0.00    +0.000 A 
ATOM      9  C   UNL     1       1.089   8.508  20.930  0.00  0.00    +0.000 A 
ATOM     10  N   UNL     1       1.579   8.565  19.638  0.00  0.00    +0.000 N 
ENDROOT
BRANCH   7  11
ATOM     11  C   UNL     1      -0.899  11.597  21.095  0.00  0.00    +0.000 A 
ATOM     12  C   UNL     1      -0.564  12.291  22.266  0.00  0.00    +0.000 A 
ATOM     13  C   UNL     1      -1.354  13.359  22.703  0.00  0.00    +0.000 A 
ATOM     14  C   UNL     1      -2.504  13.708  21.997  0.00  0.00    +0.000 A 
ATOM     15  C   UNL     1      -2.850  12.994  20.856  0.00  0.00    +0.000 A 
ATOM     16  F   UNL     1      -3.967  13.314  20.190  0.00  0.00    +0.000 F 
ATOM     17  C   UNL     1      -2.050  11.959  20.386  0.00  0.00    +0.000 A 
ENDBRANCH   7  11
BRANCH   1  18
ATOM     18  S   UNL     1       2.735   6.106  19.395  0.00  0.00    +0.000 S 
BRANCH  18  19
ATOM     19  C   UNL     1       2.787   5.242  17.805  0.00  0.00    +0.000 C 
BRANCH  19  21
ATOM     20  O   UNL     1       4.209   3.396  17.106  0.00  0.00    +0.000 OA
ATOM     21  C   UNL     1       4.118   4.540  17.552  0.00  0.00    +0.000 C 
BRANCH  21  22
ATOM     22  C   UNL     1       5.369   5.301  17.852  0.00  0.00    +0.000 A 
ATOM     23  C   UNL     1       5.679   6.417  17.056  0.00  0.00    +0.000 A 
ATOM     24  C   UNL     1       6.818   7.181  17.320  0.00  0.00    +0.000 A 
ATOM     25  C   UNL     1       7.647   6.833  18.378  0.00  0.00    +0.000 A 
ATOM     26  F   UNL     1       8.733   7.571  18.639  0.00  0.00    +0.000 F 
ATOM     27  C   UNL     1       7.364   5.729  19.172  0.00  0.00    +0.000 A 
ATOM     28  C   UNL     1       6.227   4.958  18.910  0.00  0.00    +0.000 A 
ENDBRANCH  21  22
ENDBRANCH  19  21
ENDBRANCH  18  19
ENDBRANCH   1  18
TORSDOF 5
ENDMDL
MODEL 9
REMARK VINA RESULT:      -7.8      2.071      2.400
REMARK  Name = 
REMARK  5 active torsions:
REMARK  status: ('A' for Active; 'I' for Inactive)
REMARK    1  A    between atoms: C_2  and  C_3
REMARK    2  A    between atoms: C_2  and  C_22
REMARK    3  A    between atoms: C_3  and  S_4
REMARK    4  A    between atoms: S_4  and  C_5
REMARK    5  A    between atoms: N_11  and  C_12
REMARK                            x       y       z     vdW  Elec       q    Type
REMARK                         _______ _______ _______ _____ _____    ______ ____
ROOT
ATOM      1  C   UNL     1       2.628   6.732  19.256  0.00  0.00    +0.000 A 
ATOM      2  N   UNL     1       3.088   7.079  18.075  0.00  0.00    +0.000 NA
ATOM      3  N   UNL     1       2.599   8.344  17.795  0.00  0.00    +0.000 NA
ATOM      4  C   UNL     1       1.869   8.723  18.825  0.00  0.00    +0.000 A 
ATOM      5  C   UNL     1       1.098   9.943  18.993  0.00  0.00    +0.000 A 
ATOM      6  O   UNL     1       0.985  10.792  18.111  0.00  0.00    +0.000 OA
ATOM      7  N   UNL     1       0.502  10.076  20.292  0.00  0.00    +0.000 N 
ATOM      8  C   UNL     1       0.644   9.087  21.271  0.00  0.00    +0.000 A 
ATOM      9  C   UNL     1       1.310   7.949  21.036  0.00  0.00    +0.000 A 
ATOM     10  N   UNL     1       1.917   7.766  19.807  0.00  0.00    +0.000 N 
ENDROOT
BRANCH   7  11
ATOM     11  C   UNL     1      -0.280  11.234  20.584  0.00  0.00    +0.000 A 
ATOM     12  C   UNL     1       0.238  12.258  21.388  0.00  0.00    +0.000 A 
ATOM     13  C   UNL     1      -0.480  13.446  21.565  0.00  0.00    +0.000 A 
ATOM     14  C   UNL     1      -1.734  13.597  20.976  0.00  0.00    +0.000 A 
ATOM     15  C   UNL     1      -2.257  12.563  20.208  0.00  0.00    +0.000 A 
ATOM     16  F   UNL     1      -3.472  12.697  19.660  0.00  0.00    +0.000 F 
ATOM     17  C   UNL     1      -1.537  11.395  19.988  0.00  0.00    +0.000 A 
ENDBRANCH   7  11
BRANCH   1  18
ATOM     18  S   UNL     1       2.771   5.184  20.011  0.00  0.00    +0.000 S 
BRANCH  18  19
ATOM     19  C   UNL     1       3.304   4.167  18.612  0.00  0.00    +0.000 C 
BRANCH  19  21
ATOM     20  O   UNL     1       5.462   3.535  19.539  0.00  0.00    +0.000 OA
ATOM     21  C   UNL     1       4.814   3.945  18.577  0.00  0.00    +0.000 C 
BRANCH  21  22
ATOM     22  C   UNL     1       5.525   4.232  17.293  0.00  0.00    +0.000 A 
ATOM     23  C   UNL     1       4.794   4.162  16.095  0.00  0.00    +0.000 A 
ATOM     24  C   UNL     1       5.405   4.456  14.874  0.00  0.00    +0.000 A 
ATOM     25  C   UNL     1       6.745   4.820  14.848  0.00  0.00    +0.000 A 
ATOM     26  F   UNL     1       7.330   5.112  13.679  0.00  0.00    +0.000 F 
ATOM     27  C   UNL     1       7.489   4.887  16.020  0.00  0.00    +0.000 A 
ATOM     28  C   UNL     1       6.882   4.590  17.245  0.00  0.00    +0.000 A 
ENDBRANCH  21  22
ENDBRANCH  19  21
ENDBRANCH  18  19
ENDBRANCH   1  18
TORSDOF 5
ENDMDL
