MODEL 1
REMARK VINA RESULT:      -8.6      0.000      0.000
REMARK  Name = 
REMARK  5 active torsions:
REMARK  status: ('A' for Active; 'I' for Inactive)
REMARK    1  A    between atoms: C_2  and  O_3
REMARK    2  A    between atoms: C_2  and  C_4
REMARK    3  A    between atoms: C_7  and  C_8
REMARK    4  A    between atoms: C_9  and  C_10
REMARK    5  A    between atoms: C_16  and  C_17
REMARK                            x       y       z     vdW  Elec       q    Type
REMARK                         _______ _______ _______ _____ _____    ______ ____
ROOT
ATOM      1  C   UNL     1       1.591   5.759  20.559  0.00  0.00    +0.000 A 
ATOM      2  C   UNL     1       1.038   4.476  20.640  0.00  0.00    +0.000 A 
ATOM      3  C   UNL     1       1.703   3.352  20.124  0.00  0.00    +0.000 A 
ATOM      4  C   UNL     1       2.942   3.570  19.516  0.00  0.00    +0.000 A 
ATOM      5  N   UNL     1       3.825   2.720  18.915  0.00  0.00    +0.000 N 
ATOM      6  N   UNL     1       4.920   3.316  18.416  0.00  0.00    +0.000 NA
ATOM      7  C   UNL     1       4.764   4.615  18.729  0.00  0.00    +0.000 A 
ATOM      8  C   UNL     1       3.522   4.826  19.406  0.00  0.00    +0.000 A 
ATOM      9  C   UNL     1       2.825   5.936  19.918  0.00  0.00    +0.000 A 
ATOM     10  H   UNL     1       3.736   1.717  18.802  0.00  0.00    +0.000 HD
ENDROOT
BRANCH   7  11
ATOM     11  C   UNL     1       5.779   5.610  18.376  0.00  0.00    +0.000 A 
ATOM     12  C   UNL     1       7.009   5.636  19.053  0.00  0.00    +0.000 A 
ATOM     13  C   UNL     1       7.981   6.582  18.720  0.00  0.00    +0.000 A 
ATOM     14  C   UNL     1       7.728   7.501  17.710  0.00  0.00    +0.000 A 
ATOM     15  F   UNL     1       8.659   8.409  17.393  0.00  0.00    +0.000 F 
ATOM     16  C   UNL     1       6.519   7.496  17.026  0.00  0.00    +0.000 A 
ATOM     17  C   UNL     1       5.544   6.559  17.367  0.00  0.00    +0.000 A 
ENDBRANCH   7  11
BRANCH   1  19
ATOM     18  C   UNL     1       1.299   8.176  21.056  0.00  0.00    +0.000 C 
ATOM     19  C   UNL     1       0.845   6.910  21.087  0.00  0.00    +0.000 C 
BRANCH  18  23
ATOM     20  C   UNL     1      -0.818  11.523  22.509  0.00  0.00    +0.000 A 
ATOM     21  C   UNL     1      -0.924  10.312  23.195  0.00  0.00    +0.000 A 
ATOM     22  C   UNL     1      -0.230   9.196  22.726  0.00  0.00    +0.000 A 
ATOM     23  C   UNL     1       0.547   9.324  21.578  0.00  0.00    +0.000 A 
ATOM     24  N   UNL     1       0.661  10.492  20.902  0.00  0.00    +0.000 NA
ATOM     25  C   UNL     1      -0.004  11.564  21.389  0.00  0.00    +0.000 A 
BRANCH  20  27
ATOM     26  O   UNL     1      -2.708  12.880  22.912  0.00  0.00    +0.000 OA
ATOM     27  C   UNL     1      -1.502  12.720  23.026  0.00  0.00    +0.000 C 
BRANCH  27  28
ATOM     28  O   UNL     1      -0.688  13.629  23.596  0.00  0.00    +0.000 OA
ATOM     29  H   UNL     1      -1.017  14.066  24.403  0.00  0.00    +0.000 HD
ENDBRANCH  27  28
ENDBRANCH  20  27
ENDBRANCH  18  23
ENDBRANCH   1  19
TORSDOF 5
ENDMDL
MODEL 2
REMARK VINA RESULT:      -8.6      0.786      1.482
REMARK  Name = 
REMARK  5 active torsions:
REMARK  status: ('A' for Active; 'I' for Inactive)
REMARK    1  A    between atoms: C_2  and  O_3
REMARK    2  A    between atoms: C_2  and  C_4
REMARK    3  A    between atoms: C_7  and  C_8
REMARK    4  A    between atoms: C_9  and  C_10
REMARK    5  A    between atoms: C_16  and  C_17
REMARK                            x       y       z     vdW  Elec       q    Type
REMARK                         _______ _______ _______ _____ _____    ______ ____
ROOT
ATOM      1  C   UNL     1       1.701   5.601  20.531  0.00  0.00    +0.000 A 
ATOM      2  C   UNL     1       1.259   4.293  20.758  0.00  0.00    +0.000 A 
ATOM      3  C   UNL     1       2.043   3.179  20.415  0.00  0.00    +0.000 A 
ATOM      4  C   UNL     1       3.285   3.433  19.828  0.00  0.00    +0.000 A 
ATOM      5  N   UNL     1       4.266   2.600  19.372  0.00  0.00    +0.000 N 
ATOM      6  N   UNL     1       5.327   3.228  18.839  0.00  0.00    +0.000 NA
ATOM      7  C   UNL     1       5.043   4.535  18.976  0.00  0.00    +0.000 A 
ATOM      8  C   UNL     1       3.758   4.713  19.577  0.00  0.00    +0.000 A 
ATOM      9  C   UNL     1       2.943   5.809  19.916  0.00  0.00    +0.000 A 
ATOM     10  H   UNL     1       4.270   1.587  19.387  0.00  0.00    +0.000 HD
ENDROOT
BRANCH   7  11
ATOM     11  C   UNL     1       5.983   5.568  18.533  0.00  0.00    +0.000 A 
ATOM     12  C   UNL     1       5.641   6.430  17.480  0.00  0.00    +0.000 A 
ATOM     13  C   UNL     1       6.532   7.417  17.054  0.00  0.00    +0.000 A 
ATOM     14  C   UNL     1       7.764   7.547  17.681  0.00  0.00    +0.000 A 
ATOM     15  F   UNL     1       8.620   8.492  17.271  0.00  0.00    +0.000 F 
ATOM     16  C   UNL     1       8.127   6.706  18.726  0.00  0.00    +0.000 A 
ATOM     17  C   UNL     1       7.241   5.713  19.143  0.00  0.00    +0.000 A 
ENDBRANCH   7  11
BRANCH   1  19
ATOM     18  C   UNL     1       1.292   7.947  21.242  0.00  0.00    +0.000 C 
ATOM     19  C   UNL     1       0.834   6.735  20.879  0.00  0.00    +0.000 C 
BRANCH  18  23
ATOM     20  C   UNL     1      -1.227  11.163  22.290  0.00  0.00    +0.000 A 
ATOM     21  C   UNL     1      -0.778  11.064  20.972  0.00  0.00    +0.000 A 
ATOM     22  C   UNL     1       0.056  10.005  20.610  0.00  0.00    +0.000 A 
ATOM     23  C   UNL     1       0.422   9.078  21.582  0.00  0.00    +0.000 A 
ATOM     24  N   UNL     1      -0.006   9.161  22.865  0.00  0.00    +0.000 NA
ATOM     25  C   UNL     1      -0.831  10.183  23.185  0.00  0.00    +0.000 A 
BRANCH  20  27
ATOM     26  O   UNL     1      -2.017  13.389  22.263  0.00  0.00    +0.000 OA
ATOM     27  C   UNL     1      -2.152  12.245  22.669  0.00  0.00    +0.000 C 
BRANCH  27  28
ATOM     28  O   UNL     1      -3.127  11.875  23.522  0.00  0.00    +0.000 OA
ATOM     29  H   UNL     1      -2.938  11.975  24.473  0.00  0.00    +0.000 HD
ENDBRANCH  27  28
ENDBRANCH  20  27
ENDBRANCH  18  23
ENDBRANCH   1  19
TORSDOF 5
ENDMDL
MODEL 3
REMARK VINA RESULT:      -8.5      0.193      1.131
REMARK  Name = 
REMARK  5 active torsions:
REMARK  status: ('A' for Active; 'I' for Inactive)
REMARK    1  A    between atoms: C_2  and  O_3
REMARK    2  A    between atoms: C_2  and  C_4
REMARK    3  A    between atoms: C_7  and  C_8
REMARK    4  A    between atoms: C_9  and  C_10
REMARK    5  A    between atoms: C_16  and  C_17
REMARK                            x       y       z     vdW  Elec       q    Type
REMARK                         _______ _______ _______ _____ _____    ______ ____
ROOT
ATOM      1  C   UNL     1       1.682   5.646  20.548  0.00  0.00    +0.000 A 
ATOM      2  C   UNL     1       1.163   4.349  20.631  0.00  0.00    +0.000 A 
ATOM      3  C   UNL     1       1.861   3.241  20.124  0.00  0.00    +0.000 A 
ATOM      4  C   UNL     1       3.097   3.490  19.522  0.00  0.00    +0.000 A 
ATOM      5  N   UNL     1       4.006   2.662  18.928  0.00  0.00    +0.000 N 
ATOM      6  N   UNL     1       5.088   3.285  18.434  0.00  0.00    +0.000 NA
ATOM      7  C   UNL     1       4.895   4.580  18.741  0.00  0.00    +0.000 A 
ATOM      8  C   UNL     1       3.644   4.761  19.410  0.00  0.00    +0.000 A 
ATOM      9  C   UNL     1       2.914   5.853  19.913  0.00  0.00    +0.000 A 
ATOM     10  H   UNL     1       3.944   1.657  18.819  0.00  0.00    +0.000 HD
ENDROOT
BRANCH   7  11
ATOM     11  C   UNL     1       5.886   5.601  18.390  0.00  0.00    +0.000 A 
ATOM     12  C   UNL     1       5.609   6.536  17.380  0.00  0.00    +0.000 A 
ATOM     13  C   UNL     1       6.549   7.512  17.042  0.00  0.00    +0.000 A 
ATOM     14  C   UNL     1       7.764   7.558  17.713  0.00  0.00    +0.000 A 
ATOM     15  F   UNL     1       8.666   8.493  17.387  0.00  0.00    +0.000 F 
ATOM     16  C   UNL     1       8.061   6.644  18.717  0.00  0.00    +0.000 A 
ATOM     17  C   UNL     1       7.127   5.662  19.045  0.00  0.00    +0.000 A 
ENDBRANCH   7  11
BRANCH   1  19
ATOM     18  C   UNL     1       1.332   8.054  21.054  0.00  0.00    +0.000 C 
ATOM     19  C   UNL     1       0.903   6.779  21.067  0.00  0.00    +0.000 C 
BRANCH  18  23
ATOM     20  C   UNL     1      -0.888  11.346  22.475  0.00  0.00    +0.000 A 
ATOM     21  C   UNL     1      -0.858  10.177  23.238  0.00  0.00    +0.000 A 
ATOM     22  C   UNL     1      -0.129   9.080  22.780  0.00  0.00    +0.000 A 
ATOM     23  C   UNL     1       0.547   9.182  21.568  0.00  0.00    +0.000 A 
ATOM     24  N   UNL     1       0.528  10.310  20.817  0.00  0.00    +0.000 NA
ATOM     25  C   UNL     1      -0.168  11.367  21.292  0.00  0.00    +0.000 A 
BRANCH  20  27
ATOM     26  O   UNL     1      -1.040  13.446  23.547  0.00  0.00    +0.000 OA
ATOM     27  C   UNL     1      -1.610  12.529  22.974  0.00  0.00    +0.000 C 
BRANCH  27  28
ATOM     28  O   UNL     1      -2.942  12.496  22.779  0.00  0.00    +0.000 OA
ATOM     29  H   UNL     1      -3.490  12.217  23.537  0.00  0.00    +0.000 HD
ENDBRANCH  27  28
ENDBRANCH  20  27
ENDBRANCH  18  23
ENDBRANCH   1  19
TORSDOF 5
ENDMDL
MODEL 4
REMARK VINA RESULT:      -8.5      7.062     10.682
REMARK  Name = 
REMARK  5 active torsions:
REMARK  status: ('A' for Active; 'I' for Inactive)
REMARK    1  A    between atoms: C_2  and  O_3
REMARK    2  A    between atoms: C_2  and  C_4
REMARK    3  A    between atoms: C_7  and  C_8
REMARK    4  A    between atoms: C_9  and  C_10
REMARK    5  A    between atoms: C_16  and  C_17
REMARK                            x       y       z     vdW  Elec       q    Type
REMARK                         _______ _______ _______ _____ _____    ______ ____
ROOT
ATOM      1  C   UNL     1       9.334  11.107  18.222  0.00  0.00    +0.000 A 
ATOM      2  C   UNL     1      10.699  11.159  17.919  0.00  0.00    +0.000 A 
ATOM      3  C   UNL     1      11.353  12.375  17.665  0.00  0.00    +0.000 A 
ATOM      4  C   UNL     1      10.578  13.537  17.720  0.00  0.00    +0.000 A 
ATOM      5  N   UNL     1      10.888  14.851  17.515  0.00  0.00    +0.000 N 
ATOM      6  N   UNL     1       9.849  15.693  17.636  0.00  0.00    +0.000 NA
ATOM      7  C   UNL     1       8.813  14.900  17.962  0.00  0.00    +0.000 A 
ATOM      8  C   UNL     1       9.220  13.530  18.007  0.00  0.00    +0.000 A 
ATOM      9  C   UNL     1       8.589  12.294  18.241  0.00  0.00    +0.000 A 
ATOM     10  H   UNL     1      11.793  15.242  17.281  0.00  0.00    +0.000 HD
ENDROOT
BRANCH   7  11
ATOM     11  C   UNL     1       7.479  15.454  18.211  0.00  0.00    +0.000 A 
ATOM     12  C   UNL     1       6.336  14.763  17.779  0.00  0.00    +0.000 A 
ATOM     13  C   UNL     1       5.062  15.285  18.015  0.00  0.00    +0.000 A 
ATOM     14  C   UNL     1       4.929  16.495  18.684  0.00  0.00    +0.000 A 
ATOM     15  F   UNL     1       3.708  16.996  18.908  0.00  0.00    +0.000 F 
ATOM     16  C   UNL     1       6.045  17.198  19.121  0.00  0.00    +0.000 A 
ATOM     17  C   UNL     1       7.317  16.681  18.875  0.00  0.00    +0.000 A 
ENDBRANCH   7  11
BRANCH   1  19
ATOM     18  C   UNL     1       8.218   9.018  17.470  0.00  0.00    +0.000 C 
ATOM     19  C   UNL     1       8.686   9.809  18.453  0.00  0.00    +0.000 C 
BRANCH  18  23
ATOM     20  C   UNL     1       6.313   5.309  18.104  0.00  0.00    +0.000 A 
ATOM     21  C   UNL     1       7.445   5.620  18.859  0.00  0.00    +0.000 A 
ATOM     22  C   UNL     1       8.086   6.843  18.660  0.00  0.00    +0.000 A 
ATOM     23  C   UNL     1       7.578   7.719  17.705  0.00  0.00    +0.000 A 
ATOM     24  N   UNL     1       6.480   7.432  16.965  0.00  0.00    +0.000 NA
ATOM     25  C   UNL     1       5.863   6.250  17.192  0.00  0.00    +0.000 A 
BRANCH  20  27
ATOM     26  O   UNL     1       5.409   3.606  19.468  0.00  0.00    +0.000 OA
ATOM     27  C   UNL     1       5.596   4.044  18.344  0.00  0.00    +0.000 C 
BRANCH  27  28
ATOM     28  O   UNL     1       5.201   3.404  17.227  0.00  0.00    +0.000 OA
ATOM     29  H   UNL     1       4.339   3.665  16.853  0.00  0.00    +0.000 HD
ENDBRANCH  27  28
ENDBRANCH  20  27
ENDBRANCH  18  23
ENDBRANCH   1  19
TORSDOF 5
ENDMDL
MODEL 5
REMARK VINA RESULT:      -8.4      6.995     10.554
REMARK  Name = 
REMARK  5 active torsions:
REMARK  status: ('A' for Active; 'I' for Inactive)
REMARK    1  A    between atoms: C_2  and  O_3
REMARK    2  A    between atoms: C_2  and  C_4
REMARK    3  A    between atoms: C_7  and  C_8
REMARK    4  A    between atoms: C_9  and  C_10
REMARK    5  A    between atoms: C_16  and  C_17
REMARK                            x       y       z     vdW  Elec       q    Type
REMARK                         _______ _______ _______ _____ _____    ______ ____
ROOT
ATOM      1  C   UNL     1       9.302  10.927  18.288  0.00  0.00    +0.000 A 
ATOM      2  C   UNL     1      10.678  10.944  18.040  0.00  0.00    +0.000 A 
ATOM      3  C   UNL     1      11.376  12.144  17.830  0.00  0.00    +0.000 A 
ATOM      4  C   UNL     1      10.633  13.327  17.871  0.00  0.00    +0.000 A 
ATOM      5  N   UNL     1      10.987  14.634  17.698  0.00  0.00    +0.000 N 
ATOM      6  N   UNL     1       9.969  15.504  17.789  0.00  0.00    +0.000 NA
ATOM      7  C   UNL     1       8.899  14.737  18.063  0.00  0.00    +0.000 A 
ATOM      8  C   UNL     1       9.265  13.355  18.104  0.00  0.00    +0.000 A 
ATOM      9  C   UNL     1       8.590  12.135  18.295  0.00  0.00    +0.000 A 
ATOM     10  H   UNL     1      11.912  15.001  17.505  0.00  0.00    +0.000 HD
ENDROOT
BRANCH   7  11
ATOM     11  C   UNL     1       7.572  15.325  18.267  0.00  0.00    +0.000 A 
ATOM     12  C   UNL     1       7.437  16.535  18.965  0.00  0.00    +0.000 A 
ATOM     13  C   UNL     1       6.175  17.101  19.162  0.00  0.00    +0.000 A 
ATOM     14  C   UNL     1       5.049  16.462  18.661  0.00  0.00    +0.000 A 
ATOM     15  F   UNL     1       3.840  17.003  18.852  0.00  0.00    +0.000 F 
ATOM     16  C   UNL     1       5.157  15.262  17.967  0.00  0.00    +0.000 A 
ATOM     17  C   UNL     1       6.417  14.693  17.781  0.00  0.00    +0.000 A 
ENDBRANCH   7  11
BRANCH   1  19
ATOM     18  C   UNL     1       8.116   8.905  17.465  0.00  0.00    +0.000 C 
ATOM     19  C   UNL     1       8.609   9.645  18.474  0.00  0.00    +0.000 C 
BRANCH  18  23
ATOM     20  C   UNL     1       6.083   5.243  17.969  0.00  0.00    +0.000 A 
ATOM     21  C   UNL     1       7.202   5.504  18.761  0.00  0.00    +0.000 A 
ATOM     22  C   UNL     1       7.885   6.711  18.605  0.00  0.00    +0.000 A 
ATOM     23  C   UNL     1       7.430   7.621  17.655  0.00  0.00    +0.000 A 
ATOM     24  N   UNL     1       6.345   7.383  16.880  0.00  0.00    +0.000 NA
ATOM     25  C   UNL     1       5.687   6.216  17.064  0.00  0.00    +0.000 A 
BRANCH  20  27
ATOM     26  O   UNL     1       4.493   3.609  17.354  0.00  0.00    +0.000 OA
ATOM     27  C   UNL     1       5.322   3.997  18.162  0.00  0.00    +0.000 C 
BRANCH  27  28
ATOM     28  O   UNL     1       5.591   3.349  19.312  0.00  0.00    +0.000 OA
ATOM     29  H   UNL     1       5.175   3.700  20.121  0.00  0.00    +0.000 HD
ENDBRANCH  27  28
ENDBRANCH  20  27
ENDBRANCH  18  23
ENDBRANCH   1  19
TORSDOF 5
ENDMDL
MODEL 6
REMARK VINA RESULT:      -8.4      1.801      1.995
REMARK  Name = 
REMARK  5 active torsions:
REMARK  status: ('A' for Active; 'I' for Inactive)
REMARK    1  A    between atoms: C_2  and  O_3
REMARK    2  A    between atoms: C_2  and  C_4
REMARK    3  A    between atoms: C_7  and  C_8
REMARK    4  A    between atoms: C_9  and  C_10
REMARK    5  A    between atoms: C_16  and  C_17
REMARK                            x       y       z     vdW  Elec       q    Type
REMARK                         _______ _______ _______ _____ _____    ______ ____
ROOT
ATOM      1  C   UNL     1       2.091   6.067  20.083  0.00  0.00    +0.000 A 
ATOM      2  C   UNL     1       1.407   5.102  20.830  0.00  0.00    +0.000 A 
ATOM      3  C   UNL     1       1.634   3.728  20.646  0.00  0.00    +0.000 A 
ATOM      4  C   UNL     1       2.570   3.363  19.674  0.00  0.00    +0.000 A 
ATOM      5  N   UNL     1       3.008   2.145  19.242  0.00  0.00    +0.000 N 
ATOM      6  N   UNL     1       3.916   2.198  18.254  0.00  0.00    +0.000 NA
ATOM      7  C   UNL     1       4.105   3.513  18.046  0.00  0.00    +0.000 A 
ATOM      8  C   UNL     1       3.263   4.287  18.905  0.00  0.00    +0.000 A 
ATOM      9  C   UNL     1       3.003   5.656  19.100  0.00  0.00    +0.000 A 
ATOM     10  H   UNL     1       2.719   1.232  19.574  0.00  0.00    +0.000 HD
ENDROOT
BRANCH   7  11
ATOM     11  C   UNL     1       5.060   3.996  17.045  0.00  0.00    +0.000 A 
ATOM     12  C   UNL     1       6.322   4.466  17.443  0.00  0.00    +0.000 A 
ATOM     13  C   UNL     1       7.237   4.927  16.494  0.00  0.00    +0.000 A 
ATOM     14  C   UNL     1       6.896   4.915  15.148  0.00  0.00    +0.000 A 
ATOM     15  F   UNL     1       7.773   5.359  14.239  0.00  0.00    +0.000 F 
ATOM     16  C   UNL     1       5.653   4.456  14.729  0.00  0.00    +0.000 A 
ATOM     17  C   UNL     1       4.736   4.007  15.679  0.00  0.00    +0.000 A 
ENDBRANCH   7  11
BRANCH   1  19
ATOM     18  C   UNL     1       0.779   7.950  21.037  0.00  0.00    +0.000 C 
ATOM     19  C   UNL     1       1.800   7.492  20.290  0.00  0.00    +0.000 C 
BRANCH  18  23
ATOM     20  C   UNL     1       0.023  12.063  21.582  0.00  0.00    +0.000 A 
ATOM     21  C   UNL     1      -0.480  11.158  22.518  0.00  0.00    +0.000 A 
ATOM     22  C   UNL     1      -0.239   9.794  22.350  0.00  0.00    +0.000 A 
ATOM     23  C   UNL     1       0.497   9.374  21.246  0.00  0.00    +0.000 A 
ATOM     24  N   UNL     1       0.993  10.240  20.329  0.00  0.00    +0.000 NA
ATOM     25  C   UNL     1       0.764  11.558  20.525  0.00  0.00    +0.000 A 
BRANCH  20  27
ATOM     26  O   UNL     1      -1.228  14.064  21.489  0.00  0.00    +0.000 OA
ATOM     27  C   UNL     1      -0.179  13.509  21.777  0.00  0.00    +0.000 C 
BRANCH  27  28
ATOM     28  O   UNL     1       0.893  14.164  22.263  0.00  0.00    +0.000 OA
ATOM     29  H   UNL     1       0.761  15.099  22.509  0.00  0.00    +0.000 HD
ENDBRANCH  27  28
ENDBRANCH  20  27
ENDBRANCH  18  23
ENDBRANCH   1  19
TORSDOF 5
ENDMDL
MODEL 7
REMARK VINA RESULT:      -8.4      1.754      2.195
REMARK  Name = 
REMARK  5 active torsions:
REMARK  status: ('A' for Active; 'I' for Inactive)
REMARK    1  A    between atoms: C_2  and  O_3
REMARK    2  A    between atoms: C_2  and  C_4
REMARK    3  A    between atoms: C_7  and  C_8
REMARK    4  A    between atoms: C_9  and  C_10
REMARK    5  A    between atoms: C_16  and  C_17
REMARK                            x       y       z     vdW  Elec       q    Type
REMARK                         _______ _______ _______ _____ _____    ______ ____
ROOT
ATOM      1  C   UNL     1       2.024   5.993  20.082  0.00  0.00    +0.000 A 
ATOM      2  C   UNL     1       1.335   5.011  20.801  0.00  0.00    +0.000 A 
ATOM      3  C   UNL     1       1.570   3.642  20.594  0.00  0.00    +0.000 A 
ATOM      4  C   UNL     1       2.520   3.300  19.628  0.00  0.00    +0.000 A 
ATOM      5  N   UNL     1       2.970   2.092  19.178  0.00  0.00    +0.000 N 
ATOM      6  N   UNL     1       3.890   2.168  18.203  0.00  0.00    +0.000 NA
ATOM      7  C   UNL     1       4.076   3.488  18.023  0.00  0.00    +0.000 A 
ATOM      8  C   UNL     1       3.219   4.241  18.885  0.00  0.00    +0.000 A 
ATOM      9  C   UNL     1       2.950   5.605  19.104  0.00  0.00    +0.000 A 
ATOM     10  H   UNL     1       2.681   1.172  19.489  0.00  0.00    +0.000 HD
ENDROOT
BRANCH   7  11
ATOM     11  C   UNL     1       5.043   3.994  17.045  0.00  0.00    +0.000 A 
ATOM     12  C   UNL     1       4.766   3.911  15.671  0.00  0.00    +0.000 A 
ATOM     13  C   UNL     1       5.684   4.393  14.734  0.00  0.00    +0.000 A 
ATOM     14  C   UNL     1       6.875   4.960  15.168  0.00  0.00    +0.000 A 
ATOM     15  F   UNL     1       7.755   5.419  14.269  0.00  0.00    +0.000 F 
ATOM     16  C   UNL     1       7.171   5.053  16.522  0.00  0.00    +0.000 A 
ATOM     17  C   UNL     1       6.260   4.561  17.456  0.00  0.00    +0.000 A 
ENDBRANCH   7  11
BRANCH   1  19
ATOM     18  C   UNL     1       0.763   7.852  21.145  0.00  0.00    +0.000 C 
ATOM     19  C   UNL     1       1.723   7.413  20.312  0.00  0.00    +0.000 C 
BRANCH  18  23
ATOM     20  C   UNL     1      -0.015  11.952  21.760  0.00  0.00    +0.000 A 
ATOM     21  C   UNL     1      -0.596  11.021  22.623  0.00  0.00    +0.000 A 
ATOM     22  C   UNL     1      -0.349   9.661  22.431  0.00  0.00    +0.000 A 
ATOM     23  C   UNL     1       0.471   9.271  21.377  0.00  0.00    +0.000 A 
ATOM     24  N   UNL     1       1.043  10.162  20.531  0.00  0.00    +0.000 NA
ATOM     25  C   UNL     1       0.806  11.475  20.750  0.00  0.00    +0.000 A 
BRANCH  20  27
ATOM     26  O   UNL     1       0.679  14.134  22.337  0.00  0.00    +0.000 OA
ATOM     27  C   UNL     1      -0.225  13.392  21.985  0.00  0.00    +0.000 C 
BRANCH  27  28
ATOM     28  O   UNL     1      -1.493  13.808  21.807  0.00  0.00    +0.000 OA
ATOM     29  H   UNL     1      -1.982  14.079  22.606  0.00  0.00    +0.000 HD
ENDBRANCH  27  28
ENDBRANCH  20  27
ENDBRANCH  18  23
ENDBRANCH   1  19
TORSDOF 5
ENDMDL
MODEL 8
REMARK VINA RESULT:      -8.4      2.702      3.263
REMARK  Name = 
REMARK  5 active torsions:
REMARK  status: ('A' for Active; 'I' for Inactive)
REMARK    1  A    between atoms: C_2  and  O_3
REMARK    2  A    between atoms: C_2  and  C_4
REMARK    3  A    between atoms: C_7  and  C_8
REMARK    4  A    between atoms: C_9  and  C_10
REMARK    5  A    between atoms: C_16  and  C_17
REMARK                            x       y       z     vdW  Elec       q    Type
REMARK                         _______ _______ _______ _____ _____    ______ ____
ROOT
ATOM      1  C   UNL     1       2.185   6.562  19.914  0.00  0.00    +0.000 A 
ATOM      2  C   UNL     1       1.569   5.703  20.831  0.00  0.00    +0.000 A 
ATOM      3  C   UNL     1       1.859   4.330  20.865  0.00  0.00    +0.000 A 
ATOM      4  C   UNL     1       2.788   3.853  19.936  0.00  0.00    +0.000 A 
ATOM      5  N   UNL     1       3.275   2.601  19.694  0.00  0.00    +0.000 N 
ATOM      6  N   UNL     1       4.155   2.532  18.681  0.00  0.00    +0.000 NA
ATOM      7  C   UNL     1       4.272   3.802  18.256  0.00  0.00    +0.000 A 
ATOM      8  C   UNL     1       3.415   4.668  19.004  0.00  0.00    +0.000 A 
ATOM      9  C   UNL     1       3.091   6.037  18.983  0.00  0.00    +0.000 A 
ATOM     10  H   UNL     1       3.041   1.743  20.180  0.00  0.00    +0.000 HD
ENDROOT
BRANCH   7  11
ATOM     11  C   UNL     1       5.178   4.157  17.160  0.00  0.00    +0.000 A 
ATOM     12  C   UNL     1       4.728   4.117  15.831  0.00  0.00    +0.000 A 
ATOM     13  C   UNL     1       5.586   4.455  14.782  0.00  0.00    +0.000 A 
ATOM     14  C   UNL     1       6.893   4.836  15.059  0.00  0.00    +0.000 A 
ATOM     15  F   UNL     1       7.716   5.158  14.053  0.00  0.00    +0.000 F 
ATOM     16  C   UNL     1       7.362   4.883  16.366  0.00  0.00    +0.000 A 
ATOM     17  C   UNL     1       6.507   4.534  17.411  0.00  0.00    +0.000 A 
ENDBRANCH   7  11
BRANCH   1  19
ATOM     18  C   UNL     1       1.669   8.707  18.771  0.00  0.00    +0.000 C 
ATOM     19  C   UNL     1       1.828   7.988  19.896  0.00  0.00    +0.000 C 
BRANCH  18  23
ATOM     20  C   UNL     1       0.703  12.813  18.719  0.00  0.00    +0.000 A 
ATOM     21  C   UNL     1      -0.245  11.906  19.196  0.00  0.00    +0.000 A 
ATOM     22  C   UNL     1       0.060  10.544  19.219  0.00  0.00    +0.000 A 
ATOM     23  C   UNL     1       1.306  10.129  18.757  0.00  0.00    +0.000 A 
ATOM     24  N   UNL     1       2.237  10.997  18.292  0.00  0.00    +0.000 NA
ATOM     25  C   UNL     1       1.925  12.313  18.300  0.00  0.00    +0.000 A 
BRANCH  20  27
ATOM     26  O   UNL     1       1.298  15.099  18.722  0.00  0.00    +0.000 OA
ATOM     27  C   UNL     1       0.413  14.256  18.742  0.00  0.00    +0.000 C 
BRANCH  27  28
ATOM     28  O   UNL     1      -0.896  14.564  18.821  0.00  0.00    +0.000 OA
ATOM     29  H   UNL     1      -1.499  14.068  18.236  0.00  0.00    +0.000 HD
ENDBRANCH  27  28
ENDBRANCH  20  27
ENDBRANCH  18  23
ENDBRANCH   1  19
TORSDOF 5
ENDMDL
MODEL 9
REMARK VINA RESULT:      -8.3      2.299      2.848
REMARK  Name = 
REMARK  5 active torsions:
REMARK  status: ('A' for Active; 'I' for Inactive)
REMARK    1  A    between atoms: C_2  and  O_3
REMARK    2  A    between atoms: C_2  and  C_4
REMARK    3  A    between atoms: C_7  and  C_8
REMARK    4  A    between atoms: C_9  and  C_10
REMARK    5  A    between atoms: C_16  and  C_17
REMARK                            x       y       z     vdW  Elec       q    Type
REMARK                         _______ _______ _______ _____ _____    ______ ____
ROOT
ATOM      1  C   UNL     1       2.218   6.831  19.747  0.00  0.00    +0.000 A 
ATOM      2  C   UNL     1       1.670   6.062  20.779  0.00  0.00    +0.000 A 
ATOM      3  C   UNL     1       2.034   4.720  20.974  0.00  0.00    +0.000 A 
ATOM      4  C   UNL     1       2.966   4.180  20.083  0.00  0.00    +0.000 A 
ATOM      5  N   UNL     1       3.515   2.934  19.983  0.00  0.00    +0.000 N 
ATOM      6  N   UNL     1       4.374   2.785  18.961  0.00  0.00    +0.000 NA
ATOM      7  C   UNL     1       4.414   3.997  18.380  0.00  0.00    +0.000 A 
ATOM      8  C   UNL     1       3.527   4.904  19.041  0.00  0.00    +0.000 A 
ATOM      9  C   UNL     1       3.130   6.241  18.861  0.00  0.00    +0.000 A 
ATOM     10  H   UNL     1       3.339   2.132  20.577  0.00  0.00    +0.000 HD
ENDROOT
BRANCH   7  11
ATOM     11  C   UNL     1       5.274   4.258  17.223  0.00  0.00    +0.000 A 
ATOM     12  C   UNL     1       4.765   4.133  15.921  0.00  0.00    +0.000 A 
ATOM     13  C   UNL     1       5.580   4.381  14.815  0.00  0.00    +0.000 A 
ATOM     14  C   UNL     1       6.902   4.760  15.007  0.00  0.00    +0.000 A 
ATOM     15  F   UNL     1       7.684   4.996  13.946  0.00  0.00    +0.000 F 
ATOM     16  C   UNL     1       7.430   4.891  16.285  0.00  0.00    +0.000 A 
ATOM     17  C   UNL     1       6.618   4.630  17.389  0.00  0.00    +0.000 A 
ENDBRANCH   7  11
BRANCH   1  19
ATOM     18  C   UNL     1       1.109   8.927  20.490  0.00  0.00    +0.000 C 
ATOM     19  C   UNL     1       1.784   8.223  19.564  0.00  0.00    +0.000 C 
BRANCH  18  23
ATOM     20  C   UNL     1      -0.109  12.941  20.038  0.00  0.00    +0.000 A 
ATOM     21  C   UNL     1      -0.233  12.075  18.951  0.00  0.00    +0.000 A 
ATOM     22  C   UNL     1       0.166  10.744  19.085  0.00  0.00    +0.000 A 
ATOM     23  C   UNL     1       0.684  10.320  20.305  0.00  0.00    +0.000 A 
ATOM     24  N   UNL     1       0.811  11.148  21.370  0.00  0.00    +0.000 NA
ATOM     25  C   UNL     1       0.397  12.427  21.221  0.00  0.00    +0.000 A 
BRANCH  20  27
ATOM     26  O   UNL     1      -0.865  15.004  20.904  0.00  0.00    +0.000 OA
ATOM     27  C   UNL     1      -0.577  14.332  19.925  0.00  0.00    +0.000 C 
BRANCH  27  28
ATOM     28  O   UNL     1      -0.692  14.784  18.661  0.00  0.00    +0.000 OA
ATOM     29  H   UNL     1      -0.391  14.185  17.953  0.00  0.00    +0.000 HD
ENDBRANCH  27  28
ENDBRANCH  20  27
ENDBRANCH  18  23
ENDBRANCH   1  19
TORSDOF 5
ENDMDL
