MODEL 1
REMARK VINA RESULT:      -7.4      0.000      0.000
REMARK  Name = 
REMARK  16 active torsions:
REMARK  status: ('A' for Active; 'I' for Inactive)
REMARK    1  A    between atoms: C_1  and  C_2
REMARK    2  A    between atoms: C_3  and  C_4
REMARK    3  A    between atoms: C_4  and  C_5
REMARK    4  A    between atoms: C_5  and  C_6
REMARK    5  A    between atoms: C_5  and  C_7
REMARK    6  A    between atoms: C_7  and  O_8
REMARK    7  A    between atoms: C_7  and  C_10
REMARK    8  A    between atoms: O_8  and  C_9
REMARK    9  A    between atoms: C_10  and  C_11
REMARK   10  A    between atoms: C_10  and  C_12
REMARK   11  A    between atoms: C_12  and  O_13
REMARK   12  A    between atoms: C_12  and  C_14
REMARK   13  A    between atoms: C_14  and  C_15
REMARK   14  A    between atoms: C_19  and  C_20
REMARK   15  A    between atoms: C_22  and  C_23
REMARK   16  A    between atoms: C_23  and  C_24
REMARK                            x       y       z     vdW  Elec       q    Type
REMARK                         _______ _______ _______ _____ _____    ______ ____
ROOT
ATOM      1  C   UNL     1       3.470   2.710  17.894  0.00  0.00    +0.000 C 
ENDROOT
BRANCH   1   2
ATOM      2  C   UNL     1       2.263   3.492  18.493  0.00  0.00    +0.000 C 
ATOM      3  C   UNL     1       0.979   2.664  18.575  0.00  0.00    +0.000 C 
BRANCH   2   4
ATOM      4  C   UNL     1       2.574   4.225  19.868  0.00  0.00    +0.000 C 
BRANCH   4   5
ATOM      5  C   UNL     1       2.517   5.794  19.852  0.00  0.00    +0.000 C 
ATOM      6  C   UNL     1       2.238   6.390  18.462  0.00  0.00    +0.000 C 
BRANCH   5   7
ATOM      7  C   UNL     1       1.466   6.406  20.815  0.00  0.00    +0.000 C 
BRANCH   7  10
ATOM      8  C   UNL     1       0.265  10.099  21.186  0.00  0.00    +0.000 C 
ATOM      9  C   UNL     1       0.364   8.608  21.269  0.00  0.00    +0.000 C 
ATOM     10  C   UNL     1       1.445   7.907  20.896  0.00  0.00    +0.000 C 
ENDBRANCH   7  10
ENDBRANCH   5   7
ENDBRANCH   4   5
BRANCH   4  11
ATOM     11  O   UNL     1       1.650   3.673  20.822  0.00  0.00    +0.000 OA
ATOM     12  C   UNL     1       2.212   2.861  21.842  0.00  0.00    +0.000 C 
ENDBRANCH   4  11
ENDBRANCH   2   4
ENDBRANCH   1   2
BRANCH   1  13
ATOM     13  O   UNL     1       4.290   2.187  18.933  0.00  0.00    +0.000 OA
ATOM     14  H   UNL     1       3.708   2.017  19.703  0.00  0.00    +0.000 HD
ENDBRANCH   1  13
BRANCH   1  15
ATOM     15  C   UNL     1       4.373   3.438  16.876  0.00  0.00    +0.000 C 
BRANCH  15  16
ATOM     16  C   UNL     1       4.887   4.852  17.231  0.00  0.00    +0.000 C 
ATOM     17  O   UNL     1       5.603   4.751  18.484  0.00  0.00    +0.000 OA
ATOM     18  C   UNL     1       6.588   5.578  18.883  0.00  0.00    +0.000 C 
ATOM     19  O   UNL     1       7.066   5.516  20.008  0.00  0.00    +0.000 OA
ATOM     20  C   UNL     1       7.076   6.560  17.890  0.00  0.00    +0.000 C 
ATOM     21  C   UNL     1       8.270   7.385  18.288  0.00  0.00    +0.000 C 
ATOM     22  C   UNL     1       6.623   6.569  16.629  0.00  0.00    +0.000 C 
ATOM     23  C   UNL     1       5.750   5.470  16.101  0.00  0.00    +0.000 C 
BRANCH  23  24
ATOM     24  C   UNL     1       6.656   4.504  15.292  0.00  0.00    +0.000 C 
ATOM     25  C   UNL     1       6.154   4.099  13.906  0.00  0.00    +0.000 C 
ENDBRANCH  23  24
ENDBRANCH  15  16
ENDBRANCH   1  15
TORSDOF 10
ENDMDL
MODEL 2
REMARK VINA RESULT:      -7.2      1.999      6.192
REMARK  Name = 
REMARK  16 active torsions:
REMARK  status: ('A' for Active; 'I' for Inactive)
REMARK    1  A    between atoms: C_1  and  C_2
REMARK    2  A    between atoms: C_3  and  C_4
REMARK    3  A    between atoms: C_4  and  C_5
REMARK    4  A    between atoms: C_5  and  C_6
REMARK    5  A    between atoms: C_5  and  C_7
REMARK    6  A    between atoms: C_7  and  O_8
REMARK    7  A    between atoms: C_7  and  C_10
REMARK    8  A    between atoms: O_8  and  C_9
REMARK    9  A    between atoms: C_10  and  C_11
REMARK   10  A    between atoms: C_10  and  C_12
REMARK   11  A    between atoms: C_12  and  O_13
REMARK   12  A    between atoms: C_12  and  C_14
REMARK   13  A    between atoms: C_14  and  C_15
REMARK   14  A    between atoms: C_19  and  C_20
REMARK   15  A    between atoms: C_22  and  C_23
REMARK   16  A    between atoms: C_23  and  C_24
REMARK                            x       y       z     vdW  Elec       q    Type
REMARK                         _______ _______ _______ _____ _____    ______ ____
ROOT
ATOM      1  C   UNL     1       4.883   4.283  16.773  0.00  0.00    +0.000 C 
ENDROOT
BRANCH   1   2
ATOM      2  C   UNL     1       5.395   5.626  16.172  0.00  0.00    +0.000 C 
ATOM      3  C   UNL     1       4.481   6.817  16.472  0.00  0.00    +0.000 C 
BRANCH   2   4
ATOM      4  C   UNL     1       6.913   5.957  16.506  0.00  0.00    +0.000 C 
BRANCH   4   5
ATOM      5  C   UNL     1       7.355   5.775  18.001  0.00  0.00    +0.000 C 
ATOM      6  C   UNL     1       8.202   4.515  18.249  0.00  0.00    +0.000 C 
BRANCH   5   7
ATOM      7  C   UNL     1       8.158   6.969  18.581  0.00  0.00    +0.000 C 
BRANCH   7  10
ATOM      8  C   UNL     1       8.264  10.771  17.712  0.00  0.00    +0.000 C 
ATOM      9  C   UNL     1       8.570   9.421  18.281  0.00  0.00    +0.000 C 
ATOM     10  C   UNL     1       7.974   8.286  17.881  0.00  0.00    +0.000 C 
ENDBRANCH   7  10
ENDBRANCH   5   7
ENDBRANCH   4   5
BRANCH   4  11
ATOM     11  O   UNL     1       7.695   5.137  15.620  0.00  0.00    +0.000 OA
ATOM     12  C   UNL     1       7.335   5.176  14.248  0.00  0.00    +0.000 C 
ENDBRANCH   4  11
ENDBRANCH   2   4
ENDBRANCH   1   2
BRANCH   1  13
ATOM     13  O   UNL     1       5.698   3.201  16.339  0.00  0.00    +0.000 OA
ATOM     14  H   UNL     1       5.200   2.727  15.640  0.00  0.00    +0.000 HD
ENDBRANCH   1  13
BRANCH   1  15
ATOM     15  C   UNL     1       3.403   3.906  16.548  0.00  0.00    +0.000 C 
BRANCH  15  16
ATOM     16  C   UNL     1       2.661   3.147  17.671  0.00  0.00    +0.000 C 
ATOM     17  O   UNL     1       3.651   2.730  18.641  0.00  0.00    +0.000 OA
ATOM     18  C   UNL     1       3.411   2.504  19.946  0.00  0.00    +0.000 C 
ATOM     19  O   UNL     1       4.264   2.030  20.686  0.00  0.00    +0.000 OA
ATOM     20  C   UNL     1       2.068   2.867  20.449  0.00  0.00    +0.000 C 
ATOM     21  C   UNL     1       1.848   2.747  21.932  0.00  0.00    +0.000 C 
ATOM     22  C   UNL     1       1.165   3.472  19.666  0.00  0.00    +0.000 C 
ATOM     23  C   UNL     1       1.526   3.991  18.307  0.00  0.00    +0.000 C 
BRANCH  23  24
ATOM     24  C   UNL     1       1.768   5.518  18.441  0.00  0.00    +0.000 C 
ATOM     25  C   UNL     1       2.252   6.014  19.804  0.00  0.00    +0.000 C 
ENDBRANCH  23  24
ENDBRANCH  15  16
ENDBRANCH   1  15
TORSDOF 10
ENDMDL
MODEL 3
REMARK VINA RESULT:      -6.7      2.196      7.100
REMARK  Name = 
REMARK  16 active torsions:
REMARK  status: ('A' for Active; 'I' for Inactive)
REMARK    1  A    between atoms: C_1  and  C_2
REMARK    2  A    between atoms: C_3  and  C_4
REMARK    3  A    between atoms: C_4  and  C_5
REMARK    4  A    between atoms: C_5  and  C_6
REMARK    5  A    between atoms: C_5  and  C_7
REMARK    6  A    between atoms: C_7  and  O_8
REMARK    7  A    between atoms: C_7  and  C_10
REMARK    8  A    between atoms: O_8  and  C_9
REMARK    9  A    between atoms: C_10  and  C_11
REMARK   10  A    between atoms: C_10  and  C_12
REMARK   11  A    between atoms: C_12  and  O_13
REMARK   12  A    between atoms: C_12  and  C_14
REMARK   13  A    between atoms: C_14  and  C_15
REMARK   14  A    between atoms: C_19  and  C_20
REMARK   15  A    between atoms: C_22  and  C_23
REMARK   16  A    between atoms: C_23  and  C_24
REMARK                            x       y       z     vdW  Elec       q    Type
REMARK                         _______ _______ _______ _____ _____    ______ ____
ROOT
ATOM      1  C   UNL     1       4.537   4.048  16.688  0.00  0.00    +0.000 C 
ENDROOT
BRANCH   1   2
ATOM      2  C   UNL     1       5.088   5.098  15.678  0.00  0.00    +0.000 C 
ATOM      3  C   UNL     1       4.969   6.542  16.172  0.00  0.00    +0.000 C 
BRANCH   2   4
ATOM      4  C   UNL     1       6.549   4.784  15.138  0.00  0.00    +0.000 C 
BRANCH   4   5
ATOM      5  C   UNL     1       6.773   4.952  13.593  0.00  0.00    +0.000 C 
ATOM      6  C   UNL     1       8.227   5.276  13.209  0.00  0.00    +0.000 C 
BRANCH   5   7
ATOM      7  C   UNL     1       6.356   3.720  12.748  0.00  0.00    +0.000 C 
BRANCH   7  10
ATOM      8  C   UNL     1       3.214   3.055  10.533  0.00  0.00    +0.000 C 
ATOM      9  C   UNL     1       4.539   2.929  11.216  0.00  0.00    +0.000 C 
ATOM     10  C   UNL     1       4.958   3.744  12.197  0.00  0.00    +0.000 C 
ENDBRANCH   7  10
ENDBRANCH   5   7
ENDBRANCH   4   5
BRANCH   4  11
ATOM     11  O   UNL     1       7.435   5.627  15.895  0.00  0.00    +0.000 OA
ATOM     12  C   UNL     1       7.719   5.208  17.220  0.00  0.00    +0.000 C 
ENDBRANCH   4  11
ENDBRANCH   2   4
ENDBRANCH   1   2
BRANCH   1  13
ATOM     13  O   UNL     1       5.306   2.852  16.634  0.00  0.00    +0.000 OA
ATOM     14  H   UNL     1       4.859   2.250  16.003  0.00  0.00    +0.000 HD
ENDBRANCH   1  13
BRANCH   1  15
ATOM     15  C   UNL     1       3.042   3.675  16.603  0.00  0.00    +0.000 C 
BRANCH  15  16
ATOM     16  C   UNL     1       2.362   3.079  17.856  0.00  0.00    +0.000 C 
ATOM     17  O   UNL     1       3.410   2.611  18.737  0.00  0.00    +0.000 OA
ATOM     18  C   UNL     1       3.305   2.497  20.074  0.00  0.00    +0.000 C 
ATOM     19  O   UNL     1       4.184   1.975  20.749  0.00  0.00    +0.000 OA
ATOM     20  C   UNL     1       2.078   3.043  20.696  0.00  0.00    +0.000 C 
ATOM     21  C   UNL     1       2.026   3.043  22.199  0.00  0.00    +0.000 C 
ATOM     22  C   UNL     1       1.158   3.699  19.975  0.00  0.00    +0.000 C 
ATOM     23  C   UNL     1       1.408   4.086  18.549  0.00  0.00    +0.000 C 
BRANCH  23  24
ATOM     24  C   UNL     1       1.828   5.580  18.539  0.00  0.00    +0.000 C 
ATOM     25  C   UNL     1       2.916   5.989  19.532  0.00  0.00    +0.000 C 
ENDBRANCH  23  24
ENDBRANCH  15  16
ENDBRANCH   1  15
TORSDOF 10
ENDMDL
MODEL 4
REMARK VINA RESULT:      -6.6      1.392      1.858
REMARK  Name = 
REMARK  16 active torsions:
REMARK  status: ('A' for Active; 'I' for Inactive)
REMARK    1  A    between atoms: C_1  and  C_2
REMARK    2  A    between atoms: C_3  and  C_4
REMARK    3  A    between atoms: C_4  and  C_5
REMARK    4  A    between atoms: C_5  and  C_6
REMARK    5  A    between atoms: C_5  and  C_7
REMARK    6  A    between atoms: C_7  and  O_8
REMARK    7  A    between atoms: C_7  and  C_10
REMARK    8  A    between atoms: O_8  and  C_9
REMARK    9  A    between atoms: C_10  and  C_11
REMARK   10  A    between atoms: C_10  and  C_12
REMARK   11  A    between atoms: C_12  and  O_13
REMARK   12  A    between atoms: C_12  and  C_14
REMARK   13  A    between atoms: C_14  and  C_15
REMARK   14  A    between atoms: C_19  and  C_20
REMARK   15  A    between atoms: C_22  and  C_23
REMARK   16  A    between atoms: C_23  and  C_24
REMARK                            x       y       z     vdW  Elec       q    Type
REMARK                         _______ _______ _______ _____ _____    ______ ____
ROOT
ATOM      1  C   UNL     1       3.127   2.722  18.470  0.00  0.00    +0.000 C 
ENDROOT
BRANCH   1   2
ATOM      2  C   UNL     1       3.295   2.542  20.008  0.00  0.00    +0.000 C 
ATOM      3  C   UNL     1       4.641   1.934  20.408  0.00  0.00    +0.000 C 
BRANCH   2   4
ATOM      4  C   UNL     1       2.967   3.843  20.860  0.00  0.00    +0.000 C 
BRANCH   4   5
ATOM      5  C   UNL     1       2.156   4.971  20.127  0.00  0.00    +0.000 C 
ATOM      6  C   UNL     1       0.633   4.856  20.305  0.00  0.00    +0.000 C 
BRANCH   5   7
ATOM      7  C   UNL     1       2.544   6.413  20.547  0.00  0.00    +0.000 C 
BRANCH   7  10
ATOM      8  C   UNL     1       2.055   8.938  17.613  0.00  0.00    +0.000 C 
ATOM      9  C   UNL     1       2.441   7.744  18.428  0.00  0.00    +0.000 C 
ATOM     10  C   UNL     1       2.009   7.517  19.678  0.00  0.00    +0.000 C 
ENDBRANCH   7  10
ENDBRANCH   5   7
ENDBRANCH   4   5
BRANCH   4  11
ATOM     11  O   UNL     1       2.280   3.378  22.034  0.00  0.00    +0.000 OA
ATOM     12  C   UNL     1       1.477   2.219  21.874  0.00  0.00    +0.000 C 
ENDBRANCH   4  11
ENDBRANCH   2   4
ENDBRANCH   1   2
BRANCH   1  13
ATOM     13  O   UNL     1       2.718   1.499  17.868  0.00  0.00    +0.000 OA
ATOM     14  H   UNL     1       3.260   1.380  17.060  0.00  0.00    +0.000 HD
ENDBRANCH   1  13
BRANCH   1  15
ATOM     15  C   UNL     1       4.320   3.288  17.671  0.00  0.00    +0.000 C 
BRANCH  15  16
ATOM     16  C   UNL     1       4.800   4.722  17.990  0.00  0.00    +0.000 C 
ATOM     17  O   UNL     1       6.046   4.611  18.718  0.00  0.00    +0.000 OA
ATOM     18  C   UNL     1       7.013   5.546  18.748  0.00  0.00    +0.000 C 
ATOM     19  O   UNL     1       7.986   5.446  19.484  0.00  0.00    +0.000 OA
ATOM     20  C   UNL     1       6.852   6.701  17.837  0.00  0.00    +0.000 C 
ATOM     21  C   UNL     1       7.999   7.671  17.767  0.00  0.00    +0.000 C 
ATOM     22  C   UNL     1       5.839   6.769  16.962  0.00  0.00    +0.000 C 
ATOM     23  C   UNL     1       4.932   5.600  16.719  0.00  0.00    +0.000 C 
BRANCH  23  24
ATOM     24  C   UNL     1       5.413   4.900  15.421  0.00  0.00    +0.000 C 
ATOM     25  C   UNL     1       6.915   4.640  15.304  0.00  0.00    +0.000 C 
ENDBRANCH  23  24
ENDBRANCH  15  16
ENDBRANCH   1  15
TORSDOF 10
ENDMDL
MODEL 5
REMARK VINA RESULT:      -6.6      1.260      1.573
REMARK  Name = 
REMARK  16 active torsions:
REMARK  status: ('A' for Active; 'I' for Inactive)
REMARK    1  A    between atoms: C_1  and  C_2
REMARK    2  A    between atoms: C_3  and  C_4
REMARK    3  A    between atoms: C_4  and  C_5
REMARK    4  A    between atoms: C_5  and  C_6
REMARK    5  A    between atoms: C_5  and  C_7
REMARK    6  A    between atoms: C_7  and  O_8
REMARK    7  A    between atoms: C_7  and  C_10
REMARK    8  A    between atoms: O_8  and  C_9
REMARK    9  A    between atoms: C_10  and  C_11
REMARK   10  A    between atoms: C_10  and  C_12
REMARK   11  A    between atoms: C_12  and  O_13
REMARK   12  A    between atoms: C_12  and  C_14
REMARK   13  A    between atoms: C_14  and  C_15
REMARK   14  A    between atoms: C_19  and  C_20
REMARK   15  A    between atoms: C_22  and  C_23
REMARK   16  A    between atoms: C_23  and  C_24
REMARK                            x       y       z     vdW  Elec       q    Type
REMARK                         _______ _______ _______ _____ _____    ______ ____
ROOT
ATOM      1  C   UNL     1       3.037   2.193  17.776  0.00  0.00    +0.000 C 
ENDROOT
BRANCH   1   2
ATOM      2  C   UNL     1       1.920   3.188  18.211  0.00  0.00    +0.000 C 
ATOM      3  C   UNL     1       0.545   2.535  18.364  0.00  0.00    +0.000 C 
BRANCH   2   4
ATOM      4  C   UNL     1       2.289   4.075  19.477  0.00  0.00    +0.000 C 
BRANCH   4   5
ATOM      5  C   UNL     1       1.762   5.554  19.470  0.00  0.00    +0.000 C 
ATOM      6  C   UNL     1       2.138   6.353  20.730  0.00  0.00    +0.000 C 
BRANCH   5   7
ATOM      7  C   UNL     1       2.234   6.396  18.256  0.00  0.00    +0.000 C 
BRANCH   7  10
ATOM      8  C   UNL     1       2.021  10.285  18.027  0.00  0.00    +0.000 C 
ATOM      9  C   UNL     1       1.716   8.824  17.924  0.00  0.00    +0.000 C 
ATOM     10  C   UNL     1       2.443   7.862  18.514  0.00  0.00    +0.000 C 
ENDBRANCH   7  10
ENDBRANCH   5   7
ENDBRANCH   4   5
BRANCH   4  11
ATOM     11  O   UNL     1       1.804   3.347  20.618  0.00  0.00    +0.000 OA
ATOM     12  C   UNL     1       2.791   2.815  21.488  0.00  0.00    +0.000 C 
ENDBRANCH   4  11
ENDBRANCH   2   4
ENDBRANCH   1   2
BRANCH   1  13
ATOM     13  O   UNL     1       3.264   1.224  18.793  0.00  0.00    +0.000 OA
ATOM     14  H   UNL     1       4.087   0.747  18.558  0.00  0.00    +0.000 HD
ENDBRANCH   1  13
BRANCH   1  15
ATOM     15  C   UNL     1       4.398   2.776  17.340  0.00  0.00    +0.000 C 
BRANCH  15  16
ATOM     16  C   UNL     1       4.713   4.246  17.695  0.00  0.00    +0.000 C 
ATOM     17  O   UNL     1       5.915   4.250  18.501  0.00  0.00    +0.000 OA
ATOM     18  C   UNL     1       6.781   5.276  18.596  0.00  0.00    +0.000 C 
ATOM     19  O   UNL     1       7.711   5.264  19.393  0.00  0.00    +0.000 OA
ATOM     20  C   UNL     1       6.564   6.419  17.681  0.00  0.00    +0.000 C 
ATOM     21  C   UNL     1       7.612   7.498  17.689  0.00  0.00    +0.000 C 
ATOM     22  C   UNL     1       5.607   6.396  16.744  0.00  0.00    +0.000 C 
ATOM     23  C   UNL     1       4.837   5.146  16.438  0.00  0.00    +0.000 C 
BRANCH  23  24
ATOM     24  C   UNL     1       5.467   4.511  15.170  0.00  0.00    +0.000 C 
ATOM     25  C   UNL     1       6.985   4.622  15.035  0.00  0.00    +0.000 C 
ENDBRANCH  23  24
ENDBRANCH  15  16
ENDBRANCH   1  15
TORSDOF 10
ENDMDL
MODEL 6
REMARK VINA RESULT:      -6.6      2.273      7.190
REMARK  Name = 
REMARK  16 active torsions:
REMARK  status: ('A' for Active; 'I' for Inactive)
REMARK    1  A    between atoms: C_1  and  C_2
REMARK    2  A    between atoms: C_3  and  C_4
REMARK    3  A    between atoms: C_4  and  C_5
REMARK    4  A    between atoms: C_5  and  C_6
REMARK    5  A    between atoms: C_5  and  C_7
REMARK    6  A    between atoms: C_7  and  O_8
REMARK    7  A    between atoms: C_7  and  C_10
REMARK    8  A    between atoms: O_8  and  C_9
REMARK    9  A    between atoms: C_10  and  C_11
REMARK   10  A    between atoms: C_10  and  C_12
REMARK   11  A    between atoms: C_12  and  O_13
REMARK   12  A    between atoms: C_12  and  C_14
REMARK   13  A    between atoms: C_14  and  C_15
REMARK   14  A    between atoms: C_19  and  C_20
REMARK   15  A    between atoms: C_22  and  C_23
REMARK   16  A    between atoms: C_23  and  C_24
REMARK                            x       y       z     vdW  Elec       q    Type
REMARK                         _______ _______ _______ _____ _____    ______ ____
ROOT
ATOM      1  C   UNL     1       4.567   4.371  17.273  0.00  0.00    +0.000 C 
ENDROOT
BRANCH   1   2
ATOM      2  C   UNL     1       4.979   5.016  15.916  0.00  0.00    +0.000 C 
ATOM      3  C   UNL     1       5.062   6.543  15.967  0.00  0.00    +0.000 C 
BRANCH   2   4
ATOM      4  C   UNL     1       6.278   4.382  15.257  0.00  0.00    +0.000 C 
BRANCH   4   5
ATOM      5  C   UNL     1       6.403   4.511  13.697  0.00  0.00    +0.000 C 
ATOM      6  C   UNL     1       7.687   5.219  13.234  0.00  0.00    +0.000 C 
BRANCH   5   7
ATOM      7  C   UNL     1       6.342   3.161  12.936  0.00  0.00    +0.000 C 
BRANCH   7  10
ATOM      8  C   UNL     1       3.301   3.530  10.520  0.00  0.00    +0.000 C 
ATOM      9  C   UNL     1       4.640   3.674  11.171  0.00  0.00    +0.000 C 
ATOM     10  C   UNL     1       5.075   2.893  12.173  0.00  0.00    +0.000 C 
ENDBRANCH   7  10
ENDBRANCH   5   7
ENDBRANCH   4   5
BRANCH   4  11
ATOM     11  O   UNL     1       7.393   4.991  15.928  0.00  0.00    +0.000 OA
ATOM     12  C   UNL     1       7.697   4.491  17.221  0.00  0.00    +0.000 C 
ENDBRANCH   4  11
ENDBRANCH   2   4
ENDBRANCH   1   2
BRANCH   1  13
ATOM     13  O   UNL     1       4.657   2.953  17.199  0.00  0.00    +0.000 OA
ATOM     14  H   UNL     1       4.830   2.723  16.262  0.00  0.00    +0.000 HD
ENDBRANCH   1  13
BRANCH   1  15
ATOM     15  C   UNL     1       3.191   4.745  17.866  0.00  0.00    +0.000 C 
BRANCH  15  16
ATOM     16  C   UNL     1       3.141   5.804  18.990  0.00  0.00    +0.000 C 
ATOM     17  O   UNL     1       2.601   7.019  18.418  0.00  0.00    +0.000 OA
ATOM     18  C   UNL     1       1.947   7.974  19.104  0.00  0.00    +0.000 C 
ATOM     19  O   UNL     1       1.626   9.036  18.586  0.00  0.00    +0.000 OA
ATOM     20  C   UNL     1       1.619   7.675  20.516  0.00  0.00    +0.000 C 
ATOM     21  C   UNL     1       0.766   8.681  21.239  0.00  0.00    +0.000 C 
ATOM     22  C   UNL     1       1.883   6.479  21.060  0.00  0.00    +0.000 C 
ATOM     23  C   UNL     1       2.338   5.320  20.225  0.00  0.00    +0.000 C 
BRANCH  23  24
ATOM     24  C   UNL     1       1.099   4.424  19.958  0.00  0.00    +0.000 C 
ATOM     25  C   UNL     1       1.128   3.023  20.569  0.00  0.00    +0.000 C 
ENDBRANCH  23  24
ENDBRANCH  15  16
ENDBRANCH   1  15
TORSDOF 10
ENDMDL
MODEL 7
REMARK VINA RESULT:      -6.5      1.638      2.823
REMARK  Name = 
REMARK  16 active torsions:
REMARK  status: ('A' for Active; 'I' for Inactive)
REMARK    1  A    between atoms: C_1  and  C_2
REMARK    2  A    between atoms: C_3  and  C_4
REMARK    3  A    between atoms: C_4  and  C_5
REMARK    4  A    between atoms: C_5  and  C_6
REMARK    5  A    between atoms: C_5  and  C_7
REMARK    6  A    between atoms: C_7  and  O_8
REMARK    7  A    between atoms: C_7  and  C_10
REMARK    8  A    between atoms: O_8  and  C_9
REMARK    9  A    between atoms: C_10  and  C_11
REMARK   10  A    between atoms: C_10  and  C_12
REMARK   11  A    between atoms: C_12  and  O_13
REMARK   12  A    between atoms: C_12  and  C_14
REMARK   13  A    between atoms: C_14  and  C_15
REMARK   14  A    between atoms: C_19  and  C_20
REMARK   15  A    between atoms: C_22  and  C_23
REMARK   16  A    between atoms: C_23  and  C_24
REMARK                            x       y       z     vdW  Elec       q    Type
REMARK                         _______ _______ _______ _____ _____    ______ ____
ROOT
ATOM      1  C   UNL     1       3.142   3.875  17.467  0.00  0.00    +0.000 C 
ENDROOT
BRANCH   1   2
ATOM      2  C   UNL     1       1.989   4.436  18.351  0.00  0.00    +0.000 C 
ATOM      3  C   UNL     1       0.818   3.465  18.516  0.00  0.00    +0.000 C 
BRANCH   2   4
ATOM      4  C   UNL     1       2.462   5.024  19.749  0.00  0.00    +0.000 C 
BRANCH   4   5
ATOM      5  C   UNL     1       2.515   6.589  19.867  0.00  0.00    +0.000 C 
ATOM      6  C   UNL     1       2.427   7.316  18.515  0.00  0.00    +0.000 C 
BRANCH   5   7
ATOM      7  C   UNL     1       1.412   7.200  20.771  0.00  0.00    +0.000 C 
BRANCH   7  10
ATOM      8  C   UNL     1       0.432  10.931  21.353  0.00  0.00    +0.000 C 
ATOM      9  C   UNL     1       0.904   9.525  21.551  0.00  0.00    +0.000 C 
ATOM     10  C   UNL     1       1.114   8.657  20.549  0.00  0.00    +0.000 C 
ENDBRANCH   7  10
ENDBRANCH   5   7
ENDBRANCH   4   5
BRANCH   4  11
ATOM     11  O   UNL     1       1.582   4.450  20.731  0.00  0.00    +0.000 OA
ATOM     12  C   UNL     1       2.176   3.557  21.660  0.00  0.00    +0.000 C 
ENDBRANCH   4  11
ENDBRANCH   2   4
ENDBRANCH   1   2
BRANCH   1  13
ATOM     13  O   UNL     1       3.078   2.455  17.407  0.00  0.00    +0.000 OA
ATOM     14  H   UNL     1       2.493   2.161  18.135  0.00  0.00    +0.000 HD
ENDBRANCH   1  13
BRANCH   1  15
ATOM     15  C   UNL     1       4.588   4.288  17.813  0.00  0.00    +0.000 C 
BRANCH  15  16
ATOM     16  C   UNL     1       5.699   4.009  16.776  0.00  0.00    +0.000 C 
ATOM     17  O   UNL     1       5.067   3.919  15.477  0.00  0.00    +0.000 OA
ATOM     18  C   UNL     1       5.670   4.180  14.302  0.00  0.00    +0.000 C 
ATOM     19  O   UNL     1       5.117   3.963  13.231  0.00  0.00    +0.000 OA
ATOM     20  C   UNL     1       7.032   4.756  14.364  0.00  0.00    +0.000 C 
ATOM     21  C   UNL     1       7.646   5.178  13.058  0.00  0.00    +0.000 C 
ATOM     22  C   UNL     1       7.602   5.083  15.531  0.00  0.00    +0.000 C 
ATOM     23  C   UNL     1       6.828   5.072  16.815  0.00  0.00    +0.000 C 
BRANCH  23  24
ATOM     24  C   UNL     1       6.413   6.535  17.121  0.00  0.00    +0.000 C 
ATOM     25  C   UNL     1       7.542   7.505  17.469  0.00  0.00    +0.000 C 
ENDBRANCH  23  24
ENDBRANCH  15  16
ENDBRANCH   1  15
TORSDOF 10
ENDMDL
MODEL 8
REMARK VINA RESULT:      -6.5      3.541      5.884
REMARK  Name = 
REMARK  16 active torsions:
REMARK  status: ('A' for Active; 'I' for Inactive)
REMARK    1  A    between atoms: C_1  and  C_2
REMARK    2  A    between atoms: C_3  and  C_4
REMARK    3  A    between atoms: C_4  and  C_5
REMARK    4  A    between atoms: C_5  and  C_6
REMARK    5  A    between atoms: C_5  and  C_7
REMARK    6  A    between atoms: C_7  and  O_8
REMARK    7  A    between atoms: C_7  and  C_10
REMARK    8  A    between atoms: O_8  and  C_9
REMARK    9  A    between atoms: C_10  and  C_11
REMARK   10  A    between atoms: C_10  and  C_12
REMARK   11  A    between atoms: C_12  and  O_13
REMARK   12  A    between atoms: C_12  and  C_14
REMARK   13  A    between atoms: C_14  and  C_15
REMARK   14  A    between atoms: C_19  and  C_20
REMARK   15  A    between atoms: C_22  and  C_23
REMARK   16  A    between atoms: C_23  and  C_24
REMARK                            x       y       z     vdW  Elec       q    Type
REMARK                         _______ _______ _______ _____ _____    ______ ____
ROOT
ATOM      1  C   UNL     1       2.001   8.845  18.746  0.00  0.00    +0.000 C 
ENDROOT
BRANCH   1   2
ATOM      2  C   UNL     1       0.776   9.378  19.547  0.00  0.00    +0.000 C 
ATOM      3  C   UNL     1       0.774   8.950  21.016  0.00  0.00    +0.000 C 
BRANCH   2   4
ATOM      4  C   UNL     1       0.520  10.938  19.393  0.00  0.00    +0.000 C 
BRANCH   4   5
ATOM      5  C   UNL     1      -0.951  11.375  19.062  0.00  0.00    +0.000 C 
ATOM      6  C   UNL     1      -1.041  12.611  18.150  0.00  0.00    +0.000 C 
BRANCH   5   7
ATOM      7  C   UNL     1      -1.812  10.270  18.395  0.00  0.00    +0.000 C 
BRANCH   7  10
ATOM      8  C   UNL     1      -3.000  10.182  14.680  0.00  0.00    +0.000 C 
ATOM      9  C   UNL     1      -2.534   9.788  16.046  0.00  0.00    +0.000 C 
ATOM     10  C   UNL     1      -2.449  10.635  17.084  0.00  0.00    +0.000 C 
ENDBRANCH   7  10
ENDBRANCH   5   7
ENDBRANCH   4   5
BRANCH   4  11
ATOM     11  O   UNL     1       0.984  11.533  20.617  0.00  0.00    +0.000 OA
ATOM     12  C   UNL     1       1.707  12.747  20.490  0.00  0.00    +0.000 C 
ENDBRANCH   4  11
ENDBRANCH   2   4
ENDBRANCH   1   2
BRANCH   1  13
ATOM     13  O   UNL     1       1.795   9.016  17.349  0.00  0.00    +0.000 OA
ATOM     14  H   UNL     1       1.604   8.130  16.974  0.00  0.00    +0.000 HD
ENDBRANCH   1  13
BRANCH   1  15
ATOM     15  C   UNL     1       2.459   7.393  19.002  0.00  0.00    +0.000 C 
BRANCH  15  16
ATOM     16  C   UNL     1       2.887   6.536  17.789  0.00  0.00    +0.000 C 
ATOM     17  O   UNL     1       4.148   7.059  17.311  0.00  0.00    +0.000 OA
ATOM     18  C   UNL     1       5.078   6.352  16.641  0.00  0.00    +0.000 C 
ATOM     19  O   UNL     1       6.066   6.885  16.153  0.00  0.00    +0.000 OA
ATOM     20  C   UNL     1       4.855   4.893  16.533  0.00  0.00    +0.000 C 
ATOM     21  C   UNL     1       5.961   4.086  15.911  0.00  0.00    +0.000 C 
ATOM     22  C   UNL     1       3.826   4.293  17.145  0.00  0.00    +0.000 C 
ATOM     23  C   UNL     1       2.962   5.024  18.129  0.00  0.00    +0.000 C 
BRANCH  23  24
ATOM     24  C   UNL     1       3.449   4.641  19.551  0.00  0.00    +0.000 C 
ATOM     25  C   UNL     1       4.284   3.366  19.665  0.00  0.00    +0.000 C 
ENDBRANCH  23  24
ENDBRANCH  15  16
ENDBRANCH   1  15
TORSDOF 10
ENDMDL
MODEL 9
REMARK VINA RESULT:      -6.4      3.434      5.854
REMARK  Name = 
REMARK  16 active torsions:
REMARK  status: ('A' for Active; 'I' for Inactive)
REMARK    1  A    between atoms: C_1  and  C_2
REMARK    2  A    between atoms: C_3  and  C_4
REMARK    3  A    between atoms: C_4  and  C_5
REMARK    4  A    between atoms: C_5  and  C_6
REMARK    5  A    between atoms: C_5  and  C_7
REMARK    6  A    between atoms: C_7  and  O_8
REMARK    7  A    between atoms: C_7  and  C_10
REMARK    8  A    between atoms: O_8  and  C_9
REMARK    9  A    between atoms: C_10  and  C_11
REMARK   10  A    between atoms: C_10  and  C_12
REMARK   11  A    between atoms: C_12  and  O_13
REMARK   12  A    between atoms: C_12  and  C_14
REMARK   13  A    between atoms: C_14  and  C_15
REMARK   14  A    between atoms: C_19  and  C_20
REMARK   15  A    between atoms: C_22  and  C_23
REMARK   16  A    between atoms: C_23  and  C_24
REMARK                            x       y       z     vdW  Elec       q    Type
REMARK                         _______ _______ _______ _____ _____    ______ ____
ROOT
ATOM      1  C   UNL     1       2.066   9.011  18.482  0.00  0.00    +0.000 C 
ENDROOT
BRANCH   1   2
ATOM      2  C   UNL     1       0.918   9.327  19.487  0.00  0.00    +0.000 C 
ATOM      3  C   UNL     1       1.092   8.646  20.846  0.00  0.00    +0.000 C 
BRANCH   2   4
ATOM      4  C   UNL     1       0.593  10.874  19.646  0.00  0.00    +0.000 C 
BRANCH   4   5
ATOM      5  C   UNL     1      -0.829  11.342  19.171  0.00  0.00    +0.000 C 
ATOM      6  C   UNL     1      -0.803  12.585  18.266  0.00  0.00    +0.000 C 
BRANCH   5   7
ATOM      7  C   UNL     1      -1.638  10.258  18.412  0.00  0.00    +0.000 C 
BRANCH   7  10
ATOM      8  C   UNL     1      -3.063  10.206  14.781  0.00  0.00    +0.000 C 
ATOM      9  C   UNL     1      -2.638   9.811  16.160  0.00  0.00    +0.000 C 
ATOM     10  C   UNL     1      -2.231  10.681  17.098  0.00  0.00    +0.000 C 
ENDBRANCH   7  10
ENDBRANCH   5   7
ENDBRANCH   4   5
BRANCH   4  11
ATOM     11  O   UNL     1       0.813  11.178  21.034  0.00  0.00    +0.000 OA
ATOM     12  C   UNL     1      -0.247  11.841  21.707  0.00  0.00    +0.000 C 
ENDBRANCH   4  11
ENDBRANCH   2   4
ENDBRANCH   1   2
BRANCH   1  13
ATOM     13  O   UNL     1       1.970   9.849  17.337  0.00  0.00    +0.000 OA
ATOM     14  H   UNL     1       2.198  10.758  17.623  0.00  0.00    +0.000 HD
ENDBRANCH   1  13
BRANCH   1  15
ATOM     15  C   UNL     1       2.235   7.551  18.010  0.00  0.00    +0.000 C 
BRANCH  15  16
ATOM     16  C   UNL     1       2.945   6.554  18.954  0.00  0.00    +0.000 C 
ATOM     17  O   UNL     1       2.040   5.446  19.175  0.00  0.00    +0.000 OA
ATOM     18  C   UNL     1       2.413   4.193  19.494  0.00  0.00    +0.000 C 
ATOM     19  O   UNL     1       1.595   3.332  19.792  0.00  0.00    +0.000 OA
ATOM     20  C   UNL     1       3.863   3.898  19.457  0.00  0.00    +0.000 C 
ATOM     21  C   UNL     1       4.266   2.466  19.674  0.00  0.00    +0.000 C 
ATOM     22  C   UNL     1       4.754   4.809  19.040  0.00  0.00    +0.000 C 
ATOM     23  C   UNL     1       4.321   6.097  18.406  0.00  0.00    +0.000 C 
BRANCH  23  24
ATOM     24  C   UNL     1       4.451   5.926  16.869  0.00  0.00    +0.000 C 
ATOM     25  C   UNL     1       5.421   4.849  16.383  0.00  0.00    +0.000 C 
ENDBRANCH  23  24
ENDBRANCH  15  16
ENDBRANCH   1  15
TORSDOF 10
ENDMDL
