MODEL 1
REMARK VINA RESULT:      -8.7      0.000      0.000
REMARK  Name = 
REMARK  6 active torsions:
REMARK  status: ('A' for Active; 'I' for Inactive)
REMARK    1  A    between atoms: C_1  and  C_2
REMARK    2  A    between atoms: C_7  and  N_8
REMARK    3  A    between atoms: C_9  and  S_10
REMARK    4  A    between atoms: S_10  and  C_11
REMARK    5  A    between atoms: C_11  and  C_12
REMARK    6  A    between atoms: N_22  and  C_23
REMARK                            x       y       z     vdW  Elec       q    Type
REMARK                         _______ _______ _______ _____ _____    ______ ____
ROOT
ATOM      1  N   UNL     1       3.759   4.393  18.232  0.00  0.00    +0.000 N 
ATOM      2  C   UNL     1       3.805   5.799  18.040  0.00  0.00    +0.000 A 
ATOM      3  N   UNL     1       4.480   6.427  17.119  0.00  0.00    +0.000 NA
ATOM      4  C   UNL     1       5.213   5.605  16.279  0.00  0.00    +0.000 A 
ATOM      5  N   UNL     1       5.968   6.056  15.283  0.00  0.00    +0.000 NA
ATOM      6  N   UNL     1       6.465   4.918  14.741  0.00  0.00    +0.000 N 
ATOM      7  C   UNL     1       7.317   4.960  13.578  0.00  0.00    +0.000 C 
ATOM      8  C   UNL     1       6.053   3.785  15.388  0.00  0.00    +0.000 A 
ATOM      9  C   UNL     1       5.220   4.225  16.388  0.00  0.00    +0.000 A 
ATOM     10  C   UNL     1       4.445   3.526  17.357  0.00  0.00    +0.000 A 
ATOM     11  O   UNL     1       4.385   2.302  17.343  0.00  0.00    +0.000 OA
ENDROOT
BRANCH   1  18
ATOM     12  C   UNL     1       0.890   3.888  17.591  0.00  0.00    +0.000 C 
ATOM     13  C   UNL     1       1.508   3.618  18.937  0.00  0.00    +0.000 A 
ATOM     14  C   UNL     1       0.667   3.213  19.988  0.00  0.00    +0.000 A 
ATOM     15  C   UNL     1       1.191   2.881  21.235  0.00  0.00    +0.000 A 
ATOM     16  C   UNL     1       2.565   2.941  21.449  0.00  0.00    +0.000 A 
ATOM     17  C   UNL     1       3.414   3.374  20.427  0.00  0.00    +0.000 A 
ATOM     18  C   UNL     1       2.900   3.732  19.171  0.00  0.00    +0.000 A 
ENDBRANCH   1  18
BRANCH   2  19
ATOM     19  S   UNL     1       2.918   6.811  19.198  0.00  0.00    +0.000 S 
BRANCH  19  20
ATOM     20  C   UNL     1       2.405   8.238  18.177  0.00  0.00    +0.000 C 
BRANCH  20  21
ATOM     21  C   UNL     1       1.362   9.073  18.898  0.00  0.00    +0.000 A 
ATOM     22  C   UNL     1       0.551   9.982  18.195  0.00  0.00    +0.000 A 
ATOM     23  C   UNL     1      -0.472  10.685  18.843  0.00  0.00    +0.000 A 
ATOM     24  C   UNL     1      -0.698  10.490  20.205  0.00  0.00    +0.000 A 
ATOM     25  C   UNL     1       0.117   9.614  20.909  0.00  0.00    +0.000 A 
ATOM     26  F   UNL     1      -0.091   9.432  22.219  0.00  0.00    +0.000 F 
ATOM     27  C   UNL     1       1.142   8.914  20.276  0.00  0.00    +0.000 A 
ENDBRANCH  20  21
ENDBRANCH  19  20
ENDBRANCH   2  19
TORSDOF 4
ENDMDL
MODEL 2
REMARK VINA RESULT:      -8.6      0.923      1.307
REMARK  Name = 
REMARK  6 active torsions:
REMARK  status: ('A' for Active; 'I' for Inactive)
REMARK    1  A    between atoms: C_1  and  C_2
REMARK    2  A    between atoms: C_7  and  N_8
REMARK    3  A    between atoms: C_9  and  S_10
REMARK    4  A    between atoms: S_10  and  C_11
REMARK    5  A    between atoms: C_11  and  C_12
REMARK    6  A    between atoms: N_22  and  C_23
REMARK                            x       y       z     vdW  Elec       q    Type
REMARK                         _______ _______ _______ _____ _____    ______ ____
ROOT
ATOM      1  N   UNL     1       3.767   4.397  18.240  0.00  0.00    +0.000 N 
ATOM      2  C   UNL     1       3.810   5.804  18.044  0.00  0.00    +0.000 A 
ATOM      3  N   UNL     1       4.481   6.430  17.120  0.00  0.00    +0.000 NA
ATOM      4  C   UNL     1       5.212   5.607  16.279  0.00  0.00    +0.000 A 
ATOM      5  N   UNL     1       5.963   6.057  15.278  0.00  0.00    +0.000 NA
ATOM      6  N   UNL     1       6.459   4.918  14.738  0.00  0.00    +0.000 N 
ATOM      7  C   UNL     1       7.306   4.958  13.571  0.00  0.00    +0.000 C 
ATOM      8  C   UNL     1       6.051   3.785  15.388  0.00  0.00    +0.000 A 
ATOM      9  C   UNL     1       5.220   4.228  16.390  0.00  0.00    +0.000 A 
ATOM     10  C   UNL     1       4.450   3.530  17.364  0.00  0.00    +0.000 A 
ATOM     11  O   UNL     1       4.391   2.305  17.352  0.00  0.00    +0.000 OA
ENDROOT
BRANCH   1  18
ATOM     12  C   UNL     1       0.891   3.904  17.617  0.00  0.00    +0.000 C 
ATOM     13  C   UNL     1       1.518   3.630  18.959  0.00  0.00    +0.000 A 
ATOM     14  C   UNL     1       0.682   3.225  20.014  0.00  0.00    +0.000 A 
ATOM     15  C   UNL     1       1.214   2.889  21.258  0.00  0.00    +0.000 A 
ATOM     16  C   UNL     1       2.589   2.943  21.461  0.00  0.00    +0.000 A 
ATOM     17  C   UNL     1       3.433   3.376  20.435  0.00  0.00    +0.000 A 
ATOM     18  C   UNL     1       2.912   3.738  19.183  0.00  0.00    +0.000 A 
ENDBRANCH   1  18
BRANCH   2  19
ATOM     19  S   UNL     1       2.926   6.817  19.204  0.00  0.00    +0.000 S 
BRANCH  19  20
ATOM     20  C   UNL     1       2.419   8.247  18.184  0.00  0.00    +0.000 C 
BRANCH  20  21
ATOM     21  C   UNL     1       1.314   9.034  18.867  0.00  0.00    +0.000 A 
ATOM     22  C   UNL     1       1.115   8.945  20.256  0.00  0.00    +0.000 A 
ATOM     23  C   UNL     1       0.157   9.738  20.899  0.00  0.00    +0.000 A 
ATOM     24  C   UNL     1      -0.620  10.629  20.160  0.00  0.00    +0.000 A 
ATOM     25  C   UNL     1      -0.447  10.700  18.785  0.00  0.00    +0.000 A 
ATOM     26  F   UNL     1      -1.198  11.548  18.071  0.00  0.00    +0.000 F 
ATOM     27  C   UNL     1       0.500   9.911  18.133  0.00  0.00    +0.000 A 
ENDBRANCH  20  21
ENDBRANCH  19  20
ENDBRANCH   2  19
TORSDOF 4
ENDMDL
MODEL 3
REMARK VINA RESULT:      -8.0      2.470      6.388
REMARK  Name = 
REMARK  6 active torsions:
REMARK  status: ('A' for Active; 'I' for Inactive)
REMARK    1  A    between atoms: C_1  and  C_2
REMARK    2  A    between atoms: C_7  and  N_8
REMARK    3  A    between atoms: C_9  and  S_10
REMARK    4  A    between atoms: S_10  and  C_11
REMARK    5  A    between atoms: C_11  and  C_12
REMARK    6  A    between atoms: N_22  and  C_23
REMARK                            x       y       z     vdW  Elec       q    Type
REMARK                         _______ _______ _______ _____ _____    ______ ____
ROOT
ATOM      1  N   UNL     1       4.647   6.025  17.583  0.00  0.00    +0.000 N 
ATOM      2  C   UNL     1       4.400   5.511  18.884  0.00  0.00    +0.000 A 
ATOM      3  N   UNL     1       3.548   5.985  19.748  0.00  0.00    +0.000 NA
ATOM      4  C   UNL     1       2.847   7.100  19.316  0.00  0.00    +0.000 A 
ATOM      5  N   UNL     1       1.938   7.729  20.053  0.00  0.00    +0.000 NA
ATOM      6  N   UNL     1       1.516   8.719  19.231  0.00  0.00    +0.000 N 
ATOM      7  C   UNL     1       0.472   9.628  19.639  0.00  0.00    +0.000 C 
ATOM      8  C   UNL     1       2.153   8.729  18.021  0.00  0.00    +0.000 A 
ATOM      9  C   UNL     1       3.016   7.660  18.062  0.00  0.00    +0.000 A 
ATOM     10  C   UNL     1       3.907   7.120  17.091  0.00  0.00    +0.000 A 
ATOM     11  O   UNL     1       3.939   7.573  15.952  0.00  0.00    +0.000 OA
ENDROOT
BRANCH   1  18
ATOM     12  C   UNL     1       7.532   6.753  17.369  0.00  0.00    +0.000 C 
ATOM     13  C   UNL     1       6.824   5.838  16.405  0.00  0.00    +0.000 A 
ATOM     14  C   UNL     1       7.528   5.388  15.275  0.00  0.00    +0.000 A 
ATOM     15  C   UNL     1       6.950   4.484  14.386  0.00  0.00    +0.000 A 
ATOM     16  C   UNL     1       5.663   4.009  14.619  0.00  0.00    +0.000 A 
ATOM     17  C   UNL     1       4.934   4.470  15.719  0.00  0.00    +0.000 A 
ATOM     18  C   UNL     1       5.494   5.397  16.612  0.00  0.00    +0.000 A 
ENDBRANCH   1  18
BRANCH   2  19
ATOM     19  S   UNL     1       5.388   4.137  19.420  0.00  0.00    +0.000 S 
BRANCH  19  20
ATOM     20  C   UNL     1       4.450   2.698  18.796  0.00  0.00    +0.000 C 
BRANCH  20  21
ATOM     21  C   UNL     1       3.000   2.762  19.241  0.00  0.00    +0.000 A 
ATOM     22  C   UNL     1       1.956   2.812  18.300  0.00  0.00    +0.000 A 
ATOM     23  C   UNL     1       0.617   2.778  18.707  0.00  0.00    +0.000 A 
ATOM     24  C   UNL     1       0.302   2.699  20.062  0.00  0.00    +0.000 A 
ATOM     25  C   UNL     1       1.328   2.677  20.996  0.00  0.00    +0.000 A 
ATOM     26  F   UNL     1       1.029   2.610  22.300  0.00  0.00    +0.000 F 
ATOM     27  C   UNL     1       2.665   2.716  20.603  0.00  0.00    +0.000 A 
ENDBRANCH  20  21
ENDBRANCH  19  20
ENDBRANCH   2  19
TORSDOF 4
ENDMDL
MODEL 4
REMARK VINA RESULT:      -7.6      0.499      1.376
REMARK  Name = 
REMARK  6 active torsions:
REMARK  status: ('A' for Active; 'I' for Inactive)
REMARK    1  A    between atoms: C_1  and  C_2
REMARK    2  A    between atoms: C_7  and  N_8
REMARK    3  A    between atoms: C_9  and  S_10
REMARK    4  A    between atoms: S_10  and  C_11
REMARK    5  A    between atoms: C_11  and  C_12
REMARK    6  A    between atoms: N_22  and  C_23
REMARK                            x       y       z     vdW  Elec       q    Type
REMARK                         _______ _______ _______ _____ _____    ______ ____
ROOT
ATOM      1  N   UNL     1       3.713   4.551  17.900  0.00  0.00    +0.000 N 
ATOM      2  C   UNL     1       3.915   5.946  17.727  0.00  0.00    +0.000 A 
ATOM      3  N   UNL     1       4.657   6.508  16.815  0.00  0.00    +0.000 NA
ATOM      4  C   UNL     1       5.297   5.621  15.965  0.00  0.00    +0.000 A 
ATOM      5  N   UNL     1       6.100   5.999  14.975  0.00  0.00    +0.000 NA
ATOM      6  N   UNL     1       6.469   4.820  14.419  0.00  0.00    +0.000 N 
ATOM      7  C   UNL     1       7.324   4.784  13.257  0.00  0.00    +0.000 C 
ATOM      8  C   UNL     1       5.934   3.731  15.050  0.00  0.00    +0.000 A 
ATOM      9  C   UNL     1       5.151   4.248  16.055  0.00  0.00    +0.000 A 
ATOM     10  C   UNL     1       4.302   3.626  17.013  0.00  0.00    +0.000 A 
ATOM     11  O   UNL     1       4.106   2.416  16.983  0.00  0.00    +0.000 OA
ENDROOT
BRANCH   1  18
ATOM     12  C   UNL     1       4.657   3.327  20.452  0.00  0.00    +0.000 C 
ATOM     13  C   UNL     1       3.232   3.266  19.968  0.00  0.00    +0.000 A 
ATOM     14  C   UNL     1       2.313   2.494  20.700  0.00  0.00    +0.000 A 
ATOM     15  C   UNL     1       0.967   2.456  20.343  0.00  0.00    +0.000 A 
ATOM     16  C   UNL     1       0.517   3.198  19.255  0.00  0.00    +0.000 A 
ATOM     17  C   UNL     1       1.421   3.945  18.494  0.00  0.00    +0.000 A 
ATOM     18  C   UNL     1       2.784   3.977  18.828  0.00  0.00    +0.000 A 
ENDBRANCH   1  18
BRANCH   2  19
ATOM     19  S   UNL     1       3.142   7.034  18.898  0.00  0.00    +0.000 S 
BRANCH  19  20
ATOM     20  C   UNL     1       2.305   8.254  17.824  0.00  0.00    +0.000 C 
BRANCH  20  21
ATOM     21  C   UNL     1       1.288   9.061  18.611  0.00  0.00    +0.000 A 
ATOM     22  C   UNL     1       0.403   9.940  17.961  0.00  0.00    +0.000 A 
ATOM     23  C   UNL     1      -0.594  10.616  18.675  0.00  0.00    +0.000 A 
ATOM     24  C   UNL     1      -0.719  10.425  20.050  0.00  0.00    +0.000 A 
ATOM     25  C   UNL     1       0.170   9.579  20.700  0.00  0.00    +0.000 A 
ATOM     26  F   UNL     1       0.058   9.401  22.022  0.00  0.00    +0.000 F 
ATOM     27  C   UNL     1       1.170   8.906  20.001  0.00  0.00    +0.000 A 
ENDBRANCH  20  21
ENDBRANCH  19  20
ENDBRANCH   2  19
TORSDOF 4
ENDMDL
MODEL 5
REMARK VINA RESULT:      -7.5      2.568      6.511
REMARK  Name = 
REMARK  6 active torsions:
REMARK  status: ('A' for Active; 'I' for Inactive)
REMARK    1  A    between atoms: C_1  and  C_2
REMARK    2  A    between atoms: C_7  and  N_8
REMARK    3  A    between atoms: C_9  and  S_10
REMARK    4  A    between atoms: S_10  and  C_11
REMARK    5  A    between atoms: C_11  and  C_12
REMARK    6  A    between atoms: N_22  and  C_23
REMARK                            x       y       z     vdW  Elec       q    Type
REMARK                         _______ _______ _______ _____ _____    ______ ____
ROOT
ATOM      1  N   UNL     1       4.703   6.029  17.605  0.00  0.00    +0.000 N 
ATOM      2  C   UNL     1       4.502   5.542  18.924  0.00  0.00    +0.000 A 
ATOM      3  N   UNL     1       3.649   6.005  19.793  0.00  0.00    +0.000 NA
ATOM      4  C   UNL     1       2.897   7.080  19.346  0.00  0.00    +0.000 A 
ATOM      5  N   UNL     1       1.979   7.694  20.086  0.00  0.00    +0.000 NA
ATOM      6  N   UNL     1       1.503   8.645  19.248  0.00  0.00    +0.000 N 
ATOM      7  C   UNL     1       0.432   9.524  19.653  0.00  0.00    +0.000 C 
ATOM      8  C   UNL     1       2.115   8.647  18.024  0.00  0.00    +0.000 A 
ATOM      9  C   UNL     1       3.019   7.613  18.075  0.00  0.00    +0.000 A 
ATOM     10  C   UNL     1       3.911   7.081  17.100  0.00  0.00    +0.000 A 
ATOM     11  O   UNL     1       3.903   7.505  15.950  0.00  0.00    +0.000 OA
ENDROOT
BRANCH   1  18
ATOM     12  C   UNL     1       7.565   6.829  17.343  0.00  0.00    +0.000 C 
ATOM     13  C   UNL     1       6.869   5.881  16.403  0.00  0.00    +0.000 A 
ATOM     14  C   UNL     1       7.571   5.431  15.271  0.00  0.00    +0.000 A 
ATOM     15  C   UNL     1       7.007   4.499  14.403  0.00  0.00    +0.000 A 
ATOM     16  C   UNL     1       5.735   3.994  14.660  0.00  0.00    +0.000 A 
ATOM     17  C   UNL     1       5.008   4.453  15.761  0.00  0.00    +0.000 A 
ATOM     18  C   UNL     1       5.555   5.408  16.634  0.00  0.00    +0.000 A 
ENDBRANCH   1  18
BRANCH   2  19
ATOM     19  S   UNL     1       5.553   4.221  19.475  0.00  0.00    +0.000 S 
BRANCH  19  20
ATOM     20  C   UNL     1       4.646   2.730  18.932  0.00  0.00    +0.000 C 
BRANCH  20  21
ATOM     21  C   UNL     1       3.259   2.686  19.548  0.00  0.00    +0.000 A 
ATOM     22  C   UNL     1       3.082   2.793  20.939  0.00  0.00    +0.000 A 
ATOM     23  C   UNL     1       1.800   2.844  21.500  0.00  0.00    +0.000 A 
ATOM     24  C   UNL     1       0.676   2.786  20.678  0.00  0.00    +0.000 A 
ATOM     25  C   UNL     1       0.845   2.652  19.307  0.00  0.00    +0.000 A 
ATOM     26  F   UNL     1      -0.232   2.587  18.515  0.00  0.00    +0.000 F 
ATOM     27  C   UNL     1       2.116   2.595  18.737  0.00  0.00    +0.000 A 
ENDBRANCH  20  21
ENDBRANCH  19  20
ENDBRANCH   2  19
TORSDOF 4
ENDMDL
MODEL 6
REMARK VINA RESULT:      -7.4      1.054      1.899
REMARK  Name = 
REMARK  6 active torsions:
REMARK  status: ('A' for Active; 'I' for Inactive)
REMARK    1  A    between atoms: C_1  and  C_2
REMARK    2  A    between atoms: C_7  and  N_8
REMARK    3  A    between atoms: C_9  and  S_10
REMARK    4  A    between atoms: S_10  and  C_11
REMARK    5  A    between atoms: C_11  and  C_12
REMARK    6  A    between atoms: N_22  and  C_23
REMARK                            x       y       z     vdW  Elec       q    Type
REMARK                         _______ _______ _______ _____ _____    ______ ____
ROOT
ATOM      1  N   UNL     1       3.688   4.567  17.901  0.00  0.00    +0.000 N 
ATOM      2  C   UNL     1       3.889   5.965  17.754  0.00  0.00    +0.000 A 
ATOM      3  N   UNL     1       4.645   6.543  16.864  0.00  0.00    +0.000 NA
ATOM      4  C   UNL     1       5.300   5.671  16.010  0.00  0.00    +0.000 A 
ATOM      5  N   UNL     1       6.119   6.068  15.040  0.00  0.00    +0.000 NA
ATOM      6  N   UNL     1       6.499   4.899  14.470  0.00  0.00    +0.000 N 
ATOM      7  C   UNL     1       7.372   4.883  13.322  0.00  0.00    +0.000 C 
ATOM      8  C   UNL     1       5.956   3.798  15.075  0.00  0.00    +0.000 A 
ATOM      9  C   UNL     1       5.156   4.297  16.075  0.00  0.00    +0.000 A 
ATOM     10  C   UNL     1       4.293   3.657  17.009  0.00  0.00    +0.000 A 
ATOM     11  O   UNL     1       4.101   2.447  16.956  0.00  0.00    +0.000 OA
ENDROOT
BRANCH   1  18
ATOM     12  C   UNL     1       4.590   3.328  20.461  0.00  0.00    +0.000 C 
ATOM     13  C   UNL     1       3.176   3.259  19.948  0.00  0.00    +0.000 A 
ATOM     14  C   UNL     1       2.250   2.471  20.654  0.00  0.00    +0.000 A 
ATOM     15  C   UNL     1       0.912   2.425  20.268  0.00  0.00    +0.000 A 
ATOM     16  C   UNL     1       0.478   3.172  19.177  0.00  0.00    +0.000 A 
ATOM     17  C   UNL     1       1.390   3.934  18.442  0.00  0.00    +0.000 A 
ATOM     18  C   UNL     1       2.746   3.975  18.805  0.00  0.00    +0.000 A 
ENDBRANCH   1  18
BRANCH   2  19
ATOM     19  S   UNL     1       3.095   7.032  18.930  0.00  0.00    +0.000 S 
BRANCH  19  20
ATOM     20  C   UNL     1       2.286   8.277  17.863  0.00  0.00    +0.000 C 
BRANCH  20  21
ATOM     21  C   UNL     1       1.236   9.054  18.638  0.00  0.00    +0.000 A 
ATOM     22  C   UNL     1       1.141   8.944  20.037  0.00  0.00    +0.000 A 
ATOM     23  C   UNL     1       0.236   9.728  20.761  0.00  0.00    +0.000 A 
ATOM     24  C   UNL     1      -0.591  10.632  20.096  0.00  0.00    +0.000 A 
ATOM     25  C   UNL     1      -0.521  10.725  18.713  0.00  0.00    +0.000 A 
ATOM     26  F   UNL     1      -1.320  11.585  18.070  0.00  0.00    +0.000 F 
ATOM     27  C   UNL     1       0.373   9.945  17.981  0.00  0.00    +0.000 A 
ENDBRANCH  20  21
ENDBRANCH  19  20
ENDBRANCH   2  19
TORSDOF 4
ENDMDL
MODEL 7
REMARK VINA RESULT:      -7.3      1.441      2.097
REMARK  Name = 
REMARK  6 active torsions:
REMARK  status: ('A' for Active; 'I' for Inactive)
REMARK    1  A    between atoms: C_1  and  C_2
REMARK    2  A    between atoms: C_7  and  N_8
REMARK    3  A    between atoms: C_9  and  S_10
REMARK    4  A    between atoms: S_10  and  C_11
REMARK    5  A    between atoms: C_11  and  C_12
REMARK    6  A    between atoms: N_22  and  C_23
REMARK                            x       y       z     vdW  Elec       q    Type
REMARK                         _______ _______ _______ _____ _____    ______ ____
ROOT
ATOM      1  N   UNL     1       3.639   4.587  17.868  0.00  0.00    +0.000 N 
ATOM      2  C   UNL     1       3.792   5.987  17.682  0.00  0.00    +0.000 A 
ATOM      3  N   UNL     1       4.549   6.566  16.793  0.00  0.00    +0.000 NA
ATOM      4  C   UNL     1       5.257   5.693  15.983  0.00  0.00    +0.000 A 
ATOM      5  N   UNL     1       6.085   6.090  15.020  0.00  0.00    +0.000 NA
ATOM      6  N   UNL     1       6.522   4.919  14.497  0.00  0.00    +0.000 N 
ATOM      7  C   UNL     1       7.423   4.900  13.371  0.00  0.00    +0.000 C 
ATOM      8  C   UNL     1       6.004   3.818  15.123  0.00  0.00    +0.000 A 
ATOM      9  C   UNL     1       5.162   4.317  16.087  0.00  0.00    +0.000 A 
ATOM     10  C   UNL     1       4.299   3.674  17.020  0.00  0.00    +0.000 A 
ATOM     11  O   UNL     1       4.152   2.457  17.000  0.00  0.00    +0.000 OA
ENDROOT
BRANCH   1  18
ATOM     12  C   UNL     1       4.509   3.528  20.518  0.00  0.00    +0.000 C 
ATOM     13  C   UNL     1       3.122   3.354  19.960  0.00  0.00    +0.000 A 
ATOM     14  C   UNL     1       2.213   2.552  20.672  0.00  0.00    +0.000 A 
ATOM     15  C   UNL     1       0.895   2.412  20.243  0.00  0.00    +0.000 A 
ATOM     16  C   UNL     1       0.463   3.079  19.100  0.00  0.00    +0.000 A 
ATOM     17  C   UNL     1       1.360   3.854  18.360  0.00  0.00    +0.000 A 
ATOM     18  C   UNL     1       2.697   3.989  18.768  0.00  0.00    +0.000 A 
ENDBRANCH   1  18
BRANCH   2  19
ATOM     19  S   UNL     1       2.931   7.059  18.805  0.00  0.00    +0.000 S 
BRANCH  19  20
ATOM     20  C   UNL     1       2.103   8.239  17.680  0.00  0.00    +0.000 C 
BRANCH  20  21
ATOM     21  C   UNL     1       1.676   9.490  18.427  0.00  0.00    +0.000 A 
ATOM     22  C   UNL     1       0.960   9.403  19.634  0.00  0.00    +0.000 A 
ATOM     23  C   UNL     1       0.646  10.552  20.370  0.00  0.00    +0.000 A 
ATOM     24  C   UNL     1       1.040  11.806  19.907  0.00  0.00    +0.000 A 
ATOM     25  C   UNL     1       1.723  11.900  18.702  0.00  0.00    +0.000 A 
ATOM     26  F   UNL     1       2.095  13.104  18.249  0.00  0.00    +0.000 F 
ATOM     27  C   UNL     1       2.036  10.763  17.958  0.00  0.00    +0.000 A 
ENDBRANCH  20  21
ENDBRANCH  19  20
ENDBRANCH   2  19
TORSDOF 4
ENDMDL
MODEL 8
REMARK VINA RESULT:      -7.3      3.461      6.828
REMARK  Name = 
REMARK  6 active torsions:
REMARK  status: ('A' for Active; 'I' for Inactive)
REMARK    1  A    between atoms: C_1  and  C_2
REMARK    2  A    between atoms: C_7  and  N_8
REMARK    3  A    between atoms: C_9  and  S_10
REMARK    4  A    between atoms: S_10  and  C_11
REMARK    5  A    between atoms: C_11  and  C_12
REMARK    6  A    between atoms: N_22  and  C_23
REMARK                            x       y       z     vdW  Elec       q    Type
REMARK                         _______ _______ _______ _____ _____    ______ ____
ROOT
ATOM      1  N   UNL     1       2.386   6.469  19.251  0.00  0.00    +0.000 N 
ATOM      2  C   UNL     1       2.514   7.681  18.522  0.00  0.00    +0.000 A 
ATOM      3  N   UNL     1       2.036   8.842  18.871  0.00  0.00    +0.000 NA
ATOM      4  C   UNL     1       1.338   8.842  20.068  0.00  0.00    +0.000 A 
ATOM      5  N   UNL     1       0.773   9.926  20.591  0.00  0.00    +0.000 NA
ATOM      6  N   UNL     1       0.236   9.460  21.744  0.00  0.00    +0.000 N 
ATOM      7  C   UNL     1      -0.445  10.347  22.656  0.00  0.00    +0.000 C 
ATOM      8  C   UNL     1       0.438   8.121  21.934  0.00  0.00    +0.000 A 
ATOM      9  C   UNL     1       1.173   7.711  20.848  0.00  0.00    +0.000 A 
ATOM     10  C   UNL     1       1.735   6.449  20.502  0.00  0.00    +0.000 A 
ATOM     11  O   UNL     1       1.668   5.502  21.277  0.00  0.00    +0.000 OA
ENDROOT
BRANCH   1  18
ATOM     12  C   UNL     1       1.132   4.560  17.333  0.00  0.00    +0.000 C 
ATOM     13  C   UNL     1       2.388   4.266  18.108  0.00  0.00    +0.000 A 
ATOM     14  C   UNL     1       2.944   2.978  18.013  0.00  0.00    +0.000 A 
ATOM     15  C   UNL     1       4.143   2.668  18.651  0.00  0.00    +0.000 A 
ATOM     16  C   UNL     1       4.810   3.644  19.385  0.00  0.00    +0.000 A 
ATOM     17  C   UNL     1       4.257   4.920  19.520  0.00  0.00    +0.000 A 
ATOM     18  C   UNL     1       3.039   5.242  18.901  0.00  0.00    +0.000 A 
ENDBRANCH   1  18
BRANCH   2  19
ATOM     19  S   UNL     1       3.341   7.607  16.952  0.00  0.00    +0.000 S 
BRANCH  19  20
ATOM     20  C   UNL     1       5.103   7.509  17.429  0.00  0.00    +0.000 C 
BRANCH  20  21
ATOM     21  C   UNL     1       5.779   6.325  16.762  0.00  0.00    +0.000 A 
ATOM     22  C   UNL     1       6.938   5.749  17.314  0.00  0.00    +0.000 A 
ATOM     23  C   UNL     1       7.509   4.601  16.752  0.00  0.00    +0.000 A 
ATOM     24  C   UNL     1       6.933   4.014  15.627  0.00  0.00    +0.000 A 
ATOM     25  C   UNL     1       5.805   4.594  15.063  0.00  0.00    +0.000 A 
ATOM     26  F   UNL     1       5.254   4.038  13.977  0.00  0.00    +0.000 F 
ATOM     27  C   UNL     1       5.230   5.740  15.610  0.00  0.00    +0.000 A 
ENDBRANCH  20  21
ENDBRANCH  19  20
ENDBRANCH   2  19
TORSDOF 4
ENDMDL
MODEL 9
REMARK VINA RESULT:      -7.2      5.192      8.609
REMARK  Name = 
REMARK  6 active torsions:
REMARK  status: ('A' for Active; 'I' for Inactive)
REMARK    1  A    between atoms: C_1  and  C_2
REMARK    2  A    between atoms: C_7  and  N_8
REMARK    3  A    between atoms: C_9  and  S_10
REMARK    4  A    between atoms: S_10  and  C_11
REMARK    5  A    between atoms: C_11  and  C_12
REMARK    6  A    between atoms: N_22  and  C_23
REMARK                            x       y       z     vdW  Elec       q    Type
REMARK                         _______ _______ _______ _____ _____    ______ ____
ROOT
ATOM      1  N   UNL     1      -0.222  11.923  19.329  0.00  0.00    +0.000 N 
ATOM      2  C   UNL     1       0.319  11.308  20.490  0.00  0.00    +0.000 A 
ATOM      3  N   UNL     1       1.283  11.777  21.229  0.00  0.00    +0.000 NA
ATOM      4  C   UNL     1       1.805  12.987  20.798  0.00  0.00    +0.000 A 
ATOM      5  N   UNL     1       2.795  13.623  21.416  0.00  0.00    +0.000 NA
ATOM      6  N   UNL     1       2.949  14.741  20.666  0.00  0.00    +0.000 N 
ATOM      7  C   UNL     1       3.915  15.750  21.027  0.00  0.00    +0.000 C 
ATOM      8  C   UNL     1       2.098  14.799  19.596  0.00  0.00    +0.000 A 
ATOM      9  C   UNL     1       1.333  13.660  19.685  0.00  0.00    +0.000 A 
ATOM     10  C   UNL     1       0.245  13.182  18.901  0.00  0.00    +0.000 A 
ATOM     11  O   UNL     1      -0.220  13.866  17.996  0.00  0.00    +0.000 OA
ENDROOT
BRANCH   1  18
ATOM     12  C   UNL     1      -2.964  12.852  20.048  0.00  0.00    +0.000 C 
ATOM     13  C   UNL     1      -2.683  11.763  19.047  0.00  0.00    +0.000 A 
ATOM     14  C   UNL     1      -3.773  11.063  18.500  0.00  0.00    +0.000 A 
ATOM     15  C   UNL     1      -3.580  10.095  17.517  0.00  0.00    +0.000 A 
ATOM     16  C   UNL     1      -2.295   9.818  17.060  0.00  0.00    +0.000 A 
ATOM     17  C   UNL     1      -1.196  10.478  17.615  0.00  0.00    +0.000 A 
ATOM     18  C   UNL     1      -1.371  11.442  18.620  0.00  0.00    +0.000 A 
ENDBRANCH   1  18
BRANCH   2  19
ATOM     19  S   UNL     1      -0.325   9.718  20.948  0.00  0.00    +0.000 S 
BRANCH  19  20
ATOM     20  C   UNL     1       1.180   8.793  21.416  0.00  0.00    +0.000 C 
BRANCH  20  21
ATOM     21  C   UNL     1       1.663   7.927  20.266  0.00  0.00    +0.000 A 
ATOM     22  C   UNL     1       1.893   8.479  18.993  0.00  0.00    +0.000 A 
ATOM     23  C   UNL     1       2.426   7.702  17.956  0.00  0.00    +0.000 A 
ATOM     24  C   UNL     1       2.732   6.361  18.177  0.00  0.00    +0.000 A 
ATOM     25  C   UNL     1       2.481   5.804  19.424  0.00  0.00    +0.000 A 
ATOM     26  F   UNL     1       2.766   4.514  19.637  0.00  0.00    +0.000 F 
ATOM     27  C   UNL     1       1.946   6.567  20.462  0.00  0.00    +0.000 A 
ENDBRANCH  20  21
ENDBRANCH  19  20
ENDBRANCH   2  19
TORSDOF 4
ENDMDL
