MODEL 1
REMARK VINA RESULT:      -8.1      0.000      0.000
REMARK  Name = 
REMARK  5 active torsions:
REMARK  status: ('A' for Active; 'I' for Inactive)
REMARK    1  A    between atoms: C_2  and  C_3
REMARK    2  A    between atoms: C_15  and  C_17
REMARK    3  A    between atoms: C_17  and  C_18
REMARK    4  A    between atoms: C_18  and  S_19
REMARK    5  A    between atoms: S_19  and  C_22
REMARK                            x       y       z     vdW  Elec       q    Type
REMARK                         _______ _______ _______ _____ _____    ______ ____
ROOT
ATOM      1  C   UNL     1       3.472  15.187  19.199  0.00  0.00    +0.000 A 
ATOM      2  C   UNL     1       3.141  14.725  20.464  0.00  0.00    +0.000 A 
ATOM      3  C   UNL     1       2.478  13.500  20.594  0.00  0.00    +0.000 A 
ATOM      4  C   UNL     1       2.145  12.740  19.470  0.00  0.00    +0.000 A 
ATOM      5  N   UNL     1       1.470  11.546  19.576  0.00  0.00    +0.000 N 
ATOM      6  C   UNL     1       1.036  10.955  20.857  0.00  0.00    +0.000 C 
ATOM      7  C   UNL     1       0.322   9.598  20.572  0.00  0.00    +0.000 C 
ATOM      8  C   UNL     1      -0.882   9.890  19.653  0.00  0.00    +0.000 C 
ATOM      9  C   UNL     1      -0.391  10.568  18.355  0.00  0.00    +0.000 C 
ATOM     10  C   UNL     1       1.147  10.726  18.390  0.00  0.00    +0.000 C 
ATOM     11  C   UNL     1       1.761   9.313  18.592  0.00  0.00    +0.000 C 
ATOM     12  N   UNL     1       1.247   8.703  19.833  0.00  0.00    +0.000 N 
ATOM     13  C   UNL     1       1.579   7.441  20.294  0.00  0.00    +0.000 C 
ATOM     14  O   UNL     1       1.119   6.978  21.337  0.00  0.00    +0.000 OA
ATOM     15  N   UNL     1       2.484  13.191  18.241  0.00  0.00    +0.000 NA
ATOM     16  C   UNL     1       3.129  14.385  18.127  0.00  0.00    +0.000 A 
ENDROOT
BRANCH   1  18
ATOM     17  N   UNL     1       4.666  17.457  18.853  0.00  0.00    +0.000 NA
ATOM     18  C   UNL     1       4.131  16.440  19.005  0.00  0.00    +0.000 C 
ENDBRANCH   1  18
BRANCH  13  19
ATOM     19  C   UNL     1       2.596   6.658  19.478  0.00  0.00    +0.000 C 
BRANCH  19  20
ATOM     20  C   UNL     1       2.748   5.215  19.957  0.00  0.00    +0.000 C 
BRANCH  20  21
ATOM     21  S   UNL     1       3.369   4.197  18.630  0.00  0.00    +0.000 S 
ATOM     22  O   UNL     1       3.380   2.814  19.069  0.00  0.00    +0.000 OA
ATOM     23  O   UNL     1       2.641   4.574  17.431  0.00  0.00    +0.000 OA
BRANCH  21  24
ATOM     24  C   UNL     1       5.076   4.663  18.386  0.00  0.00    +0.000 A 
ATOM     25  C   UNL     1       5.781   5.207  19.478  0.00  0.00    +0.000 A 
ATOM     26  C   UNL     1       7.100   5.636  19.346  0.00  0.00    +0.000 A 
ATOM     27  C   UNL     1       7.748   5.545  18.115  0.00  0.00    +0.000 A 
ATOM     28  C   UNL     1       7.062   5.029  16.996  0.00  0.00    +0.000 A 
ATOM     29  N   UNL     1       7.602   4.910  15.725  0.00  0.00    +0.000 NA
ATOM     30  C   UNL     1       6.701   4.425  14.908  0.00  0.00    +0.000 A 
ATOM     31  S   UNL     1       5.179   4.064  15.591  0.00  0.00    +0.000 S 
ATOM     32  C   UNL     1       5.735   4.600  17.139  0.00  0.00    +0.000 A 
ENDBRANCH  21  24
ENDBRANCH  20  21
ENDBRANCH  19  20
ENDBRANCH  13  19
TORSDOF 5
ENDMDL
MODEL 2
REMARK VINA RESULT:      -7.7      3.848      9.310
REMARK  Name = 
REMARK  5 active torsions:
REMARK  status: ('A' for Active; 'I' for Inactive)
REMARK    1  A    between atoms: C_2  and  C_3
REMARK    2  A    between atoms: C_15  and  C_17
REMARK    3  A    between atoms: C_17  and  C_18
REMARK    4  A    between atoms: C_18  and  S_19
REMARK    5  A    between atoms: S_19  and  C_22
REMARK                            x       y       z     vdW  Elec       q    Type
REMARK                         _______ _______ _______ _____ _____    ______ ____
ROOT
ATOM      1  C   UNL     1       6.886   5.015  14.524  0.00  0.00    +0.000 A 
ATOM      2  C   UNL     1       5.562   4.696  14.265  0.00  0.00    +0.000 A 
ATOM      3  C   UNL     1       4.711   4.382  15.331  0.00  0.00    +0.000 A 
ATOM      4  C   UNL     1       5.179   4.384  16.648  0.00  0.00    +0.000 A 
ATOM      5  N   UNL     1       4.366   4.053  17.706  0.00  0.00    +0.000 N 
ATOM      6  C   UNL     1       2.947   3.669  17.568  0.00  0.00    +0.000 C 
ATOM      7  C   UNL     1       2.360   3.384  18.985  0.00  0.00    +0.000 C 
ATOM      8  C   UNL     1       3.190   2.246  19.613  0.00  0.00    +0.000 C 
ATOM      9  C   UNL     1       4.676   2.662  19.676  0.00  0.00    +0.000 C 
ATOM     10  C   UNL     1       4.851   4.087  19.102  0.00  0.00    +0.000 C 
ATOM     11  C   UNL     1       3.931   5.040  19.915  0.00  0.00    +0.000 C 
ATOM     12  N   UNL     1       2.528   4.588  19.836  0.00  0.00    +0.000 N 
ATOM     13  C   UNL     1       1.460   5.203  20.465  0.00  0.00    +0.000 C 
ATOM     14  O   UNL     1       0.308   4.783  20.369  0.00  0.00    +0.000 OA
ATOM     15  N   UNL     1       6.468   4.710  16.892  0.00  0.00    +0.000 NA
ATOM     16  C   UNL     1       7.285   5.014  15.846  0.00  0.00    +0.000 A 
ENDROOT
BRANCH   1  18
ATOM     17  N   UNL     1       8.547   5.578  12.621  0.00  0.00    +0.000 NA
ATOM     18  C   UNL     1       7.803   5.323  13.472  0.00  0.00    +0.000 C 
ENDBRANCH   1  18
BRANCH  13  19
ATOM     19  C   UNL     1       1.761   6.472  21.247  0.00  0.00    +0.000 C 
BRANCH  19  20
ATOM     20  C   UNL     1       1.358   7.738  20.492  0.00  0.00    +0.000 C 
BRANCH  20  21
ATOM     21  S   UNL     1       0.478   8.841  21.585  0.00  0.00    +0.000 S 
ATOM     22  O   UNL     1      -0.642   8.126  22.166  0.00  0.00    +0.000 OA
ATOM     23  O   UNL     1       1.470   9.463  22.445  0.00  0.00    +0.000 OA
BRANCH  21  24
ATOM     24  C   UNL     1      -0.220  10.126  20.560  0.00  0.00    +0.000 A 
ATOM     25  C   UNL     1      -0.036  10.039  19.165  0.00  0.00    +0.000 A 
ATOM     26  C   UNL     1      -0.511  11.030  18.309  0.00  0.00    +0.000 A 
ATOM     27  C   UNL     1      -1.174  12.143  18.825  0.00  0.00    +0.000 A 
ATOM     28  C   UNL     1      -1.352  12.274  20.218  0.00  0.00    +0.000 A 
ATOM     29  N   UNL     1      -1.978  13.344  20.837  0.00  0.00    +0.000 NA
ATOM     30  C   UNL     1      -1.953  13.176  22.136  0.00  0.00    +0.000 A 
ATOM     31  S   UNL     1      -1.211  11.746  22.698  0.00  0.00    +0.000 S 
ATOM     32  C   UNL     1      -0.869  11.270  21.070  0.00  0.00    +0.000 A 
ENDBRANCH  21  24
ENDBRANCH  20  21
ENDBRANCH  19  20
ENDBRANCH  13  19
TORSDOF 5
ENDMDL
MODEL 3
REMARK VINA RESULT:      -7.6      0.987      1.775
REMARK  Name = 
REMARK  5 active torsions:
REMARK  status: ('A' for Active; 'I' for Inactive)
REMARK    1  A    between atoms: C_2  and  C_3
REMARK    2  A    between atoms: C_15  and  C_17
REMARK    3  A    between atoms: C_17  and  C_18
REMARK    4  A    between atoms: C_18  and  S_19
REMARK    5  A    between atoms: S_19  and  C_22
REMARK                            x       y       z     vdW  Elec       q    Type
REMARK                         _______ _______ _______ _____ _____    ______ ____
ROOT
ATOM      1  C   UNL     1       3.334  15.255  19.423  0.00  0.00    +0.000 A 
ATOM      2  C   UNL     1       3.127  14.650  20.652  0.00  0.00    +0.000 A 
ATOM      3  C   UNL     1       2.528  13.386  20.702  0.00  0.00    +0.000 A 
ATOM      4  C   UNL     1       2.136  12.730  19.531  0.00  0.00    +0.000 A 
ATOM      5  N   UNL     1       1.523  11.500  19.560  0.00  0.00    +0.000 N 
ATOM      6  C   UNL     1       1.219  10.759  20.800  0.00  0.00    +0.000 C 
ATOM      7  C   UNL     1       0.541   9.405  20.427  0.00  0.00    +0.000 C 
ATOM      8  C   UNL     1      -0.745   9.729  19.639  0.00  0.00    +0.000 C 
ATOM      9  C   UNL     1      -0.389  10.562  18.388  0.00  0.00    +0.000 C 
ATOM     10  C   UNL     1       1.139  10.792  18.321  0.00  0.00    +0.000 C 
ATOM     11  C   UNL     1       1.826   9.398  18.324  0.00  0.00    +0.000 C 
ATOM     12  N   UNL     1       1.440   8.638  19.529  0.00  0.00    +0.000 N 
ATOM     13  C   UNL     1       1.861   7.354  19.826  0.00  0.00    +0.000 C 
ATOM     14  O   UNL     1       1.506   6.763  20.845  0.00  0.00    +0.000 OA
ATOM     15  N   UNL     1       2.356  13.323  18.336  0.00  0.00    +0.000 NA
ATOM     16  C   UNL     1       2.939  14.552  18.301  0.00  0.00    +0.000 A 
ENDROOT
BRANCH   1  18
ATOM     17  N   UNL     1       4.396  17.608  19.231  0.00  0.00    +0.000 NA
ATOM     18  C   UNL     1       3.922  16.553  19.314  0.00  0.00    +0.000 C 
ENDBRANCH   1  18
BRANCH  13  19
ATOM     19  C   UNL     1       2.840   6.710  18.855  0.00  0.00    +0.000 C 
BRANCH  19  20
ATOM     20  C   UNL     1       2.154   5.764  17.870  0.00  0.00    +0.000 C 
BRANCH  20  21
ATOM     21  S   UNL     1       2.956   4.170  17.902  0.00  0.00    +0.000 S 
ATOM     22  O   UNL     1       3.240   3.820  19.281  0.00  0.00    +0.000 OA
ATOM     23  O   UNL     1       2.162   3.281  17.074  0.00  0.00    +0.000 OA
BRANCH  21  24
ATOM     24  C   UNL     1       4.537   4.378  17.099  0.00  0.00    +0.000 A 
ATOM     25  C   UNL     1       4.653   3.997  15.746  0.00  0.00    +0.000 A 
ATOM     26  C   UNL     1       5.868   4.086  15.071  0.00  0.00    +0.000 A 
ATOM     27  C   UNL     1       7.005   4.548  15.731  0.00  0.00    +0.000 A 
ATOM     28  C   UNL     1       6.930   4.912  17.092  0.00  0.00    +0.000 A 
ATOM     29  N   UNL     1       7.999   5.366  17.848  0.00  0.00    +0.000 NA
ATOM     30  C   UNL     1       7.605   5.589  19.077  0.00  0.00    +0.000 A 
ATOM     31  S   UNL     1       5.956   5.299  19.405  0.00  0.00    +0.000 S 
ATOM     32  C   UNL     1       5.702   4.819  17.762  0.00  0.00    +0.000 A 
ENDBRANCH  21  24
ENDBRANCH  20  21
ENDBRANCH  19  20
ENDBRANCH  13  19
TORSDOF 5
ENDMDL
MODEL 4
REMARK VINA RESULT:      -7.2      3.640      5.855
REMARK  Name = 
REMARK  5 active torsions:
REMARK  status: ('A' for Active; 'I' for Inactive)
REMARK    1  A    between atoms: C_2  and  C_3
REMARK    2  A    between atoms: C_15  and  C_17
REMARK    3  A    between atoms: C_17  and  C_18
REMARK    4  A    between atoms: C_18  and  S_19
REMARK    5  A    between atoms: S_19  and  C_22
REMARK                            x       y       z     vdW  Elec       q    Type
REMARK                         _______ _______ _______ _____ _____    ______ ____
ROOT
ATOM      1  C   UNL     1      -4.899  12.803  21.616  0.00  0.00    +0.000 A 
ATOM      2  C   UNL     1      -4.652  12.907  20.256  0.00  0.00    +0.000 A 
ATOM      3  C   UNL     1      -3.358  12.683  19.774  0.00  0.00    +0.000 A 
ATOM      4  C   UNL     1      -2.314  12.359  20.645  0.00  0.00    +0.000 A 
ATOM      5  N   UNL     1      -1.030  12.160  20.195  0.00  0.00    +0.000 N 
ATOM      6  C   UNL     1      -0.627  12.266  18.779  0.00  0.00    +0.000 C 
ATOM      7  C   UNL     1       0.898  11.957  18.663  0.00  0.00    +0.000 C 
ATOM      8  C   UNL     1       1.649  12.983  19.537  0.00  0.00    +0.000 C 
ATOM      9  C   UNL     1       1.149  12.884  20.995  0.00  0.00    +0.000 C 
ATOM     10  C   UNL     1       0.068  11.785  21.111  0.00  0.00    +0.000 C 
ATOM     11  C   UNL     1       0.692  10.454  20.605  0.00  0.00    +0.000 C 
ATOM     12  N   UNL     1       1.169  10.608  19.216  0.00  0.00    +0.000 N 
ATOM     13  C   UNL     1       1.793   9.618  18.478  0.00  0.00    +0.000 C 
ATOM     14  O   UNL     1       2.175   9.799  17.323  0.00  0.00    +0.000 OA
ATOM     15  N   UNL     1      -2.566  12.245  21.969  0.00  0.00    +0.000 NA
ATOM     16  C   UNL     1      -3.830  12.465  22.424  0.00  0.00    +0.000 A 
ENDROOT
BRANCH   1  18
ATOM     17  N   UNL     1      -7.250  13.231  22.608  0.00  0.00    +0.000 NA
ATOM     18  C   UNL     1      -6.197  13.042  22.164  0.00  0.00    +0.000 C 
ENDBRANCH   1  18
BRANCH  13  19
ATOM     19  C   UNL     1       1.942   8.257  19.141  0.00  0.00    +0.000 C 
BRANCH  19  20
ATOM     20  C   UNL     1       1.900   7.106  18.137  0.00  0.00    +0.000 C 
BRANCH  20  21
ATOM     21  S   UNL     1       3.456   6.232  18.151  0.00  0.00    +0.000 S 
ATOM     22  O   UNL     1       4.076   6.364  16.846  0.00  0.00    +0.000 OA
ATOM     23  O   UNL     1       4.170   6.659  19.341  0.00  0.00    +0.000 OA
BRANCH  21  24
ATOM     24  C   UNL     1       3.067   4.501  18.353  0.00  0.00    +0.000 A 
ATOM     25  C   UNL     1       3.231   3.647  17.244  0.00  0.00    +0.000 A 
ATOM     26  C   UNL     1       2.901   2.295  17.316  0.00  0.00    +0.000 A 
ATOM     27  C   UNL     1       2.387   1.762  18.497  0.00  0.00    +0.000 A 
ATOM     28  C   UNL     1       2.186   2.594  19.618  0.00  0.00    +0.000 A 
ATOM     29  N   UNL     1       1.667   2.173  20.831  0.00  0.00    +0.000 NA
ATOM     30  C   UNL     1       1.581   3.192  21.650  0.00  0.00    +0.000 A 
ATOM     31  S   UNL     1       2.124   4.693  21.047  0.00  0.00    +0.000 S 
ATOM     32  C   UNL     1       2.522   3.953  19.534  0.00  0.00    +0.000 A 
ENDBRANCH  21  24
ENDBRANCH  20  21
ENDBRANCH  19  20
ENDBRANCH  13  19
TORSDOF 5
ENDMDL
MODEL 5
REMARK VINA RESULT:      -6.8      7.304     10.534
REMARK  Name = 
REMARK  5 active torsions:
REMARK  status: ('A' for Active; 'I' for Inactive)
REMARK    1  A    between atoms: C_2  and  C_3
REMARK    2  A    between atoms: C_15  and  C_17
REMARK    3  A    between atoms: C_17  and  C_18
REMARK    4  A    between atoms: C_18  and  S_19
REMARK    5  A    between atoms: S_19  and  C_22
REMARK                            x       y       z     vdW  Elec       q    Type
REMARK                         _______ _______ _______ _____ _____    ______ ____
ROOT
ATOM      1  C   UNL     1      -3.168  10.574  16.275  0.00  0.00    +0.000 A 
ATOM      2  C   UNL     1      -3.874  11.435  17.103  0.00  0.00    +0.000 A 
ATOM      3  C   UNL     1      -3.321  11.810  18.332  0.00  0.00    +0.000 A 
ATOM      4  C   UNL     1      -2.073  11.327  18.736  0.00  0.00    +0.000 A 
ATOM      5  N   UNL     1      -1.524  11.663  19.951  0.00  0.00    +0.000 N 
ATOM      6  C   UNL     1      -2.180  12.546  20.936  0.00  0.00    +0.000 C 
ATOM      7  C   UNL     1      -1.246  12.702  22.176  0.00  0.00    +0.000 C 
ATOM      8  C   UNL     1      -1.007  11.294  22.758  0.00  0.00    +0.000 C 
ATOM      9  C   UNL     1      -0.383  10.385  21.676  0.00  0.00    +0.000 C 
ATOM     10  C   UNL     1      -0.190  11.180  20.364  0.00  0.00    +0.000 C 
ATOM     11  C   UNL     1       0.697  12.415  20.687  0.00  0.00    +0.000 C 
ATOM     12  N   UNL     1       0.066  13.239  21.737  0.00  0.00    +0.000 N 
ATOM     13  C   UNL     1       0.606  14.397  22.268  0.00  0.00    +0.000 C 
ATOM     14  O   UNL     1       0.039  15.046  23.146  0.00  0.00    +0.000 OA
ATOM     15  N   UNL     1      -1.386  10.500  17.916  0.00  0.00    +0.000 NA
ATOM     16  C   UNL     1      -1.934  10.143  16.722  0.00  0.00    +0.000 A 
ENDROOT
BRANCH   1  18
ATOM     17  N   UNL     1      -4.121   9.797  13.998  0.00  0.00    +0.000 NA
ATOM     18  C   UNL     1      -3.694  10.142  15.018  0.00  0.00    +0.000 C 
ENDBRANCH   1  18
BRANCH  13  19
ATOM     19  C   UNL     1       1.923  14.875  21.676  0.00  0.00    +0.000 C 
BRANCH  19  20
ATOM     20  C   UNL     1       1.847  15.081  20.164  0.00  0.00    +0.000 C 
BRANCH  20  21
ATOM     21  S   UNL     1       2.396  16.727  19.747  0.00  0.00    +0.000 S 
ATOM     22  O   UNL     1       2.363  17.545  20.945  0.00  0.00    +0.000 OA
ATOM     23  O   UNL     1       3.631  16.584  18.998  0.00  0.00    +0.000 OA
BRANCH  21  24
ATOM     24  C   UNL     1       1.173  17.407  18.638  0.00  0.00    +0.000 A 
ATOM     25  C   UNL     1       1.603  17.880  17.381  0.00  0.00    +0.000 A 
ATOM     26  C   UNL     1       0.713  18.467  16.485  0.00  0.00    +0.000 A 
ATOM     27  C   UNL     1      -0.632  18.608  16.825  0.00  0.00    +0.000 A 
ATOM     28  C   UNL     1      -1.090  18.170  18.084  0.00  0.00    +0.000 A 
ATOM     29  N   UNL     1      -2.398  18.277  18.530  0.00  0.00    +0.000 NA
ATOM     30  C   UNL     1      -2.487  17.805  19.749  0.00  0.00    +0.000 A 
ATOM     31  S   UNL     1      -1.047  17.192  20.428  0.00  0.00    +0.000 S 
ATOM     32  C   UNL     1      -0.185  17.580  18.979  0.00  0.00    +0.000 A 
ENDBRANCH  21  24
ENDBRANCH  20  21
ENDBRANCH  19  20
ENDBRANCH  13  19
TORSDOF 5
ENDMDL
MODEL 6
REMARK VINA RESULT:      -6.8      2.970      4.566
REMARK  Name = 
REMARK  5 active torsions:
REMARK  status: ('A' for Active; 'I' for Inactive)
REMARK    1  A    between atoms: C_2  and  C_3
REMARK    2  A    between atoms: C_15  and  C_17
REMARK    3  A    between atoms: C_17  and  C_18
REMARK    4  A    between atoms: C_18  and  S_19
REMARK    5  A    between atoms: S_19  and  C_22
REMARK                            x       y       z     vdW  Elec       q    Type
REMARK                         _______ _______ _______ _____ _____    ______ ____
ROOT
ATOM      1  C   UNL     1      -4.334  12.938  22.244  0.00  0.00    +0.000 A 
ATOM      2  C   UNL     1      -4.288  12.850  20.861  0.00  0.00    +0.000 A 
ATOM      3  C   UNL     1      -3.098  12.458  20.238  0.00  0.00    +0.000 A 
ATOM      4  C   UNL     1      -1.959  12.157  20.990  0.00  0.00    +0.000 A 
ATOM      5  N   UNL     1      -0.773  11.795  20.396  0.00  0.00    +0.000 N 
ATOM      6  C   UNL     1      -0.580  11.689  18.936  0.00  0.00    +0.000 C 
ATOM      7  C   UNL     1       0.886  11.238  18.651  0.00  0.00    +0.000 C 
ATOM      8  C   UNL     1       1.825  12.297  19.265  0.00  0.00    +0.000 C 
ATOM      9  C   UNL     1       1.544  12.425  20.778  0.00  0.00    +0.000 C 
ATOM     10  C   UNL     1       0.422  11.445  21.192  0.00  0.00    +0.000 C 
ATOM     11  C   UNL     1       0.874  10.013  20.789  0.00  0.00    +0.000 C 
ATOM     12  N   UNL     1       1.146   9.950  19.340  0.00  0.00    +0.000 N 
ATOM     13  C   UNL     1       1.586   8.827  18.663  0.00  0.00    +0.000 C 
ATOM     14  O   UNL     1       1.801   8.829  17.452  0.00  0.00    +0.000 OA
ATOM     15  N   UNL     1      -2.017  12.232  22.339  0.00  0.00    +0.000 NA
ATOM     16  C   UNL     1      -3.181  12.615  22.933  0.00  0.00    +0.000 A 
ENDROOT
BRANCH   1  18
ATOM     17  N   UNL     1      -6.476  13.686  23.489  0.00  0.00    +0.000 NA
ATOM     18  C   UNL     1      -5.516  13.354  22.930  0.00  0.00    +0.000 C 
ENDBRANCH   1  18
BRANCH  13  19
ATOM     19  C   UNL     1       1.742   7.551  19.479  0.00  0.00    +0.000 C 
BRANCH  19  20
ATOM     20  C   UNL     1       3.193   7.076  19.553  0.00  0.00    +0.000 C 
BRANCH  20  21
ATOM     21  S   UNL     1       3.351   5.484  18.764  0.00  0.00    +0.000 S 
ATOM     22  O   UNL     1       2.965   4.454  19.710  0.00  0.00    +0.000 OA
ATOM     23  O   UNL     1       2.679   5.580  17.480  0.00  0.00    +0.000 OA
BRANCH  21  24
ATOM     24  C   UNL     1       5.091   5.245  18.439  0.00  0.00    +0.000 A 
ATOM     25  C   UNL     1       6.010   5.583  19.452  0.00  0.00    +0.000 A 
ATOM     26  C   UNL     1       7.384   5.468  19.251  0.00  0.00    +0.000 A 
ATOM     27  C   UNL     1       7.878   5.023  18.026  0.00  0.00    +0.000 A 
ATOM     28  C   UNL     1       6.986   4.702  16.982  0.00  0.00    +0.000 A 
ATOM     29  N   UNL     1       7.368   4.269  15.722  0.00  0.00    +0.000 NA
ATOM     30  C   UNL     1       6.305   4.086  14.979  0.00  0.00    +0.000 A 
ATOM     31  S   UNL     1       4.801   4.392  15.725  0.00  0.00    +0.000 S 
ATOM     32  C   UNL     1       5.605   4.821  17.195  0.00  0.00    +0.000 A 
ENDBRANCH  21  24
ENDBRANCH  20  21
ENDBRANCH  19  20
ENDBRANCH  13  19
TORSDOF 5
ENDMDL
MODEL 7
REMARK VINA RESULT:      -6.8      6.992     11.028
REMARK  Name = 
REMARK  5 active torsions:
REMARK  status: ('A' for Active; 'I' for Inactive)
REMARK    1  A    between atoms: C_2  and  C_3
REMARK    2  A    between atoms: C_15  and  C_17
REMARK    3  A    between atoms: C_17  and  C_18
REMARK    4  A    between atoms: C_18  and  S_19
REMARK    5  A    between atoms: S_19  and  C_22
REMARK                            x       y       z     vdW  Elec       q    Type
REMARK                         _______ _______ _______ _____ _____    ______ ____
ROOT
ATOM      1  C   UNL     1      -3.291  10.198  15.011  0.00  0.00    +0.000 A 
ATOM      2  C   UNL     1      -2.464   9.263  15.616  0.00  0.00    +0.000 A 
ATOM      3  C   UNL     1      -1.792   9.604  16.795  0.00  0.00    +0.000 A 
ATOM      4  C   UNL     1      -1.941  10.871  17.367  0.00  0.00    +0.000 A 
ATOM      5  N   UNL     1      -1.270  11.233  18.510  0.00  0.00    +0.000 N 
ATOM      6  C   UNL     1      -0.340  10.346  19.237  0.00  0.00    +0.000 C 
ATOM      7  C   UNL     1       0.209  11.103  20.486  0.00  0.00    +0.000 C 
ATOM      8  C   UNL     1       0.925  12.373  19.982  0.00  0.00    +0.000 C 
ATOM      9  C   UNL     1      -0.063  13.238  19.171  0.00  0.00    +0.000 C 
ATOM     10  C   UNL     1      -1.453  12.561  19.134  0.00  0.00    +0.000 C 
ATOM     11  C   UNL     1      -1.914  12.350  20.603  0.00  0.00    +0.000 C 
ATOM     12  N   UNL     1      -0.928  11.533  21.337  0.00  0.00    +0.000 N 
ATOM     13  C   UNL     1      -1.027  11.180  22.671  0.00  0.00    +0.000 C 
ATOM     14  O   UNL     1      -0.173  10.499  23.238  0.00  0.00    +0.000 OA
ATOM     15  N   UNL     1      -2.761  11.771  16.778  0.00  0.00    +0.000 NA
ATOM     16  C   UNL     1      -3.410  11.427  15.631  0.00  0.00    +0.000 A 
ENDROOT
BRANCH   1  18
ATOM     17  N   UNL     1      -4.546   9.683  12.807  0.00  0.00    +0.000 NA
ATOM     18  C   UNL     1      -3.985   9.911  13.795  0.00  0.00    +0.000 C 
ENDBRANCH   1  18
BRANCH  13  19
ATOM     19  C   UNL     1      -2.280  11.626  23.409  0.00  0.00    +0.000 C 
BRANCH  19  20
ATOM     20  C   UNL     1      -2.288  13.126  23.699  0.00  0.00    +0.000 C 
BRANCH  20  21
ATOM     21  S   UNL     1      -3.820  13.582  24.494  0.00  0.00    +0.000 S 
ATOM     22  O   UNL     1      -4.273  12.468  25.305  0.00  0.00    +0.000 OA
ATOM     23  O   UNL     1      -3.610  14.885  25.099  0.00  0.00    +0.000 OA
BRANCH  21  24
ATOM     24  C   UNL     1      -5.029  13.785  23.195  0.00  0.00    +0.000 A 
ATOM     25  C   UNL     1      -6.118  12.892  23.153  0.00  0.00    +0.000 A 
ATOM     26  C   UNL     1      -7.072  12.961  22.140  0.00  0.00    +0.000 A 
ATOM     27  C   UNL     1      -6.958  13.919  21.134  0.00  0.00    +0.000 A 
ATOM     28  C   UNL     1      -5.865  14.811  21.132  0.00  0.00    +0.000 A 
ATOM     29  N   UNL     1      -5.645  15.787  20.173  0.00  0.00    +0.000 NA
ATOM     30  C   UNL     1      -4.533  16.425  20.442  0.00  0.00    +0.000 A 
ATOM     31  S   UNL     1      -3.698  15.926  21.845  0.00  0.00    +0.000 S 
ATOM     32  C   UNL     1      -4.911  14.732  22.156  0.00  0.00    +0.000 A 
ENDBRANCH  21  24
ENDBRANCH  20  21
ENDBRANCH  19  20
ENDBRANCH  13  19
TORSDOF 5
ENDMDL
MODEL 8
REMARK VINA RESULT:      -6.7      6.001     10.964
REMARK  Name = 
REMARK  5 active torsions:
REMARK  status: ('A' for Active; 'I' for Inactive)
REMARK    1  A    between atoms: C_2  and  C_3
REMARK    2  A    between atoms: C_15  and  C_17
REMARK    3  A    between atoms: C_17  and  C_18
REMARK    4  A    between atoms: C_18  and  S_19
REMARK    5  A    between atoms: S_19  and  C_22
REMARK                            x       y       z     vdW  Elec       q    Type
REMARK                         _______ _______ _______ _____ _____    ______ ____
ROOT
ATOM      1  C   UNL     1       2.795   6.695  18.778  0.00  0.00    +0.000 A 
ATOM      2  C   UNL     1       2.195   6.772  20.026  0.00  0.00    +0.000 A 
ATOM      3  C   UNL     1       1.525   7.945  20.393  0.00  0.00    +0.000 A 
ATOM      4  C   UNL     1       1.457   9.036  19.522  0.00  0.00    +0.000 A 
ATOM      5  N   UNL     1       0.826  10.206  19.874  0.00  0.00    +0.000 N 
ATOM      6  C   UNL     1       0.171  10.429  21.178  0.00  0.00    +0.000 C 
ATOM      7  C   UNL     1      -0.443  11.863  21.196  0.00  0.00    +0.000 C 
ATOM      8  C   UNL     1       0.708  12.865  20.969  0.00  0.00    +0.000 C 
ATOM      9  C   UNL     1       1.408  12.554  19.628  0.00  0.00    +0.000 C 
ATOM     10  C   UNL     1       0.725  11.348  18.942  0.00  0.00    +0.000 C 
ATOM     11  C   UNL     1      -0.778  11.698  18.760  0.00  0.00    +0.000 C 
ATOM     12  N   UNL     1      -1.394  12.004  20.066  0.00  0.00    +0.000 N 
ATOM     13  C   UNL     1      -2.715  12.373  20.254  0.00  0.00    +0.000 C 
ATOM     14  O   UNL     1      -3.178  12.621  21.366  0.00  0.00    +0.000 OA
ATOM     15  N   UNL     1       2.034   8.947  18.302  0.00  0.00    +0.000 NA
ATOM     16  C   UNL     1       2.682   7.800  17.957  0.00  0.00    +0.000 A 
ENDROOT
BRANCH   1  18
ATOM     17  N   UNL     1       4.085   4.584  18.021  0.00  0.00    +0.000 NA
ATOM     18  C   UNL     1       3.510   5.531  18.360  0.00  0.00    +0.000 C 
ENDBRANCH   1  18
BRANCH  13  19
ATOM     19  C   UNL     1      -3.600  12.408  19.017  0.00  0.00    +0.000 C 
BRANCH  19  20
ATOM     20  C   UNL     1      -4.430  11.135  18.853  0.00  0.00    +0.000 C 
BRANCH  20  21
ATOM     21  S   UNL     1      -6.146  11.481  19.204  0.00  0.00    +0.000 S 
ATOM     22  O   UNL     1      -6.970  10.550  18.457  0.00  0.00    +0.000 OA
ATOM     23  O   UNL     1      -6.273  11.570  20.647  0.00  0.00    +0.000 OA
BRANCH  21  24
ATOM     24  C   UNL     1      -6.485  13.103  18.537  0.00  0.00    +0.000 A 
ATOM     25  C   UNL     1      -6.683  13.225  17.147  0.00  0.00    +0.000 A 
ATOM     26  C   UNL     1      -6.905  14.465  16.553  0.00  0.00    +0.000 A 
ATOM     27  C   UNL     1      -6.923  15.621  17.331  0.00  0.00    +0.000 A 
ATOM     28  C   UNL     1      -6.702  15.538  18.721  0.00  0.00    +0.000 A 
ATOM     29  N   UNL     1      -6.681  16.623  19.584  0.00  0.00    +0.000 NA
ATOM     30  C   UNL     1      -6.423  16.212  20.801  0.00  0.00    +0.000 A 
ATOM     31  S   UNL     1      -6.211  14.530  21.001  0.00  0.00    +0.000 S 
ATOM     32  C   UNL     1      -6.481  14.284  19.309  0.00  0.00    +0.000 A 
ENDBRANCH  21  24
ENDBRANCH  20  21
ENDBRANCH  19  20
ENDBRANCH  13  19
TORSDOF 5
ENDMDL
MODEL 9
REMARK VINA RESULT:      -6.7      5.381      8.135
REMARK  Name = 
REMARK  5 active torsions:
REMARK  status: ('A' for Active; 'I' for Inactive)
REMARK    1  A    between atoms: C_2  and  C_3
REMARK    2  A    between atoms: C_15  and  C_17
REMARK    3  A    between atoms: C_17  and  C_18
REMARK    4  A    between atoms: C_18  and  S_19
REMARK    5  A    between atoms: S_19  and  C_22
REMARK                            x       y       z     vdW  Elec       q    Type
REMARK                         _______ _______ _______ _____ _____    ______ ____
ROOT
ATOM      1  C   UNL     1       9.796  15.064  18.486  0.00  0.00    +0.000 A 
ATOM      2  C   UNL     1       9.470  14.416  19.667  0.00  0.00    +0.000 A 
ATOM      3  C   UNL     1       8.168  14.523  20.170  0.00  0.00    +0.000 A 
ATOM      4  C   UNL     1       7.199  15.275  19.501  0.00  0.00    +0.000 A 
ATOM      5  N   UNL     1       5.922  15.414  19.993  0.00  0.00    +0.000 N 
ATOM      6  C   UNL     1       5.451  14.800  21.250  0.00  0.00    +0.000 C 
ATOM      7  C   UNL     1       3.950  15.169  21.462  0.00  0.00    +0.000 C 
ATOM      8  C   UNL     1       3.853  16.707  21.520  0.00  0.00    +0.000 C 
ATOM      9  C   UNL     1       4.417  17.311  20.215  0.00  0.00    +0.000 C 
ATOM     10  C   UNL     1       4.887  16.182  19.269  0.00  0.00    +0.000 C 
ATOM     11  C   UNL     1       3.674  15.244  19.015  0.00  0.00    +0.000 C 
ATOM     12  N   UNL     1       3.163  14.710  20.292  0.00  0.00    +0.000 N 
ATOM     13  C   UNL     1       2.077  13.861  20.419  0.00  0.00    +0.000 C 
ATOM     14  O   UNL     1       1.689  13.446  21.510  0.00  0.00    +0.000 OA
ATOM     15  N   UNL     1       7.523  15.893  18.343  0.00  0.00    +0.000 NA
ATOM     16  C   UNL     1       8.792  15.780  17.863  0.00  0.00    +0.000 A 
ENDROOT
BRANCH   1  18
ATOM     17  N   UNL     1      12.185  14.959  17.497  0.00  0.00    +0.000 NA
ATOM     18  C   UNL     1      11.114  15.006  17.937  0.00  0.00    +0.000 C 
ENDBRANCH   1  18
BRANCH  13  19
ATOM     19  C   UNL     1       1.404  13.409  19.132  0.00  0.00    +0.000 C 
BRANCH  19  20
ATOM     20  C   UNL     1       1.839  12.009  18.702  0.00  0.00    +0.000 C 
BRANCH  20  21
ATOM     21  S   UNL     1       0.446  10.895  18.766  0.00  0.00    +0.000 S 
ATOM     22  O   UNL     1      -0.741  11.609  18.335  0.00  0.00    +0.000 OA
ATOM     23  O   UNL     1       0.848   9.676  18.088  0.00  0.00    +0.000 OA
BRANCH  21  24
ATOM     24  C   UNL     1       0.195  10.491  20.488  0.00  0.00    +0.000 A 
ATOM     25  C   UNL     1       0.924   9.414  21.033  0.00  0.00    +0.000 A 
ATOM     26  C   UNL     1       0.742   9.013  22.354  0.00  0.00    +0.000 A 
ATOM     27  C   UNL     1      -0.181   9.670  23.166  0.00  0.00    +0.000 A 
ATOM     28  C   UNL     1      -0.945  10.734  22.644  0.00  0.00    +0.000 A 
ATOM     29  N   UNL     1      -1.901  11.443  23.355  0.00  0.00    +0.000 NA
ATOM     30  C   UNL     1      -2.449  12.344  22.578  0.00  0.00    +0.000 A 
ATOM     31  S   UNL     1      -1.858  12.420  20.979  0.00  0.00    +0.000 S 
ATOM     32  C   UNL     1      -0.755  11.130  21.312  0.00  0.00    +0.000 A 
ENDBRANCH  21  24
ENDBRANCH  20  21
ENDBRANCH  19  20
ENDBRANCH  13  19
TORSDOF 5
ENDMDL
