MODEL 1
REMARK VINA RESULT:      -9.4      0.000      0.000
REMARK  Name = 
REMARK  8 active torsions:
REMARK  status: ('A' for Active; 'I' for Inactive)
REMARK    1  A    between atoms: C_1  and  C_2
REMARK    2  A    between atoms: C_4  and  C_5
REMARK    3  A    between atoms: C_8  and  C_9
REMARK    4  A    between atoms: C_16  and  C_17
REMARK    5  A    between atoms: C_17  and  O_18
REMARK    6  A    between atoms: O_18  and  C_19
REMARK    7  A    between atoms: C_24  and  C_25
REMARK    8  A    between atoms: C_25  and  N_26
REMARK                            x       y       z     vdW  Elec       q    Type
REMARK                         _______ _______ _______ _____ _____    ______ ____
ROOT
ATOM      1  O   UNL     1       5.331   5.301  17.055  0.00  0.00    +0.000 OA
ENDROOT
BRANCH   1   2
ATOM      2  C   UNL     1       4.374   6.071  17.656  0.00  0.00    +0.000 A 
ATOM      3  C   UNL     1       3.919   5.523  18.862  0.00  0.00    +0.000 A 
ATOM      4  C   UNL     1       2.940   6.148  19.635  0.00  0.00    +0.000 A 
ATOM      5  C   UNL     1       2.445   7.349  19.145  0.00  0.00    +0.000 A 
ATOM      6  O   UNL     1       1.508   8.109  19.769  0.00  0.00    +0.000 OA
ATOM      7  C   UNL     1       1.298   9.216  19.000  0.00  0.00    +0.000 A 
ATOM      8  C   UNL     1       2.088   9.147  17.863  0.00  0.00    +0.000 A 
ATOM      9  C   UNL     1       2.853   7.942  17.957  0.00  0.00    +0.000 A 
ATOM     10  C   UNL     1       3.848   7.287  17.186  0.00  0.00    +0.000 A 
BRANCH   7  11
ATOM     11  C   UNL     1       0.355  10.218  19.574  0.00  0.00    +0.000 C 
BRANCH  11  12
ATOM     12  N   UNL     1      -0.194  11.059  18.523  0.00  0.00    +0.000 N 
ATOM     13  O   UNL     1      -1.227  10.413  17.756  0.00  0.00    +0.000 OA
ATOM     14  C   UNL     1      -2.173  11.364  17.465  0.00  0.00    +0.000 A 
ATOM     15  O   UNL     1      -3.213  11.157  16.864  0.00  0.00    +0.000 OA
ATOM     16  N   UNL     1      -1.797  12.529  18.017  0.00  0.00    +0.000 N 
ATOM     17  C   UNL     1      -0.745  12.301  18.834  0.00  0.00    +0.000 A 
ATOM     18  O   UNL     1      -0.409  13.036  19.751  0.00  0.00    +0.000 OA
ATOM     19  H   UNL     1      -2.422  13.310  18.115  0.00  0.00    +0.000 HD
ENDBRANCH  11  12
ENDBRANCH   7  11
ENDBRANCH   1   2
BRANCH   1  20
ATOM     20  C   UNL     1       6.405   5.933  16.356  0.00  0.00    +0.000 C 
BRANCH  20  26
ATOM     21  C   UNL     1       7.981   5.195  19.252  0.00  0.00    +0.000 C 
ATOM     22  C   UNL     1       7.848   6.434  18.464  0.00  0.00    +0.000 A 
ATOM     23  O   UNL     1       8.458   7.547  18.963  0.00  0.00    +0.000 OA
ATOM     24  C   UNL     1       8.157   8.536  18.067  0.00  0.00    +0.000 A 
ATOM     25  N   UNL     1       7.426   8.132  17.045  0.00  0.00    +0.000 NA
ATOM     26  C   UNL     1       7.212   6.784  17.290  0.00  0.00    +0.000 A 
BRANCH  24  27
ATOM     27  C   UNL     1       8.674   9.866  18.375  0.00  0.00    +0.000 A 
ATOM     28  C   UNL     1       9.490  10.098  19.494  0.00  0.00    +0.000 A 
ATOM     29  C   UNL     1       9.979  11.378  19.775  0.00  0.00    +0.000 A 
ATOM     30  C   UNL     1       9.665  12.457  18.940  0.00  0.00    +0.000 A 
ATOM     31  C   UNL     1       8.843  12.231  17.824  0.00  0.00    +0.000 A 
ATOM     32  C   UNL     1       8.355  10.949  17.545  0.00  0.00    +0.000 A 
BRANCH  30  33
ATOM     33  C   UNL     1      10.206  13.839  19.223  0.00  0.00    +0.000 C 
ATOM     34  F   UNL     1      11.008  14.322  18.232  0.00  0.00    +0.000 F 
ATOM     35  F   UNL     1       9.219  14.762  19.385  0.00  0.00    +0.000 F 
ATOM     36  F   UNL     1      10.953  13.885  20.361  0.00  0.00    +0.000 F 
ENDBRANCH  30  33
ENDBRANCH  24  27
ENDBRANCH  20  26
ENDBRANCH   1  20
TORSDOF 7
ENDMDL
MODEL 2
REMARK VINA RESULT:      -8.7      4.384      8.169
REMARK  Name = 
REMARK  8 active torsions:
REMARK  status: ('A' for Active; 'I' for Inactive)
REMARK    1  A    between atoms: C_1  and  C_2
REMARK    2  A    between atoms: C_4  and  C_5
REMARK    3  A    between atoms: C_8  and  C_9
REMARK    4  A    between atoms: C_16  and  C_17
REMARK    5  A    between atoms: C_17  and  O_18
REMARK    6  A    between atoms: O_18  and  C_19
REMARK    7  A    between atoms: C_24  and  C_25
REMARK    8  A    between atoms: C_25  and  N_26
REMARK                            x       y       z     vdW  Elec       q    Type
REMARK                         _______ _______ _______ _____ _____    ______ ____
ROOT
ATOM      1  O   UNL     1       6.033   4.688  16.538  0.00  0.00    +0.000 OA
ENDROOT
BRANCH   1   2
ATOM      2  C   UNL     1       6.725   5.700  17.144  0.00  0.00    +0.000 A 
ATOM      3  C   UNL     1       7.433   5.269  18.273  0.00  0.00    +0.000 A 
ATOM      4  C   UNL     1       8.203   6.144  19.041  0.00  0.00    +0.000 A 
ATOM      5  C   UNL     1       8.235   7.466  18.618  0.00  0.00    +0.000 A 
ATOM      6  O   UNL     1       8.945   8.452  19.223  0.00  0.00    +0.000 OA
ATOM      7  C   UNL     1       8.746   9.599  18.511  0.00  0.00    +0.000 A 
ATOM      8  C   UNL     1       7.879   9.346  17.459  0.00  0.00    +0.000 A 
ATOM      9  C   UNL     1       7.554   7.954  17.510  0.00  0.00    +0.000 A 
ATOM     10  C   UNL     1       6.775   7.047  16.746  0.00  0.00    +0.000 A 
BRANCH   7  11
ATOM     11  C   UNL     1       9.523  10.781  18.981  0.00  0.00    +0.000 C 
BRANCH  11  12
ATOM     12  N   UNL     1       9.446  11.858  18.009  0.00  0.00    +0.000 N 
ATOM     13  O   UNL     1       8.538  12.908  18.390  0.00  0.00    +0.000 OA
ATOM     14  C   UNL     1       9.098  14.096  17.992  0.00  0.00    +0.000 A 
ATOM     15  O   UNL     1       8.619  15.199  18.194  0.00  0.00    +0.000 OA
ATOM     16  N   UNL     1      10.286  13.842  17.418  0.00  0.00    +0.000 N 
ATOM     17  C   UNL     1      10.599  12.545  17.629  0.00  0.00    +0.000 A 
ATOM     18  O   UNL     1      11.733  12.091  17.581  0.00  0.00    +0.000 OA
ATOM     19  H   UNL     1      10.965  14.559  17.237  0.00  0.00    +0.000 HD
ENDBRANCH  11  12
ENDBRANCH   7  11
ENDBRANCH   1   2
BRANCH   1  20
ATOM     20  C   UNL     1       5.203   3.833  17.326  0.00  0.00    +0.000 C 
BRANCH  20  26
ATOM     21  C   UNL     1       2.041   2.758  17.838  0.00  0.00    +0.000 C 
ATOM     22  C   UNL     1       2.692   4.073  17.971  0.00  0.00    +0.000 A 
ATOM     23  O   UNL     1       1.903   5.111  18.372  0.00  0.00    +0.000 OA
ATOM     24  C   UNL     1       2.738   6.194  18.386  0.00  0.00    +0.000 A 
ATOM     25  N   UNL     1       3.983   5.918  18.044  0.00  0.00    +0.000 NA
ATOM     26  C   UNL     1       3.968   4.560  17.767  0.00  0.00    +0.000 A 
BRANCH  24  27
ATOM     27  C   UNL     1       2.136   7.469  18.762  0.00  0.00    +0.000 A 
ATOM     28  C   UNL     1       1.921   8.489  17.821  0.00  0.00    +0.000 A 
ATOM     29  C   UNL     1       1.341   9.704  18.197  0.00  0.00    +0.000 A 
ATOM     30  C   UNL     1       0.959   9.929  19.525  0.00  0.00    +0.000 A 
ATOM     31  C   UNL     1       1.180   8.915  20.471  0.00  0.00    +0.000 A 
ATOM     32  C   UNL     1       1.761   7.698  20.092  0.00  0.00    +0.000 A 
BRANCH  30  33
ATOM     33  C   UNL     1       0.312  11.230  19.937  0.00  0.00    +0.000 C 
ATOM     34  F   UNL     1      -0.995  11.096  20.299  0.00  0.00    +0.000 F 
ATOM     35  F   UNL     1       0.935  11.808  21.001  0.00  0.00    +0.000 F 
ATOM     36  F   UNL     1       0.329  12.160  18.942  0.00  0.00    +0.000 F 
ENDBRANCH  30  33
ENDBRANCH  24  27
ENDBRANCH  20  26
ENDBRANCH   1  20
TORSDOF 7
ENDMDL
MODEL 3
REMARK VINA RESULT:      -8.7      4.386      8.137
REMARK  Name = 
REMARK  8 active torsions:
REMARK  status: ('A' for Active; 'I' for Inactive)
REMARK    1  A    between atoms: C_1  and  C_2
REMARK    2  A    between atoms: C_4  and  C_5
REMARK    3  A    between atoms: C_8  and  C_9
REMARK    4  A    between atoms: C_16  and  C_17
REMARK    5  A    between atoms: C_17  and  O_18
REMARK    6  A    between atoms: O_18  and  C_19
REMARK    7  A    between atoms: C_24  and  C_25
REMARK    8  A    between atoms: C_25  and  N_26
REMARK                            x       y       z     vdW  Elec       q    Type
REMARK                         _______ _______ _______ _____ _____    ______ ____
ROOT
ATOM      1  O   UNL     1       5.789   4.726  16.306  0.00  0.00    +0.000 OA
ENDROOT
BRANCH   1   2
ATOM      2  C   UNL     1       6.524   5.664  16.977  0.00  0.00    +0.000 A 
ATOM      3  C   UNL     1       7.267   5.115  18.029  0.00  0.00    +0.000 A 
ATOM      4  C   UNL     1       8.085   5.899  18.844  0.00  0.00    +0.000 A 
ATOM      5  C   UNL     1       8.126   7.255  18.549  0.00  0.00    +0.000 A 
ATOM      6  O   UNL     1       8.879   8.167  19.216  0.00  0.00    +0.000 OA
ATOM      7  C   UNL     1       8.675   9.380  18.626  0.00  0.00    +0.000 A 
ATOM      8  C   UNL     1       7.762   9.244  17.591  0.00  0.00    +0.000 A 
ATOM      9  C   UNL     1       7.411   7.859  17.522  0.00  0.00    +0.000 A 
ATOM     10  C   UNL     1       6.585   7.042  16.708  0.00  0.00    +0.000 A 
BRANCH   7  11
ATOM     11  C   UNL     1       9.494  10.499  19.174  0.00  0.00    +0.000 C 
BRANCH  11  12
ATOM     12  N   UNL     1       9.656  11.544  18.177  0.00  0.00    +0.000 N 
ATOM     13  O   UNL     1       8.737  12.640  18.343  0.00  0.00    +0.000 OA
ATOM     14  C   UNL     1       9.416  13.792  18.033  0.00  0.00    +0.000 A 
ATOM     15  O   UNL     1       8.955  14.918  18.107  0.00  0.00    +0.000 OA
ATOM     16  N   UNL     1      10.681  13.474  17.712  0.00  0.00    +0.000 N 
ATOM     17  C   UNL     1      10.890  12.173  18.016  0.00  0.00    +0.000 A 
ATOM     18  O   UNL     1      11.991  11.676  18.205  0.00  0.00    +0.000 OA
ATOM     19  H   UNL     1      11.414  14.158  17.651  0.00  0.00    +0.000 HD
ENDBRANCH  11  12
ENDBRANCH   7  11
ENDBRANCH   1   2
BRANCH   1  20
ATOM     20  C   UNL     1       4.950   3.832  17.040  0.00  0.00    +0.000 C 
BRANCH  20  26
ATOM     21  C   UNL     1       3.173   2.896  19.757  0.00  0.00    +0.000 C 
ATOM     22  C   UNL     1       3.308   4.172  19.031  0.00  0.00    +0.000 A 
ATOM     23  O   UNL     1       2.580   5.226  19.502  0.00  0.00    +0.000 OA
ATOM     24  C   UNL     1       2.867   6.253  18.645  0.00  0.00    +0.000 A 
ATOM     25  N   UNL     1       3.722   5.935  17.690  0.00  0.00    +0.000 NA
ATOM     26  C   UNL     1       4.008   4.598  17.920  0.00  0.00    +0.000 A 
BRANCH  24  27
ATOM     27  C   UNL     1       2.191   7.520  18.906  0.00  0.00    +0.000 A 
ATOM     28  C   UNL     1       1.744   7.865  20.192  0.00  0.00    +0.000 A 
ATOM     29  C   UNL     1       1.100   9.083  20.427  0.00  0.00    +0.000 A 
ATOM     30  C   UNL     1       0.888   9.988  19.380  0.00  0.00    +0.000 A 
ATOM     31  C   UNL     1       1.325   9.643  18.090  0.00  0.00    +0.000 A 
ATOM     32  C   UNL     1       1.971   8.423  17.858  0.00  0.00    +0.000 A 
BRANCH  30  33
ATOM     33  C   UNL     1       0.211  11.316  19.627  0.00  0.00    +0.000 C 
ATOM     34  F   UNL     1       0.298  11.737  20.920  0.00  0.00    +0.000 F 
ATOM     35  F   UNL     1       0.741  12.319  18.873  0.00  0.00    +0.000 F 
ATOM     36  F   UNL     1      -1.118  11.288  19.333  0.00  0.00    +0.000 F 
ENDBRANCH  30  33
ENDBRANCH  24  27
ENDBRANCH  20  26
ENDBRANCH   1  20
TORSDOF 7
ENDMDL
MODEL 4
REMARK VINA RESULT:      -8.6      6.119     10.207
REMARK  Name = 
REMARK  8 active torsions:
REMARK  status: ('A' for Active; 'I' for Inactive)
REMARK    1  A    between atoms: C_1  and  C_2
REMARK    2  A    between atoms: C_4  and  C_5
REMARK    3  A    between atoms: C_8  and  C_9
REMARK    4  A    between atoms: C_16  and  C_17
REMARK    5  A    between atoms: C_17  and  O_18
REMARK    6  A    between atoms: O_18  and  C_19
REMARK    7  A    between atoms: C_24  and  C_25
REMARK    8  A    between atoms: C_25  and  N_26
REMARK                            x       y       z     vdW  Elec       q    Type
REMARK                         _______ _______ _______ _____ _____    ______ ____
ROOT
ATOM      1  O   UNL     1       1.410   6.491  20.267  0.00  0.00    +0.000 OA
ENDROOT
BRANCH   1   2
ATOM      2  C   UNL     1       2.212   5.771  19.425  0.00  0.00    +0.000 A 
ATOM      3  C   UNL     1       1.971   4.393  19.497  0.00  0.00    +0.000 A 
ATOM      4  C   UNL     1       2.683   3.476  18.722  0.00  0.00    +0.000 A 
ATOM      5  C   UNL     1       3.640   4.008  17.868  0.00  0.00    +0.000 A 
ATOM      6  O   UNL     1       4.412   3.276  17.025  0.00  0.00    +0.000 OA
ATOM      7  C   UNL     1       5.209   4.145  16.338  0.00  0.00    +0.000 A 
ATOM      8  C   UNL     1       4.961   5.439  16.768  0.00  0.00    +0.000 A 
ATOM      9  C   UNL     1       3.927   5.362  17.753  0.00  0.00    +0.000 A 
ATOM     10  C   UNL     1       3.192   6.275  18.553  0.00  0.00    +0.000 A 
BRANCH   7  11
ATOM     11  C   UNL     1       6.072   3.524  15.293  0.00  0.00    +0.000 C 
BRANCH  11  12
ATOM     12  N   UNL     1       6.317   4.464  14.212  0.00  0.00    +0.000 N 
ATOM     13  O   UNL     1       7.469   5.299  14.431  0.00  0.00    +0.000 OA
ATOM     14  C   UNL     1       8.085   5.470  13.217  0.00  0.00    +0.000 A 
ATOM     15  O   UNL     1       9.120   6.088  13.038  0.00  0.00    +0.000 OA
ATOM     16  N   UNL     1       7.403   4.783  12.286  0.00  0.00    +0.000 N 
ATOM     17  C   UNL     1       6.489   4.003  12.907  0.00  0.00    +0.000 A 
ATOM     18  O   UNL     1       5.983   3.006  12.415  0.00  0.00    +0.000 OA
ATOM     19  H   UNL     1       7.774   4.590  11.373  0.00  0.00    +0.000 HD
ENDBRANCH  11  12
ENDBRANCH   7  11
ENDBRANCH   1   2
BRANCH   1  20
ATOM     20  C   UNL     1       1.930   7.657  20.907  0.00  0.00    +0.000 C 
BRANCH  20  26
ATOM     21  C   UNL     1       1.480   9.457  18.084  0.00  0.00    +0.000 C 
ATOM     22  C   UNL     1       0.906   9.547  19.438  0.00  0.00    +0.000 A 
ATOM     23  O   UNL     1       0.009  10.551  19.659  0.00  0.00    +0.000 OA
ATOM     24  C   UNL     1      -0.336  10.420  20.977  0.00  0.00    +0.000 A 
ATOM     25  N   UNL     1       0.256   9.413  21.592  0.00  0.00    +0.000 NA
ATOM     26  C   UNL     1       1.064   8.846  20.617  0.00  0.00    +0.000 A 
BRANCH  24  27
ATOM     27  C   UNL     1      -1.283  11.402  21.497  0.00  0.00    +0.000 A 
ATOM     28  C   UNL     1      -1.967  12.287  20.648  0.00  0.00    +0.000 A 
ATOM     29  C   UNL     1      -2.873  13.221  21.161  0.00  0.00    +0.000 A 
ATOM     30  C   UNL     1      -3.119  13.290  22.537  0.00  0.00    +0.000 A 
ATOM     31  C   UNL     1      -2.431  12.412  23.391  0.00  0.00    +0.000 A 
ATOM     32  C   UNL     1      -1.524  11.478  22.875  0.00  0.00    +0.000 A 
BRANCH  30  33
ATOM     33  C   UNL     1      -4.111  14.280  23.099  0.00  0.00    +0.000 C 
ATOM     34  F   UNL     1      -4.037  15.511  22.520  0.00  0.00    +0.000 F 
ATOM     35  F   UNL     1      -5.401  13.872  22.940  0.00  0.00    +0.000 F 
ATOM     36  F   UNL     1      -3.945  14.487  24.434  0.00  0.00    +0.000 F 
ENDBRANCH  30  33
ENDBRANCH  24  27
ENDBRANCH  20  26
ENDBRANCH   1  20
TORSDOF 7
ENDMDL
MODEL 5
REMARK VINA RESULT:      -8.5      6.192      9.150
REMARK  Name = 
REMARK  8 active torsions:
REMARK  status: ('A' for Active; 'I' for Inactive)
REMARK    1  A    between atoms: C_1  and  C_2
REMARK    2  A    between atoms: C_4  and  C_5
REMARK    3  A    between atoms: C_8  and  C_9
REMARK    4  A    between atoms: C_16  and  C_17
REMARK    5  A    between atoms: C_17  and  O_18
REMARK    6  A    between atoms: O_18  and  C_19
REMARK    7  A    between atoms: C_24  and  C_25
REMARK    8  A    between atoms: C_25  and  N_26
REMARK                            x       y       z     vdW  Elec       q    Type
REMARK                         _______ _______ _______ _____ _____    ______ ____
ROOT
ATOM      1  O   UNL     1      -0.379  11.432  18.739  0.00  0.00    +0.000 OA
ENDROOT
BRANCH   1   2
ATOM      2  C   UNL     1      -1.683  11.758  18.996  0.00  0.00    +0.000 A 
ATOM      3  C   UNL     1      -2.581  11.091  18.153  0.00  0.00    +0.000 A 
ATOM      4  C   UNL     1      -3.960  11.282  18.245  0.00  0.00    +0.000 A 
ATOM      5  C   UNL     1      -4.394  12.166  19.224  0.00  0.00    +0.000 A 
ATOM      6  O   UNL     1      -5.695  12.460  19.476  0.00  0.00    +0.000 OA
ATOM      7  C   UNL     1      -5.724  13.342  20.516  0.00  0.00    +0.000 A 
ATOM      8  C   UNL     1      -4.428  13.633  20.912  0.00  0.00    +0.000 A 
ATOM      9  C   UNL     1      -3.554  12.858  20.087  0.00  0.00    +0.000 A 
ATOM     10  C   UNL     1      -2.155  12.649  19.974  0.00  0.00    +0.000 A 
BRANCH   7  11
ATOM     11  C   UNL     1      -7.086  13.716  20.995  0.00  0.00    +0.000 C 
BRANCH  11  12
ATOM     12  N   UNL     1      -7.257  13.336  22.387  0.00  0.00    +0.000 N 
ATOM     13  O   UNL     1      -6.340  12.313  22.816  0.00  0.00    +0.000 OA
ATOM     14  C   UNL     1      -5.978  12.606  24.107  0.00  0.00    +0.000 A 
ATOM     15  O   UNL     1      -5.176  11.972  24.771  0.00  0.00    +0.000 OA
ATOM     16  N   UNL     1      -6.592  13.741  24.481  0.00  0.00    +0.000 N 
ATOM     17  C   UNL     1      -7.170  14.298  23.393  0.00  0.00    +0.000 A 
ATOM     18  O   UNL     1      -7.470  15.478  23.298  0.00  0.00    +0.000 OA
ATOM     19  H   UNL     1      -6.326  14.259  25.299  0.00  0.00    +0.000 HD
ENDBRANCH  11  12
ENDBRANCH   7  11
ENDBRANCH   1   2
BRANCH   1  20
ATOM     20  C   UNL     1       0.566  11.418  19.810  0.00  0.00    +0.000 C 
BRANCH  20  26
ATOM     21  C   UNL     1      -0.019   9.850  22.745  0.00  0.00    +0.000 C 
ATOM     22  C   UNL     1       0.571   9.411  21.468  0.00  0.00    +0.000 A 
ATOM     23  O   UNL     1       0.996   8.116  21.401  0.00  0.00    +0.000 OA
ATOM     24  C   UNL     1       1.514   7.988  20.141  0.00  0.00    +0.000 A 
ATOM     25  N   UNL     1       1.435   9.085  19.412  0.00  0.00    +0.000 NA
ATOM     26  C   UNL     1       0.838  10.012  20.254  0.00  0.00    +0.000 A 
BRANCH  24  27
ATOM     27  C   UNL     1       2.073   6.683  19.803  0.00  0.00    +0.000 A 
ATOM     28  C   UNL     1       2.804   6.478  18.622  0.00  0.00    +0.000 A 
ATOM     29  C   UNL     1       3.335   5.222  18.313  0.00  0.00    +0.000 A 
ATOM     30  C   UNL     1       3.149   4.139  19.180  0.00  0.00    +0.000 A 
ATOM     31  C   UNL     1       2.411   4.337  20.359  0.00  0.00    +0.000 A 
ATOM     32  C   UNL     1       1.880   5.596  20.666  0.00  0.00    +0.000 A 
BRANCH  30  33
ATOM     33  C   UNL     1       3.736   2.784  18.866  0.00  0.00    +0.000 C 
ATOM     34  F   UNL     1       4.199   2.675  17.589  0.00  0.00    +0.000 F 
ATOM     35  F   UNL     1       4.790   2.473  19.670  0.00  0.00    +0.000 F 
ATOM     36  F   UNL     1       2.836   1.774  19.022  0.00  0.00    +0.000 F 
ENDBRANCH  30  33
ENDBRANCH  24  27
ENDBRANCH  20  26
ENDBRANCH   1  20
TORSDOF 7
ENDMDL
MODEL 6
REMARK VINA RESULT:      -8.5      6.372     11.092
REMARK  Name = 
REMARK  8 active torsions:
REMARK  status: ('A' for Active; 'I' for Inactive)
REMARK    1  A    between atoms: C_1  and  C_2
REMARK    2  A    between atoms: C_4  and  C_5
REMARK    3  A    between atoms: C_8  and  C_9
REMARK    4  A    between atoms: C_16  and  C_17
REMARK    5  A    between atoms: C_17  and  O_18
REMARK    6  A    between atoms: O_18  and  C_19
REMARK    7  A    between atoms: C_24  and  C_25
REMARK    8  A    between atoms: C_25  and  N_26
REMARK                            x       y       z     vdW  Elec       q    Type
REMARK                         _______ _______ _______ _____ _____    ______ ____
ROOT
ATOM      1  O   UNL     1       0.546   8.142  21.451  0.00  0.00    +0.000 OA
ENDROOT
BRANCH   1   2
ATOM      2  C   UNL     1       1.414   7.604  20.541  0.00  0.00    +0.000 A 
ATOM      3  C   UNL     1       1.696   6.256  20.797  0.00  0.00    +0.000 A 
ATOM      4  C   UNL     1       2.561   5.515  19.990  0.00  0.00    +0.000 A 
ATOM      5  C   UNL     1       3.122   6.188  18.913  0.00  0.00    +0.000 A 
ATOM      6  O   UNL     1       3.965   5.628  18.009  0.00  0.00    +0.000 OA
ATOM      7  C   UNL     1       4.283   6.588  17.093  0.00  0.00    +0.000 A 
ATOM      8  C   UNL     1       3.657   7.778  17.433  0.00  0.00    +0.000 A 
ATOM      9  C   UNL     1       2.883   7.522  18.608  0.00  0.00    +0.000 A 
ATOM     10  C   UNL     1       2.002   8.256  19.444  0.00  0.00    +0.000 A 
BRANCH   7  11
ATOM     11  C   UNL     1       5.140   6.129  15.963  0.00  0.00    +0.000 C 
BRANCH  11  12
ATOM     12  N   UNL     1       6.483   5.830  16.433  0.00  0.00    +0.000 N 
ATOM     13  O   UNL     1       6.745   6.321  17.761  0.00  0.00    +0.000 OA
ATOM     14  C   UNL     1       7.524   5.385  18.394  0.00  0.00    +0.000 A 
ATOM     15  O   UNL     1       7.900   5.454  19.552  0.00  0.00    +0.000 OA
ATOM     16  N   UNL     1       7.734   4.358  17.554  0.00  0.00    +0.000 N 
ATOM     17  C   UNL     1       6.933   4.511  16.475  0.00  0.00    +0.000 A 
ATOM     18  O   UNL     1       6.598   3.604  15.729  0.00  0.00    +0.000 OA
ATOM     19  H   UNL     1       8.097   3.473  17.859  0.00  0.00    +0.000 HD
ENDBRANCH  11  12
ENDBRANCH   7  11
ENDBRANCH   1   2
BRANCH   1  20
ATOM     20  C   UNL     1       0.967   9.245  22.256  0.00  0.00    +0.000 C 
BRANCH  20  26
ATOM     21  C   UNL     1       1.300  12.061  20.419  0.00  0.00    +0.000 C 
ATOM     22  C   UNL     1       0.228  11.547  21.290  0.00  0.00    +0.000 A 
ATOM     23  O   UNL     1      -0.879  12.333  21.429  0.00  0.00    +0.000 OA
ATOM     24  C   UNL     1      -1.684  11.642  22.293  0.00  0.00    +0.000 A 
ATOM     25  N   UNL     1      -1.182  10.489  22.692  0.00  0.00    +0.000 NA
ATOM     26  C   UNL     1       0.051  10.417  22.062  0.00  0.00    +0.000 A 
BRANCH  24  27
ATOM     27  C   UNL     1      -2.950  12.279  22.643  0.00  0.00    +0.000 A 
ATOM     28  C   UNL     1      -3.774  12.867  21.669  0.00  0.00    +0.000 A 
ATOM     29  C   UNL     1      -4.985  13.471  22.020  0.00  0.00    +0.000 A 
ATOM     30  C   UNL     1      -5.403  13.500  23.356  0.00  0.00    +0.000 A 
ATOM     31  C   UNL     1      -4.579  12.922  24.334  0.00  0.00    +0.000 A 
ATOM     32  C   UNL     1      -3.366  12.317  23.980  0.00  0.00    +0.000 A 
BRANCH  30  33
ATOM     33  C   UNL     1      -6.720  14.132  23.742  0.00  0.00    +0.000 C 
ATOM     34  F   UNL     1      -7.558  14.331  22.686  0.00  0.00    +0.000 F 
ATOM     35  F   UNL     1      -7.418  13.376  24.633  0.00  0.00    +0.000 F 
ATOM     36  F   UNL     1      -6.563  15.352  24.327  0.00  0.00    +0.000 F 
ENDBRANCH  30  33
ENDBRANCH  24  27
ENDBRANCH  20  26
ENDBRANCH   1  20
TORSDOF 7
ENDMDL
MODEL 7
REMARK VINA RESULT:      -8.4      6.254      8.808
REMARK  Name = 
REMARK  8 active torsions:
REMARK  status: ('A' for Active; 'I' for Inactive)
REMARK    1  A    between atoms: C_1  and  C_2
REMARK    2  A    between atoms: C_4  and  C_5
REMARK    3  A    between atoms: C_8  and  C_9
REMARK    4  A    between atoms: C_16  and  C_17
REMARK    5  A    between atoms: C_17  and  O_18
REMARK    6  A    between atoms: O_18  and  C_19
REMARK    7  A    between atoms: C_24  and  C_25
REMARK    8  A    between atoms: C_25  and  N_26
REMARK                            x       y       z     vdW  Elec       q    Type
REMARK                         _______ _______ _______ _____ _____    ______ ____
ROOT
ATOM      1  O   UNL     1       0.166  11.115  18.625  0.00  0.00    +0.000 OA
ENDROOT
BRANCH   1   2
ATOM      2  C   UNL     1      -1.196  11.126  18.499  0.00  0.00    +0.000 A 
ATOM      3  C   UNL     1      -1.654  10.237  17.519  0.00  0.00    +0.000 A 
ATOM      4  C   UNL     1      -3.011  10.094  17.227  0.00  0.00    +0.000 A 
ATOM      5  C   UNL     1      -3.885  10.878  17.970  0.00  0.00    +0.000 A 
ATOM      6  O   UNL     1      -5.236  10.858  17.843  0.00  0.00    +0.000 OA
ATOM      7  C   UNL     1      -5.747  11.739  18.751  0.00  0.00    +0.000 A 
ATOM      8  C   UNL     1      -4.710  12.346  19.442  0.00  0.00    +0.000 A 
ATOM      9  C   UNL     1      -3.492  11.777  18.953  0.00  0.00    +0.000 A 
ATOM     10  C   UNL     1      -2.107  11.908  19.230  0.00  0.00    +0.000 A 
BRANCH   7  11
ATOM     11  C   UNL     1      -7.236  11.790  18.818  0.00  0.00    +0.000 C 
BRANCH  11  12
ATOM     12  N   UNL     1      -7.705  13.157  18.665  0.00  0.00    +0.000 N 
ATOM     13  O   UNL     1      -7.391  13.998  19.790  0.00  0.00    +0.000 OA
ATOM     14  C   UNL     1      -7.074  15.239  19.296  0.00  0.00    +0.000 A 
ATOM     15  O   UNL     1      -6.714  16.190  19.968  0.00  0.00    +0.000 OA
ATOM     16  N   UNL     1      -7.154  15.203  17.955  0.00  0.00    +0.000 N 
ATOM     17  C   UNL     1      -7.304  13.917  17.566  0.00  0.00    +0.000 A 
ATOM     18  O   UNL     1      -7.034  13.496  16.450  0.00  0.00    +0.000 OA
ATOM     19  H   UNL     1      -6.772  15.923  17.369  0.00  0.00    +0.000 HD
ENDBRANCH  11  12
ENDBRANCH   7  11
ENDBRANCH   1   2
BRANCH   1  20
ATOM     20  C   UNL     1       0.752  11.110  19.928  0.00  0.00    +0.000 C 
BRANCH  20  26
ATOM     21  C   UNL     1       0.236   9.621  22.916  0.00  0.00    +0.000 C 
ATOM     22  C   UNL     1       0.758   9.137  21.626  0.00  0.00    +0.000 A 
ATOM     23  O   UNL     1       1.136   7.827  21.569  0.00  0.00    +0.000 OA
ATOM     24  C   UNL     1       1.597   7.656  20.292  0.00  0.00    +0.000 A 
ATOM     25  N   UNL     1       1.524   8.741  19.544  0.00  0.00    +0.000 NA
ATOM     26  C   UNL     1       0.994   9.704  20.390  0.00  0.00    +0.000 A 
BRANCH  24  27
ATOM     27  C   UNL     1       2.098   6.326  19.959  0.00  0.00    +0.000 A 
ATOM     28  C   UNL     1       1.581   5.171  20.567  0.00  0.00    +0.000 A 
ATOM     29  C   UNL     1       2.069   3.903  20.236  0.00  0.00    +0.000 A 
ATOM     30  C   UNL     1       3.088   3.761  19.286  0.00  0.00    +0.000 A 
ATOM     31  C   UNL     1       3.614   4.914  18.682  0.00  0.00    +0.000 A 
ATOM     32  C   UNL     1       3.123   6.182  19.015  0.00  0.00    +0.000 A 
BRANCH  30  33
ATOM     33  C   UNL     1       3.608   2.395  18.906  0.00  0.00    +0.000 C 
ATOM     34  F   UNL     1       4.596   1.941  19.727  0.00  0.00    +0.000 F 
ATOM     35  F   UNL     1       2.636   1.441  18.933  0.00  0.00    +0.000 F 
ATOM     36  F   UNL     1       4.128   2.364  17.648  0.00  0.00    +0.000 F 
ENDBRANCH  30  33
ENDBRANCH  24  27
ENDBRANCH  20  26
ENDBRANCH   1  20
TORSDOF 7
ENDMDL
MODEL 8
REMARK VINA RESULT:      -8.4      1.109      1.657
REMARK  Name = 
REMARK  8 active torsions:
REMARK  status: ('A' for Active; 'I' for Inactive)
REMARK    1  A    between atoms: C_1  and  C_2
REMARK    2  A    between atoms: C_4  and  C_5
REMARK    3  A    between atoms: C_8  and  C_9
REMARK    4  A    between atoms: C_16  and  C_17
REMARK    5  A    between atoms: C_17  and  O_18
REMARK    6  A    between atoms: O_18  and  C_19
REMARK    7  A    between atoms: C_24  and  C_25
REMARK    8  A    between atoms: C_25  and  N_26
REMARK                            x       y       z     vdW  Elec       q    Type
REMARK                         _______ _______ _______ _____ _____    ______ ____
ROOT
ATOM      1  O   UNL     1       4.470   4.362  17.875  0.00  0.00    +0.000 OA
ENDROOT
BRANCH   1   2
ATOM      2  C   UNL     1       3.710   5.406  18.328  0.00  0.00    +0.000 A 
ATOM      3  C   UNL     1       3.256   5.213  19.639  0.00  0.00    +0.000 A 
ATOM      4  C   UNL     1       2.461   6.156  20.291  0.00  0.00    +0.000 A 
ATOM      5  C   UNL     1       2.152   7.303  19.570  0.00  0.00    +0.000 A 
ATOM      6  O   UNL     1       1.413   8.337  20.047  0.00  0.00    +0.000 OA
ATOM      7  C   UNL     1       1.346   9.281  19.064  0.00  0.00    +0.000 A 
ATOM      8  C   UNL     1       2.026   8.832  17.943  0.00  0.00    +0.000 A 
ATOM      9  C   UNL     1       2.571   7.550  18.269  0.00  0.00    +0.000 A 
ATOM     10  C   UNL     1       3.375   6.575  17.625  0.00  0.00    +0.000 A 
BRANCH   7  11
ATOM     11  C   UNL     1       0.639  10.539  19.440  0.00  0.00    +0.000 C 
BRANCH  11  12
ATOM     12  N   UNL     1      -0.196  10.999  18.343  0.00  0.00    +0.000 N 
ATOM     13  O   UNL     1      -1.282  10.106  18.039  0.00  0.00    +0.000 OA
ATOM     14  C   UNL     1      -2.367  10.879  17.709  0.00  0.00    +0.000 A 
ATOM     15  O   UNL     1      -3.475  10.453  17.437  0.00  0.00    +0.000 OA
ATOM     16  N   UNL     1      -2.020  12.173  17.811  0.00  0.00    +0.000 N 
ATOM     17  C   UNL     1      -0.808  12.251  18.405  0.00  0.00    +0.000 A 
ATOM     18  O   UNL     1      -0.381  13.242  18.978  0.00  0.00    +0.000 OA
ATOM     19  H   UNL     1      -2.695  12.917  17.820  0.00  0.00    +0.000 HD
ENDBRANCH  11  12
ENDBRANCH   7  11
ENDBRANCH   1   2
BRANCH   1  20
ATOM     20  C   UNL     1       5.853   4.293  18.229  0.00  0.00    +0.000 C 
BRANCH  20  26
ATOM     21  C   UNL     1       7.048   5.060  15.164  0.00  0.00    +0.000 C 
ATOM     22  C   UNL     1       7.050   5.773  16.453  0.00  0.00    +0.000 A 
ATOM     23  O   UNL     1       7.653   6.997  16.477  0.00  0.00    +0.000 OA
ATOM     24  C   UNL     1       7.535   7.413  17.775  0.00  0.00    +0.000 A 
ATOM     25  N   UNL     1       6.898   6.563  18.558  0.00  0.00    +0.000 NA
ATOM     26  C   UNL     1       6.586   5.499  17.725  0.00  0.00    +0.000 A 
BRANCH  24  27
ATOM     27  C   UNL     1       8.129   8.708  18.094  0.00  0.00    +0.000 A 
ATOM     28  C   UNL     1       7.888   9.844  17.304  0.00  0.00    +0.000 A 
ATOM     29  C   UNL     1       8.462  11.078  17.623  0.00  0.00    +0.000 A 
ATOM     30  C   UNL     1       9.293  11.206  18.743  0.00  0.00    +0.000 A 
ATOM     31  C   UNL     1       9.544  10.071  19.531  0.00  0.00    +0.000 A 
ATOM     32  C   UNL     1       8.967   8.836  19.209  0.00  0.00    +0.000 A 
BRANCH  30  33
ATOM     33  C   UNL     1       9.901  12.539  19.108  0.00  0.00    +0.000 C 
ATOM     34  F   UNL     1      10.641  13.092  18.106  0.00  0.00    +0.000 F 
ATOM     35  F   UNL     1       8.961  13.470  19.432  0.00  0.00    +0.000 F 
ATOM     36  F   UNL     1      10.734  12.457  20.183  0.00  0.00    +0.000 F 
ENDBRANCH  30  33
ENDBRANCH  24  27
ENDBRANCH  20  26
ENDBRANCH   1  20
TORSDOF 7
ENDMDL
MODEL 9
REMARK VINA RESULT:      -8.3      6.627     10.550
REMARK  Name = 
REMARK  8 active torsions:
REMARK  status: ('A' for Active; 'I' for Inactive)
REMARK    1  A    between atoms: C_1  and  C_2
REMARK    2  A    between atoms: C_4  and  C_5
REMARK    3  A    between atoms: C_8  and  C_9
REMARK    4  A    between atoms: C_16  and  C_17
REMARK    5  A    between atoms: C_17  and  O_18
REMARK    6  A    between atoms: O_18  and  C_19
REMARK    7  A    between atoms: C_24  and  C_25
REMARK    8  A    between atoms: C_25  and  N_26
REMARK                            x       y       z     vdW  Elec       q    Type
REMARK                         _______ _______ _______ _____ _____    ______ ____
ROOT
ATOM      1  O   UNL     1       0.929  10.398  18.346  0.00  0.00    +0.000 OA
ENDROOT
BRANCH   1   2
ATOM      2  C   UNL     1       1.553   9.208  18.598  0.00  0.00    +0.000 A 
ATOM      3  C   UNL     1       1.314   8.738  19.896  0.00  0.00    +0.000 A 
ATOM      4  C   UNL     1       1.860   7.541  20.361  0.00  0.00    +0.000 A 
ATOM      5  C   UNL     1       2.650   6.837  19.462  0.00  0.00    +0.000 A 
ATOM      6  O   UNL     1       3.245   5.645  19.726  0.00  0.00    +0.000 OA
ATOM      7  C   UNL     1       3.911   5.259  18.600  0.00  0.00    +0.000 A 
ATOM      8  C   UNL     1       3.761   6.226  17.618  0.00  0.00    +0.000 A 
ATOM      9  C   UNL     1       2.925   7.251  18.165  0.00  0.00    +0.000 A 
ATOM     10  C   UNL     1       2.361   8.473  17.715  0.00  0.00    +0.000 A 
BRANCH   7  11
ATOM     11  C   UNL     1       4.560   3.919  18.674  0.00  0.00    +0.000 C 
BRANCH  11  12
ATOM     12  N   UNL     1       3.583   2.900  19.023  0.00  0.00    +0.000 N 
ATOM     13  O   UNL     1       3.125   2.991  20.385  0.00  0.00    +0.000 OA
ATOM     14  C   UNL     1       1.788   2.679  20.387  0.00  0.00    +0.000 A 
ATOM     15  O   UNL     1       1.065   2.699  21.368  0.00  0.00    +0.000 OA
ATOM     16  N   UNL     1       1.402   2.427  19.125  0.00  0.00    +0.000 N 
ATOM     17  C   UNL     1       2.405   2.778  18.288  0.00  0.00    +0.000 A 
ATOM     18  O   UNL     1       2.257   3.033  17.102  0.00  0.00    +0.000 OA
ATOM     19  H   UNL     1       0.437   2.379  18.851  0.00  0.00    +0.000 HD
ENDBRANCH  11  12
ENDBRANCH   7  11
ENDBRANCH   1   2
BRANCH   1  20
ATOM     20  C   UNL     1       1.550  11.619  18.751  0.00  0.00    +0.000 C 
BRANCH  20  26
ATOM     21  C   UNL     1       2.244  14.207  20.809  0.00  0.00    +0.000 C 
ATOM     22  C   UNL     1       1.041  13.384  20.596  0.00  0.00    +0.000 A 
ATOM     23  O   UNL     1      -0.047  13.675  21.367  0.00  0.00    +0.000 OA
ATOM     24  C   UNL     1      -0.992  12.761  20.988  0.00  0.00    +0.000 A 
ATOM     25  N   UNL     1      -0.594  11.936  20.038  0.00  0.00    +0.000 NA
ATOM     26  C   UNL     1       0.714  12.319  19.780  0.00  0.00    +0.000 A 
BRANCH  24  27
ATOM     27  C   UNL     1      -2.272  12.830  21.686  0.00  0.00    +0.000 A 
ATOM     28  C   UNL     1      -3.397  13.435  21.104  0.00  0.00    +0.000 A 
ATOM     29  C   UNL     1      -4.617  13.492  21.785  0.00  0.00    +0.000 A 
ATOM     30  C   UNL     1      -4.742  12.942  23.066  0.00  0.00    +0.000 A 
ATOM     31  C   UNL     1      -3.617  12.343  23.656  0.00  0.00    +0.000 A 
ATOM     32  C   UNL     1      -2.396  12.288  22.972  0.00  0.00    +0.000 A 
BRANCH  30  33
ATOM     33  C   UNL     1      -6.061  12.979  23.801  0.00  0.00    +0.000 C 
ATOM     34  F   UNL     1      -6.080  12.204  24.922  0.00  0.00    +0.000 F 
ATOM     35  F   UNL     1      -6.393  14.234  24.212  0.00  0.00    +0.000 F 
ATOM     36  F   UNL     1      -7.100  12.548  23.034  0.00  0.00    +0.000 F 
ENDBRANCH  30  33
ENDBRANCH  24  27
ENDBRANCH  20  26
ENDBRANCH   1  20
TORSDOF 7
ENDMDL
