MODEL 1
REMARK VINA RESULT:      -6.4      0.000      0.000
REMARK  Name = 
REMARK  2 active torsions:
REMARK  status: ('A' for Active; 'I' for Inactive)
REMARK    1  A    between atoms: C_1  and  S_2
REMARK    2  A    between atoms: S_2  and  C_4
REMARK                            x       y       z     vdW  Elec       q    Type
REMARK                         _______ _______ _______ _____ _____    ______ ____
ROOT
ATOM      1  C   UNL     1       5.324   4.528  17.715  0.00  0.00    +0.000 A 
ATOM      2  C   UNL     1       4.500   3.877  16.885  0.00  0.00    +0.000 A 
ATOM      3  C   UNL     1       3.104   3.505  17.183  0.00  0.00    +0.000 A 
ATOM      4  O   UNL     1       2.413   3.013  16.297  0.00  0.00    +0.000 OA
ATOM      5  C   UNL     1       2.564   3.691  18.544  0.00  0.00    +0.000 A 
ATOM      6  C   UNL     1       1.297   3.155  18.831  0.00  0.00    +0.000 A 
ATOM      7  C   UNL     1       0.753   3.270  20.110  0.00  0.00    +0.000 A 
ATOM      8  C   UNL     1       1.469   3.926  21.105  0.00  0.00    +0.000 A 
ATOM      9  C   UNL     1       2.724   4.471  20.816  0.00  0.00    +0.000 A 
ATOM     10  C   UNL     1       3.284   4.360  19.535  0.00  0.00    +0.000 A 
ATOM     11  S   UNL     1       4.868   5.115  19.281  0.00  0.00    +0.000 S 
ENDROOT
BRANCH   1  13
ATOM     12  C   UNL     1       6.921   6.725  17.329  0.00  0.00    +0.000 C 
ATOM     13  S   UNL     1       6.982   4.930  17.086  0.00  0.00    +0.000 S 
ATOM     14  O   UNL     1       8.029   4.359  18.107  0.00  0.00    +0.000 OA
ENDBRANCH   1  13
TORSDOF 1
ENDMDL
MODEL 2
REMARK VINA RESULT:      -6.4      1.573      1.761
REMARK  Name = 
REMARK  2 active torsions:
REMARK  status: ('A' for Active; 'I' for Inactive)
REMARK    1  A    between atoms: C_1  and  S_2
REMARK    2  A    between atoms: S_2  and  C_4
REMARK                            x       y       z     vdW  Elec       q    Type
REMARK                         _______ _______ _______ _____ _____    ______ ____
ROOT
ATOM      1  C   UNL     1       5.261   4.499  17.024  0.00  0.00    +0.000 A 
ATOM      2  C   UNL     1       4.599   3.336  17.013  0.00  0.00    +0.000 A 
ATOM      3  C   UNL     1       3.336   3.065  17.725  0.00  0.00    +0.000 A 
ATOM      4  O   UNL     1       2.762   1.995  17.542  0.00  0.00    +0.000 OA
ATOM      5  C   UNL     1       2.793   4.057  18.673  0.00  0.00    +0.000 A 
ATOM      6  C   UNL     1       1.694   3.683  19.464  0.00  0.00    +0.000 A 
ATOM      7  C   UNL     1       1.163   4.568  20.402  0.00  0.00    +0.000 A 
ATOM      8  C   UNL     1       1.724   5.833  20.548  0.00  0.00    +0.000 A 
ATOM      9  C   UNL     1       2.809   6.210  19.751  0.00  0.00    +0.000 A 
ATOM     10  C   UNL     1       3.354   5.328  18.806  0.00  0.00    +0.000 A 
ATOM     11  S   UNL     1       4.711   5.928  17.834  0.00  0.00    +0.000 S 
ENDROOT
BRANCH   1  13
ATOM     12  C   UNL     1       5.993   4.388  14.382  0.00  0.00    +0.000 C 
ATOM     13  S   UNL     1       6.766   4.601  16.007  0.00  0.00    +0.000 S 
ATOM     14  O   UNL     1       7.289   6.081  16.081  0.00  0.00    +0.000 OA
ENDBRANCH   1  13
TORSDOF 1
ENDMDL
MODEL 3
REMARK VINA RESULT:      -6.4      1.166      1.166
REMARK  Name = 
REMARK  2 active torsions:
REMARK  status: ('A' for Active; 'I' for Inactive)
REMARK    1  A    between atoms: C_1  and  S_2
REMARK    2  A    between atoms: S_2  and  C_4
REMARK                            x       y       z     vdW  Elec       q    Type
REMARK                         _______ _______ _______ _____ _____    ______ ____
ROOT
ATOM      1  C   UNL     1       5.261   4.895  17.331  0.00  0.00    +0.000 A 
ATOM      2  C   UNL     1       4.952   3.594  17.269  0.00  0.00    +0.000 A 
ATOM      3  C   UNL     1       3.777   2.964  17.900  0.00  0.00    +0.000 A 
ATOM      4  O   UNL     1       3.538   1.782  17.673  0.00  0.00    +0.000 OA
ATOM      5  C   UNL     1       2.926   3.741  18.821  0.00  0.00    +0.000 A 
ATOM      6  C   UNL     1       1.932   3.055  19.539  0.00  0.00    +0.000 A 
ATOM      7  C   UNL     1       1.122   3.733  20.450  0.00  0.00    +0.000 A 
ATOM      8  C   UNL     1       1.297   5.099  20.641  0.00  0.00    +0.000 A 
ATOM      9  C   UNL     1       2.277   5.784  19.916  0.00  0.00    +0.000 A 
ATOM     10  C   UNL     1       3.100   5.114  18.999  0.00  0.00    +0.000 A 
ATOM     11  S   UNL     1       4.287   6.093  18.118  0.00  0.00    +0.000 S 
ENDROOT
BRANCH   1  13
ATOM     12  C   UNL     1       7.114   6.917  17.386  0.00  0.00    +0.000 C 
ATOM     13  S   UNL     1       6.732   5.439  16.410  0.00  0.00    +0.000 S 
ATOM     14  O   UNL     1       7.875   4.397  16.681  0.00  0.00    +0.000 OA
ENDBRANCH   1  13
TORSDOF 1
ENDMDL
MODEL 4
REMARK VINA RESULT:      -6.3      1.385      1.458
REMARK  Name = 
REMARK  2 active torsions:
REMARK  status: ('A' for Active; 'I' for Inactive)
REMARK    1  A    between atoms: C_1  and  S_2
REMARK    2  A    between atoms: S_2  and  C_4
REMARK                            x       y       z     vdW  Elec       q    Type
REMARK                         _______ _______ _______ _____ _____    ______ ____
ROOT
ATOM      1  C   UNL     1       4.582   3.944  17.350  0.00  0.00    +0.000 A 
ATOM      2  C   UNL     1       3.339   4.080  16.872  0.00  0.00    +0.000 A 
ATOM      3  C   UNL     1       2.101   3.986  17.669  0.00  0.00    +0.000 A 
ATOM      4  O   UNL     1       1.026   4.246  17.138  0.00  0.00    +0.000 OA
ATOM      5  C   UNL     1       2.159   3.548  19.077  0.00  0.00    +0.000 A 
ATOM      6  C   UNL     1       0.946   3.296  19.741  0.00  0.00    +0.000 A 
ATOM      7  C   UNL     1       0.943   2.846  21.061  0.00  0.00    +0.000 A 
ATOM      8  C   UNL     1       2.150   2.653  21.724  0.00  0.00    +0.000 A 
ATOM      9  C   UNL     1       3.356   2.918  21.068  0.00  0.00    +0.000 A 
ATOM     10  C   UNL     1       3.374   3.368  19.740  0.00  0.00    +0.000 A 
ATOM     11  S   UNL     1       4.962   3.697  19.023  0.00  0.00    +0.000 S 
ENDROOT
BRANCH   1  13
ATOM     12  C   UNL     1       5.445   5.775  15.499  0.00  0.00    +0.000 C 
ATOM     13  S   UNL     1       5.949   4.170  16.173  0.00  0.00    +0.000 S 
ATOM     14  O   UNL     1       7.259   4.408  17.007  0.00  0.00    +0.000 OA
ENDBRANCH   1  13
TORSDOF 1
ENDMDL
MODEL 5
REMARK VINA RESULT:      -6.3      2.098      2.396
REMARK  Name = 
REMARK  2 active torsions:
REMARK  status: ('A' for Active; 'I' for Inactive)
REMARK    1  A    between atoms: C_1  and  S_2
REMARK    2  A    between atoms: S_2  and  C_4
REMARK                            x       y       z     vdW  Elec       q    Type
REMARK                         _______ _______ _______ _____ _____    ______ ____
ROOT
ATOM      1  C   UNL     1       5.437   5.933  17.777  0.00  0.00    +0.000 A 
ATOM      2  C   UNL     1       4.297   6.628  17.687  0.00  0.00    +0.000 A 
ATOM      3  C   UNL     1       2.949   6.100  17.975  0.00  0.00    +0.000 A 
ATOM      4  O   UNL     1       1.992   6.867  17.970  0.00  0.00    +0.000 OA
ATOM      5  C   UNL     1       2.758   4.658  18.228  0.00  0.00    +0.000 A 
ATOM      6  C   UNL     1       1.443   4.171  18.314  0.00  0.00    +0.000 A 
ATOM      7  C   UNL     1       1.203   2.813  18.515  0.00  0.00    +0.000 A 
ATOM      8  C   UNL     1       2.276   1.937  18.640  0.00  0.00    +0.000 A 
ATOM      9  C   UNL     1       3.585   2.423  18.569  0.00  0.00    +0.000 A 
ATOM     10  C   UNL     1       3.840   3.787  18.363  0.00  0.00    +0.000 A 
ATOM     11  S   UNL     1       5.540   4.290  18.318  0.00  0.00    +0.000 S 
ENDROOT
BRANCH   1  13
ATOM     12  C   UNL     1       7.950   6.225  18.838  0.00  0.00    +0.000 C 
ATOM     13  S   UNL     1       6.980   6.832  17.433  0.00  0.00    +0.000 S 
ATOM     14  O   UNL     1       7.610   6.214  16.133  0.00  0.00    +0.000 OA
ENDBRANCH   1  13
TORSDOF 1
ENDMDL
MODEL 6
REMARK VINA RESULT:      -6.3      1.860      2.038
REMARK  Name = 
REMARK  2 active torsions:
REMARK  status: ('A' for Active; 'I' for Inactive)
REMARK    1  A    between atoms: C_1  and  S_2
REMARK    2  A    between atoms: S_2  and  C_4
REMARK                            x       y       z     vdW  Elec       q    Type
REMARK                         _______ _______ _______ _____ _____    ______ ____
ROOT
ATOM      1  C   UNL     1       5.364   5.413  17.721  0.00  0.00    +0.000 A 
ATOM      2  C   UNL     1       4.387   6.328  17.700  0.00  0.00    +0.000 A 
ATOM      3  C   UNL     1       3.163   6.290  18.524  0.00  0.00    +0.000 A 
ATOM      4  O   UNL     1       2.396   7.247  18.501  0.00  0.00    +0.000 OA
ATOM      5  C   UNL     1       2.853   5.096  19.334  0.00  0.00    +0.000 A 
ATOM      6  C   UNL     1       1.595   5.028  19.955  0.00  0.00    +0.000 A 
ATOM      7  C   UNL     1       1.234   3.907  20.703  0.00  0.00    +0.000 A 
ATOM      8  C   UNL     1       2.134   2.855  20.840  0.00  0.00    +0.000 A 
ATOM      9  C   UNL     1       3.392   2.930  20.235  0.00  0.00    +0.000 A 
ATOM     10  C   UNL     1       3.765   4.049  19.477  0.00  0.00    +0.000 A 
ATOM     11  S   UNL     1       5.396   4.043  18.781  0.00  0.00    +0.000 S 
ENDROOT
BRANCH   1  13
ATOM     12  C   UNL     1       7.472   7.159  17.535  0.00  0.00    +0.000 C 
ATOM     13  S   UNL     1       6.806   5.722  16.657  0.00  0.00    +0.000 S 
ATOM     14  O   UNL     1       7.816   4.538  16.871  0.00  0.00    +0.000 OA
ENDBRANCH   1  13
TORSDOF 1
ENDMDL
MODEL 7
REMARK VINA RESULT:      -6.3      1.877      1.930
REMARK  Name = 
REMARK  2 active torsions:
REMARK  status: ('A' for Active; 'I' for Inactive)
REMARK    1  A    between atoms: C_1  and  S_2
REMARK    2  A    between atoms: S_2  and  C_4
REMARK                            x       y       z     vdW  Elec       q    Type
REMARK                         _______ _______ _______ _____ _____    ______ ____
ROOT
ATOM      1  C   UNL     1       4.762   4.976  17.157  0.00  0.00    +0.000 A 
ATOM      2  C   UNL     1       4.702   3.640  17.112  0.00  0.00    +0.000 A 
ATOM      3  C   UNL     1       3.717   2.803  17.824  0.00  0.00    +0.000 A 
ATOM      4  O   UNL     1       3.690   1.596  17.609  0.00  0.00    +0.000 OA
ATOM      5  C   UNL     1       2.804   3.413  18.810  0.00  0.00    +0.000 A 
ATOM      6  C   UNL     1       2.013   2.558  19.595  0.00  0.00    +0.000 A 
ATOM      7  C   UNL     1       1.159   3.078  20.567  0.00  0.00    +0.000 A 
ATOM      8  C   UNL     1       1.085   4.454  20.752  0.00  0.00    +0.000 A 
ATOM      9  C   UNL     1       1.861   5.306  19.960  0.00  0.00    +0.000 A 
ATOM     10  C   UNL     1       2.727   4.796  18.981  0.00  0.00    +0.000 A 
ATOM     11  S   UNL     1       3.639   5.975  18.020  0.00  0.00    +0.000 S 
ENDROOT
BRANCH   1  13
ATOM     12  C   UNL     1       6.512   4.343  15.142  0.00  0.00    +0.000 C 
ATOM     13  S   UNL     1       6.031   5.781  16.133  0.00  0.00    +0.000 S 
ATOM     14  O   UNL     1       5.299   6.783  15.170  0.00  0.00    +0.000 OA
ENDBRANCH   1  13
TORSDOF 1
ENDMDL
MODEL 8
REMARK VINA RESULT:      -6.2      2.337      2.637
REMARK  Name = 
REMARK  2 active torsions:
REMARK  status: ('A' for Active; 'I' for Inactive)
REMARK    1  A    between atoms: C_1  and  S_2
REMARK    2  A    between atoms: S_2  and  C_4
REMARK                            x       y       z     vdW  Elec       q    Type
REMARK                         _______ _______ _______ _____ _____    ______ ____
ROOT
ATOM      1  C   UNL     1       4.892   5.629  17.774  0.00  0.00    +0.000 A 
ATOM      2  C   UNL     1       3.973   6.541  18.118  0.00  0.00    +0.000 A 
ATOM      3  C   UNL     1       2.910   6.346  19.121  0.00  0.00    +0.000 A 
ATOM      4  O   UNL     1       2.201   7.297  19.435  0.00  0.00    +0.000 OA
ATOM      5  C   UNL     1       2.683   5.011  19.710  0.00  0.00    +0.000 A 
ATOM      6  C   UNL     1       1.548   4.830  20.518  0.00  0.00    +0.000 A 
ATOM      7  C   UNL     1       1.264   3.581  21.070  0.00  0.00    +0.000 A 
ATOM      8  C   UNL     1       2.118   2.512  20.823  0.00  0.00    +0.000 A 
ATOM      9  C   UNL     1       3.255   2.695  20.031  0.00  0.00    +0.000 A 
ATOM     10  C   UNL     1       3.550   3.945  19.467  0.00  0.00    +0.000 A 
ATOM     11  S   UNL     1       5.034   4.064  18.504  0.00  0.00    +0.000 S 
ENDROOT
BRANCH   1  13
ATOM     12  C   UNL     1       6.910   4.518  16.286  0.00  0.00    +0.000 C 
ATOM     13  S   UNL     1       6.143   6.136  16.556  0.00  0.00    +0.000 S 
ATOM     14  O   UNL     1       5.388   6.518  15.232  0.00  0.00    +0.000 OA
ENDBRANCH   1  13
TORSDOF 1
ENDMDL
MODEL 9
REMARK VINA RESULT:      -6.2      2.145      5.569
REMARK  Name = 
REMARK  2 active torsions:
REMARK  status: ('A' for Active; 'I' for Inactive)
REMARK    1  A    between atoms: C_1  and  S_2
REMARK    2  A    between atoms: S_2  and  C_4
REMARK                            x       y       z     vdW  Elec       q    Type
REMARK                         _______ _______ _______ _____ _____    ______ ____
ROOT
ATOM      1  C   UNL     1       3.275   3.468  18.894  0.00  0.00    +0.000 A 
ATOM      2  C   UNL     1       4.306   3.946  19.603  0.00  0.00    +0.000 A 
ATOM      3  C   UNL     1       5.523   4.557  19.036  0.00  0.00    +0.000 A 
ATOM      4  O   UNL     1       6.345   5.065  19.791  0.00  0.00    +0.000 OA
ATOM      5  C   UNL     1       5.759   4.522  17.579  0.00  0.00    +0.000 A 
ATOM      6  C   UNL     1       7.010   4.949  17.103  0.00  0.00    +0.000 A 
ATOM      7  C   UNL     1       7.301   4.903  15.740  0.00  0.00    +0.000 A 
ATOM      8  C   UNL     1       6.340   4.439  14.847  0.00  0.00    +0.000 A 
ATOM      9  C   UNL     1       5.090   4.028  15.320  0.00  0.00    +0.000 A 
ATOM     10  C   UNL     1       4.786   4.066  16.689  0.00  0.00    +0.000 A 
ATOM     11  S   UNL     1       3.159   3.546  17.167  0.00  0.00    +0.000 S 
ENDROOT
BRANCH   1  13
ATOM     12  C   UNL     1       1.314   4.379  20.581  0.00  0.00    +0.000 C 
ATOM     13  S   UNL     1       1.857   2.822  19.831  0.00  0.00    +0.000 S 
ATOM     14  O   UNL     1       0.756   2.398  18.795  0.00  0.00    +0.000 OA
ENDBRANCH   1  13
TORSDOF 1
ENDMDL
