MODEL 1
REMARK VINA RESULT:      -8.8      0.000      0.000
REMARK  Name = 
REMARK  5 active torsions:
REMARK  status: ('A' for Active; 'I' for Inactive)
REMARK    1  A    between atoms: C_2  and  C_3
REMARK    2  A    between atoms: C_3  and  C_4
REMARK    3  A    between atoms: C_4  and  C_5
REMARK    4  A    between atoms: N_16  and  C_17
REMARK    5  A    between atoms: C_17  and  C_18
REMARK                            x       y       z     vdW  Elec       q    Type
REMARK                         _______ _______ _______ _____ _____    ______ ____
ROOT
ATOM      1  C   UNL     1       7.584   6.060  18.731  0.00  0.00    +0.000 C 
ENDROOT
BRANCH   1   3
ATOM      2  O   UNL     1       7.113   7.303  16.722  0.00  0.00    +0.000 OA
ATOM      3  C   UNL     1       7.621   7.285  17.839  0.00  0.00    +0.000 C 
ATOM      4  N   UNL     1       8.217   8.379  18.420  0.00  0.00    +0.000 N 
ATOM      5  H   UNL     1       8.634   8.295  19.337  0.00  0.00    +0.000 HD
BRANCH   4   6
ATOM      6  C   UNL     1       8.341   9.648  17.736  0.00  0.00    +0.000 C 
BRANCH   6   7
ATOM      7  C   UNL     1       9.322  10.554  18.438  0.00  0.00    +0.000 A 
ATOM      8  C   UNL     1      10.213  11.344  17.691  0.00  0.00    +0.000 A 
ATOM      9  C   UNL     1      11.128  12.181  18.333  0.00  0.00    +0.000 A 
ATOM     10  C   UNL     1      11.161  12.223  19.722  0.00  0.00    +0.000 A 
ATOM     11  F   UNL     1      12.041  13.023  20.338  0.00  0.00    +0.000 F 
ATOM     12  C   UNL     1      10.295  11.445  20.481  0.00  0.00    +0.000 A 
ATOM     13  C   UNL     1       9.376  10.609  19.840  0.00  0.00    +0.000 A 
ENDBRANCH   6   7
ENDBRANCH   4   6
ENDBRANCH   1   3
BRANCH   1  14
ATOM     14  C   UNL     1       7.035   4.853  17.977  0.00  0.00    +0.000 C 
BRANCH  14  15
ATOM     15  C   UNL     1       5.647   4.522  18.459  0.00  0.00    +0.000 A 
ATOM     16  N   UNL     1       4.945   5.409  19.086  0.00  0.00    +0.000 NA
ATOM     17  C   UNL     1       3.650   5.050  19.501  0.00  0.00    +0.000 A 
ATOM     18  C   UNL     1       2.884   5.983  20.200  0.00  0.00    +0.000 A 
ATOM     19  C   UNL     1       1.588   5.668  20.623  0.00  0.00    +0.000 A 
ATOM     20  C   UNL     1       1.048   4.411  20.348  0.00  0.00    +0.000 A 
ATOM     21  C   UNL     1       1.803   3.465  19.657  0.00  0.00    +0.000 A 
ATOM     22  C   UNL     1       3.099   3.793  19.241  0.00  0.00    +0.000 A 
ATOM     23  C   UNL     1       3.936   2.823  18.514  0.00  0.00    +0.000 A 
ATOM     24  O   UNL     1       3.547   1.692  18.245  0.00  0.00    +0.000 OA
ATOM     25  N   UNL     1       5.185   3.269  18.161  0.00  0.00    +0.000 N 
ATOM     26  H   UNL     1       5.770   2.596  17.686  0.00  0.00    +0.000 HD
ENDBRANCH  14  15
ENDBRANCH   1  14
TORSDOF 5
ENDMDL
MODEL 2
REMARK VINA RESULT:      -8.8      1.372      1.837
REMARK  Name = 
REMARK  5 active torsions:
REMARK  status: ('A' for Active; 'I' for Inactive)
REMARK    1  A    between atoms: C_2  and  C_3
REMARK    2  A    between atoms: C_3  and  C_4
REMARK    3  A    between atoms: C_4  and  C_5
REMARK    4  A    between atoms: N_16  and  C_17
REMARK    5  A    between atoms: C_17  and  C_18
REMARK                            x       y       z     vdW  Elec       q    Type
REMARK                         _______ _______ _______ _____ _____    ______ ____
ROOT
ATOM      1  C   UNL     1       7.723   6.099  18.739  0.00  0.00    +0.000 C 
ENDROOT
BRANCH   1   3
ATOM      2  O   UNL     1       7.222   7.282  16.702  0.00  0.00    +0.000 OA
ATOM      3  C   UNL     1       7.735   7.302  17.816  0.00  0.00    +0.000 C 
ATOM      4  N   UNL     1       8.312   8.421  18.368  0.00  0.00    +0.000 N 
ATOM      5  H   UNL     1       8.734   8.368  19.285  0.00  0.00    +0.000 HD
BRANCH   4   6
ATOM      6  C   UNL     1       8.410   9.675  17.652  0.00  0.00    +0.000 C 
BRANCH   6   7
ATOM      7  C   UNL     1       9.113  10.723  18.478  0.00  0.00    +0.000 A 
ATOM      8  C   UNL     1       9.422  11.974  17.916  0.00  0.00    +0.000 A 
ATOM      9  C   UNL     1      10.078  12.947  18.673  0.00  0.00    +0.000 A 
ATOM     10  C   UNL     1      10.433  12.670  19.988  0.00  0.00    +0.000 A 
ATOM     11  F   UNL     1      11.065  13.602  20.713  0.00  0.00    +0.000 F 
ATOM     12  C   UNL     1      10.143  11.438  20.561  0.00  0.00    +0.000 A 
ATOM     13  C   UNL     1       9.484  10.463  19.807  0.00  0.00    +0.000 A 
ENDBRANCH   6   7
ENDBRANCH   4   6
ENDBRANCH   1   3
BRANCH   1  14
ATOM     14  C   UNL     1       6.993   4.925  18.096  0.00  0.00    +0.000 C 
BRANCH  14  15
ATOM     15  C   UNL     1       5.583   4.835  18.620  0.00  0.00    +0.000 A 
ATOM     16  N   UNL     1       5.203   3.800  19.296  0.00  0.00    +0.000 NA
ATOM     17  C   UNL     1       3.880   3.774  19.772  0.00  0.00    +0.000 A 
ATOM     18  C   UNL     1       3.441   2.657  20.483  0.00  0.00    +0.000 A 
ATOM     19  C   UNL     1       2.135   2.597  20.981  0.00  0.00    +0.000 A 
ATOM     20  C   UNL     1       1.256   3.660  20.770  0.00  0.00    +0.000 A 
ATOM     21  C   UNL     1       1.677   4.781  20.057  0.00  0.00    +0.000 A 
ATOM     22  C   UNL     1       2.986   4.827  19.562  0.00  0.00    +0.000 A 
ATOM     23  C   UNL     1       3.472   5.986  18.796  0.00  0.00    +0.000 A 
ATOM     24  O   UNL     1       2.762   6.956  18.551  0.00  0.00    +0.000 OA
ATOM     25  N   UNL     1       4.774   5.910  18.370  0.00  0.00    +0.000 N 
ATOM     26  H   UNL     1       5.101   6.692  17.822  0.00  0.00    +0.000 HD
ENDBRANCH  14  15
ENDBRANCH   1  14
TORSDOF 5
ENDMDL
MODEL 3
REMARK VINA RESULT:      -8.5      1.549      2.218
REMARK  Name = 
REMARK  5 active torsions:
REMARK  status: ('A' for Active; 'I' for Inactive)
REMARK    1  A    between atoms: C_2  and  C_3
REMARK    2  A    between atoms: C_3  and  C_4
REMARK    3  A    between atoms: C_4  and  C_5
REMARK    4  A    between atoms: N_16  and  C_17
REMARK    5  A    between atoms: C_17  and  C_18
REMARK                            x       y       z     vdW  Elec       q    Type
REMARK                         _______ _______ _______ _____ _____    ______ ____
ROOT
ATOM      1  C   UNL     1       7.854   6.265  18.885  0.00  0.00    +0.000 C 
ENDROOT
BRANCH   1   3
ATOM      2  O   UNL     1       7.742   7.287  16.706  0.00  0.00    +0.000 OA
ATOM      3  C   UNL     1       7.988   7.412  17.902  0.00  0.00    +0.000 C 
ATOM      4  N   UNL     1       8.346   8.605  18.484  0.00  0.00    +0.000 N 
ATOM      5  H   UNL     1       8.553   8.639  19.472  0.00  0.00    +0.000 HD
BRANCH   4   6
ATOM      6  C   UNL     1       8.512   9.821  17.717  0.00  0.00    +0.000 C 
BRANCH   6   7
ATOM      7  C   UNL     1       9.203  10.888  18.528  0.00  0.00    +0.000 A 
ATOM      8  C   UNL     1       9.577  10.632  19.859  0.00  0.00    +0.000 A 
ATOM      9  C   UNL     1      10.212  11.617  20.618  0.00  0.00    +0.000 A 
ATOM     10  C   UNL     1      10.466  12.862  20.054  0.00  0.00    +0.000 A 
ATOM     11  F   UNL     1      11.072  13.807  20.783  0.00  0.00    +0.000 F 
ATOM     12  C   UNL     1      10.100  13.139  18.742  0.00  0.00    +0.000 A 
ATOM     13  C   UNL     1       9.467  12.154  17.979  0.00  0.00    +0.000 A 
ENDBRANCH   6   7
ENDBRANCH   4   6
ENDBRANCH   1   3
BRANCH   1  14
ATOM     14  C   UNL     1       7.464   4.976  18.170  0.00  0.00    +0.000 C 
BRANCH  14  15
ATOM     15  C   UNL     1       5.973   4.775  18.231  0.00  0.00    +0.000 A 
ATOM     16  N   UNL     1       5.482   3.622  18.554  0.00  0.00    +0.000 NA
ATOM     17  C   UNL     1       4.083   3.495  18.608  0.00  0.00    +0.000 A 
ATOM     18  C   UNL     1       3.531   2.254  18.931  0.00  0.00    +0.000 A 
ATOM     19  C   UNL     1       2.144   2.088  19.003  0.00  0.00    +0.000 A 
ATOM     20  C   UNL     1       1.295   3.167  18.753  0.00  0.00    +0.000 A 
ATOM     21  C   UNL     1       1.830   4.412  18.423  0.00  0.00    +0.000 A 
ATOM     22  C   UNL     1       3.220   4.563  18.352  0.00  0.00    +0.000 A 
ATOM     23  C   UNL     1       3.830   5.856  18.000  0.00  0.00    +0.000 A 
ATOM     24  O   UNL     1       3.159   6.852  17.749  0.00  0.00    +0.000 OA
ATOM     25  N   UNL     1       5.202   5.874  17.967  0.00  0.00    +0.000 N 
ATOM     26  H   UNL     1       5.620   6.753  17.699  0.00  0.00    +0.000 HD
ENDBRANCH  14  15
ENDBRANCH   1  14
TORSDOF 5
ENDMDL
MODEL 4
REMARK VINA RESULT:      -8.4      3.988      6.855
REMARK  Name = 
REMARK  5 active torsions:
REMARK  status: ('A' for Active; 'I' for Inactive)
REMARK    1  A    between atoms: C_2  and  C_3
REMARK    2  A    between atoms: C_3  and  C_4
REMARK    3  A    between atoms: C_4  and  C_5
REMARK    4  A    between atoms: N_16  and  C_17
REMARK    5  A    between atoms: C_17  and  C_18
REMARK                            x       y       z     vdW  Elec       q    Type
REMARK                         _______ _______ _______ _____ _____    ______ ____
ROOT
ATOM      1  C   UNL     1       2.512   1.965  19.078  0.00  0.00    +0.000 C 
ENDROOT
BRANCH   1   3
ATOM      2  O   UNL     1       0.572   3.075  19.974  0.00  0.00    +0.000 OA
ATOM      3  C   UNL     1       1.780   3.100  19.766  0.00  0.00    +0.000 C 
ATOM      4  N   UNL     1       2.602   4.121  20.183  0.00  0.00    +0.000 N 
ATOM      5  H   UNL     1       3.589   4.092  19.965  0.00  0.00    +0.000 HD
BRANCH   4   6
ATOM      6  C   UNL     1       2.097   5.289  20.871  0.00  0.00    +0.000 C 
BRANCH   6   7
ATOM      7  C   UNL     1       2.117   6.502  19.974  0.00  0.00    +0.000 A 
ATOM      8  C   UNL     1       2.746   6.441  18.718  0.00  0.00    +0.000 A 
ATOM      9  C   UNL     1       2.774   7.561  17.885  0.00  0.00    +0.000 A 
ATOM     10  C   UNL     1       2.183   8.746  18.307  0.00  0.00    +0.000 A 
ATOM     11  F   UNL     1       2.212   9.821  17.510  0.00  0.00    +0.000 F 
ATOM     12  C   UNL     1       1.561   8.831  19.547  0.00  0.00    +0.000 A 
ATOM     13  C   UNL     1       1.529   7.711  20.382  0.00  0.00    +0.000 A 
ENDBRANCH   6   7
ENDBRANCH   4   6
ENDBRANCH   1   3
BRANCH   1  14
ATOM     14  C   UNL     1       3.990   1.959  19.457  0.00  0.00    +0.000 C 
BRANCH  14  15
ATOM     15  C   UNL     1       4.721   3.056  18.728  0.00  0.00    +0.000 A 
ATOM     16  N   UNL     1       5.541   3.828  19.363  0.00  0.00    +0.000 NA
ATOM     17  C   UNL     1       6.207   4.827  18.631  0.00  0.00    +0.000 A 
ATOM     18  C   UNL     1       7.078   5.686  19.300  0.00  0.00    +0.000 A 
ATOM     19  C   UNL     1       7.765   6.688  18.606  0.00  0.00    +0.000 A 
ATOM     20  C   UNL     1       7.585   6.836  17.230  0.00  0.00    +0.000 A 
ATOM     21  C   UNL     1       6.713   5.989  16.547  0.00  0.00    +0.000 A 
ATOM     22  C   UNL     1       6.030   4.993  17.255  0.00  0.00    +0.000 A 
ATOM     23  C   UNL     1       5.094   4.081  16.577  0.00  0.00    +0.000 A 
ATOM     24  O   UNL     1       4.863   4.151  15.375  0.00  0.00    +0.000 OA
ATOM     25  N   UNL     1       4.490   3.148  17.382  0.00  0.00    +0.000 N 
ATOM     26  H   UNL     1       3.828   2.539  16.923  0.00  0.00    +0.000 HD
ENDBRANCH  14  15
ENDBRANCH   1  14
TORSDOF 5
ENDMDL
MODEL 5
REMARK VINA RESULT:      -8.3      3.814      7.040
REMARK  Name = 
REMARK  5 active torsions:
REMARK  status: ('A' for Active; 'I' for Inactive)
REMARK    1  A    between atoms: C_2  and  C_3
REMARK    2  A    between atoms: C_3  and  C_4
REMARK    3  A    between atoms: C_4  and  C_5
REMARK    4  A    between atoms: N_16  and  C_17
REMARK    5  A    between atoms: C_17  and  C_18
REMARK                            x       y       z     vdW  Elec       q    Type
REMARK                         _______ _______ _______ _____ _____    ______ ____
ROOT
ATOM      1  C   UNL     1       3.287   2.078  19.095  0.00  0.00    +0.000 C 
ENDROOT
BRANCH   1   3
ATOM      2  O   UNL     1       1.116   2.785  19.864  0.00  0.00    +0.000 OA
ATOM      3  C   UNL     1       2.313   3.032  19.759  0.00  0.00    +0.000 C 
ATOM      4  N   UNL     1       2.905   4.159  20.280  0.00  0.00    +0.000 N 
ATOM      5  H   UNL     1       3.895   4.314  20.144  0.00  0.00    +0.000 HD
BRANCH   4   6
ATOM      6  C   UNL     1       2.148   5.185  20.963  0.00  0.00    +0.000 C 
BRANCH   6   7
ATOM      7  C   UNL     1       2.047   6.437  20.128  0.00  0.00    +0.000 A 
ATOM      8  C   UNL     1       1.483   7.604  20.671  0.00  0.00    +0.000 A 
ATOM      9  C   UNL     1       1.380   8.765  19.902  0.00  0.00    +0.000 A 
ATOM     10  C   UNL     1       1.832   8.760  18.587  0.00  0.00    +0.000 A 
ATOM     11  F   UNL     1       1.730   9.872  17.849  0.00  0.00    +0.000 F 
ATOM     12  C   UNL     1       2.387   7.615  18.028  0.00  0.00    +0.000 A 
ATOM     13  C   UNL     1       2.493   6.453  18.796  0.00  0.00    +0.000 A 
ENDBRANCH   6   7
ENDBRANCH   4   6
ENDBRANCH   1   3
BRANCH   1  14
ATOM     14  C   UNL     1       3.547   2.483  17.648  0.00  0.00    +0.000 C 
BRANCH  14  15
ATOM     15  C   UNL     1       4.523   3.629  17.593  0.00  0.00    +0.000 A 
ATOM     16  N   UNL     1       5.335   3.843  18.577  0.00  0.00    +0.000 NA
ATOM     17  C   UNL     1       6.234   4.919  18.466  0.00  0.00    +0.000 A 
ATOM     18  C   UNL     1       7.103   5.182  19.525  0.00  0.00    +0.000 A 
ATOM     19  C   UNL     1       8.018   6.238  19.451  0.00  0.00    +0.000 A 
ATOM     20  C   UNL     1       8.070   7.041  18.310  0.00  0.00    +0.000 A 
ATOM     21  C   UNL     1       7.205   6.794  17.246  0.00  0.00    +0.000 A 
ATOM     22  C   UNL     1       6.292   5.736  17.334  0.00  0.00    +0.000 A 
ATOM     23  C   UNL     1       5.354   5.443  16.238  0.00  0.00    +0.000 A 
ATOM     24  O   UNL     1       5.320   6.107  15.208  0.00  0.00    +0.000 OA
ATOM     25  N   UNL     1       4.514   4.378  16.448  0.00  0.00    +0.000 N 
ATOM     26  H   UNL     1       3.852   4.193  15.708  0.00  0.00    +0.000 HD
ENDBRANCH  14  15
ENDBRANCH   1  14
TORSDOF 5
ENDMDL
MODEL 6
REMARK VINA RESULT:      -8.2      4.864      5.561
REMARK  Name = 
REMARK  5 active torsions:
REMARK  status: ('A' for Active; 'I' for Inactive)
REMARK    1  A    between atoms: C_2  and  C_3
REMARK    2  A    between atoms: C_3  and  C_4
REMARK    3  A    between atoms: C_4  and  C_5
REMARK    4  A    between atoms: N_16  and  C_17
REMARK    5  A    between atoms: C_17  and  C_18
REMARK                            x       y       z     vdW  Elec       q    Type
REMARK                         _______ _______ _______ _____ _____    ______ ____
ROOT
ATOM      1  C   UNL     1       6.377   4.541  16.785  0.00  0.00    +0.000 C 
ENDROOT
BRANCH   1   3
ATOM      2  O   UNL     1       6.812   6.906  16.645  0.00  0.00    +0.000 OA
ATOM      3  C   UNL     1       5.985   6.005  16.742  0.00  0.00    +0.000 C 
ATOM      4  N   UNL     1       4.627   6.218  16.758  0.00  0.00    +0.000 N 
ATOM      5  H   UNL     1       3.997   5.434  16.858  0.00  0.00    +0.000 HD
BRANCH   4   6
ATOM      6  C   UNL     1       4.051   7.545  16.711  0.00  0.00    +0.000 C 
BRANCH   6   7
ATOM      7  C   UNL     1       3.114   7.776  17.871  0.00  0.00    +0.000 A 
ATOM      8  C   UNL     1       2.279   8.906  17.889  0.00  0.00    +0.000 A 
ATOM      9  C   UNL     1       1.414   9.130  18.962  0.00  0.00    +0.000 A 
ATOM     10  C   UNL     1       1.387   8.231  20.022  0.00  0.00    +0.000 A 
ATOM     11  F   UNL     1       0.560   8.447  21.052  0.00  0.00    +0.000 F 
ATOM     12  C   UNL     1       2.209   7.110  20.027  0.00  0.00    +0.000 A 
ATOM     13  C   UNL     1       3.074   6.882  18.953  0.00  0.00    +0.000 A 
ENDBRANCH   6   7
ENDBRANCH   4   6
ENDBRANCH   1   3
BRANCH   1  14
ATOM     14  C   UNL     1       5.174   3.645  16.514  0.00  0.00    +0.000 C 
BRANCH  14  15
ATOM     15  C   UNL     1       4.421   3.379  17.791  0.00  0.00    +0.000 A 
ATOM     16  N   UNL     1       3.161   3.657  17.877  0.00  0.00    +0.000 NA
ATOM     17  C   UNL     1       2.505   3.375  19.089  0.00  0.00    +0.000 A 
ATOM     18  C   UNL     1       1.152   3.690  19.211  0.00  0.00    +0.000 A 
ATOM     19  C   UNL     1       0.462   3.417  20.398  0.00  0.00    +0.000 A 
ATOM     20  C   UNL     1       1.124   2.825  21.473  0.00  0.00    +0.000 A 
ATOM     21  C   UNL     1       2.478   2.509  21.369  0.00  0.00    +0.000 A 
ATOM     22  C   UNL     1       3.157   2.790  20.177  0.00  0.00    +0.000 A 
ATOM     23  C   UNL     1       4.589   2.482  20.024  0.00  0.00    +0.000 A 
ATOM     24  O   UNL     1       5.251   1.976  20.923  0.00  0.00    +0.000 OA
ATOM     25  N   UNL     1       5.136   2.803  18.806  0.00  0.00    +0.000 N 
ATOM     26  H   UNL     1       6.123   2.616  18.709  0.00  0.00    +0.000 HD
ENDBRANCH  14  15
ENDBRANCH   1  14
TORSDOF 5
ENDMDL
MODEL 7
REMARK VINA RESULT:      -8.1      4.079      6.837
REMARK  Name = 
REMARK  5 active torsions:
REMARK  status: ('A' for Active; 'I' for Inactive)
REMARK    1  A    between atoms: C_2  and  C_3
REMARK    2  A    between atoms: C_3  and  C_4
REMARK    3  A    between atoms: C_4  and  C_5
REMARK    4  A    between atoms: N_16  and  C_17
REMARK    5  A    between atoms: C_17  and  C_18
REMARK                            x       y       z     vdW  Elec       q    Type
REMARK                         _______ _______ _______ _____ _____    ______ ____
ROOT
ATOM      1  C   UNL     1       2.227   2.270  19.183  0.00  0.00    +0.000 C 
ENDROOT
BRANCH   1   3
ATOM      2  O   UNL     1       2.149   3.062  21.456  0.00  0.00    +0.000 OA
ATOM      3  C   UNL     1       2.143   3.334  20.260  0.00  0.00    +0.000 C 
ATOM      4  N   UNL     1       2.123   4.619  19.772  0.00  0.00    +0.000 N 
ATOM      5  H   UNL     1       2.101   4.777  18.774  0.00  0.00    +0.000 HD
BRANCH   4   6
ATOM      6  C   UNL     1       2.057   5.775  20.640  0.00  0.00    +0.000 C 
BRANCH   6   7
ATOM      7  C   UNL     1       2.018   7.055  19.843  0.00  0.00    +0.000 A 
ATOM      8  C   UNL     1       1.363   8.188  20.357  0.00  0.00    +0.000 A 
ATOM      9  C   UNL     1       1.318   9.374  19.622  0.00  0.00    +0.000 A 
ATOM     10  C   UNL     1       1.918   9.430  18.370  0.00  0.00    +0.000 A 
ATOM     11  F   UNL     1       1.872  10.567  17.664  0.00  0.00    +0.000 F 
ATOM     12  C   UNL     1       2.566   8.320  17.839  0.00  0.00    +0.000 A 
ATOM     13  C   UNL     1       2.615   7.132  18.573  0.00  0.00    +0.000 A 
ENDBRANCH   6   7
ENDBRANCH   4   6
ENDBRANCH   1   3
BRANCH   1  14
ATOM     14  C   UNL     1       3.668   1.813  18.978  0.00  0.00    +0.000 C 
BRANCH  14  15
ATOM     15  C   UNL     1       4.491   2.929  18.388  0.00  0.00    +0.000 A 
ATOM     16  N   UNL     1       5.252   3.650  19.146  0.00  0.00    +0.000 NA
ATOM     17  C   UNL     1       6.008   4.669  18.540  0.00  0.00    +0.000 A 
ATOM     18  C   UNL     1       6.817   5.475  19.342  0.00  0.00    +0.000 A 
ATOM     19  C   UNL     1       7.591   6.494  18.776  0.00  0.00    +0.000 A 
ATOM     20  C   UNL     1       7.562   6.713  17.399  0.00  0.00    +0.000 A 
ATOM     21  C   UNL     1       6.755   5.920  16.584  0.00  0.00    +0.000 A 
ATOM     22  C   UNL     1       5.983   4.906  17.164  0.00  0.00    +0.000 A 
ATOM     23  C   UNL     1       5.110   4.049  16.344  0.00  0.00    +0.000 A 
ATOM     24  O   UNL     1       5.011   4.183  15.129  0.00  0.00    +0.000 OA
ATOM     25  N   UNL     1       4.408   3.091  17.032  0.00  0.00    +0.000 N 
ATOM     26  H   UNL     1       3.789   2.520  16.475  0.00  0.00    +0.000 HD
ENDBRANCH  14  15
ENDBRANCH   1  14
TORSDOF 5
ENDMDL
MODEL 8
REMARK VINA RESULT:      -8.1      4.547      5.722
REMARK  Name = 
REMARK  5 active torsions:
REMARK  status: ('A' for Active; 'I' for Inactive)
REMARK    1  A    between atoms: C_2  and  C_3
REMARK    2  A    between atoms: C_3  and  C_4
REMARK    3  A    between atoms: C_4  and  C_5
REMARK    4  A    between atoms: N_16  and  C_17
REMARK    5  A    between atoms: C_17  and  C_18
REMARK                            x       y       z     vdW  Elec       q    Type
REMARK                         _______ _______ _______ _____ _____    ______ ____
ROOT
ATOM      1  C   UNL     1       6.606   6.167  17.570  0.00  0.00    +0.000 C 
ENDROOT
BRANCH   1   3
ATOM      2  O   UNL     1       5.228   6.704  15.668  0.00  0.00    +0.000 OA
ATOM      3  C   UNL     1       5.371   6.720  16.887  0.00  0.00    +0.000 C 
ATOM      4  N   UNL     1       4.410   7.177  17.758  0.00  0.00    +0.000 N 
ATOM      5  H   UNL     1       4.595   7.181  18.752  0.00  0.00    +0.000 HD
BRANCH   4   6
ATOM      6  C   UNL     1       3.153   7.731  17.304  0.00  0.00    +0.000 C 
BRANCH   6   7
ATOM      7  C   UNL     1       2.302   8.179  18.465  0.00  0.00    +0.000 A 
ATOM      8  C   UNL     1       2.250   7.410  19.641  0.00  0.00    +0.000 A 
ATOM      9  C   UNL     1       1.459   7.815  20.718  0.00  0.00    +0.000 A 
ATOM     10  C   UNL     1       0.712   8.983  20.621  0.00  0.00    +0.000 A 
ATOM     11  F   UNL     1      -0.048   9.370  21.652  0.00  0.00    +0.000 F 
ATOM     12  C   UNL     1       0.743   9.755  19.466  0.00  0.00    +0.000 A 
ATOM     13  C   UNL     1       1.536   9.354  18.387  0.00  0.00    +0.000 A 
ENDBRANCH   6   7
ENDBRANCH   4   6
ENDBRANCH   1   3
BRANCH   1  14
ATOM     14  C   UNL     1       6.522   4.651  17.708  0.00  0.00    +0.000 C 
BRANCH  14  15
ATOM     15  C   UNL     1       5.127   4.238  18.102  0.00  0.00    +0.000 A 
ATOM     16  N   UNL     1       4.740   4.336  19.332  0.00  0.00    +0.000 NA
ATOM     17  C   UNL     1       3.424   3.950  19.641  0.00  0.00    +0.000 A 
ATOM     18  C   UNL     1       2.993   4.024  20.966  0.00  0.00    +0.000 A 
ATOM     19  C   UNL     1       1.689   3.657  21.313  0.00  0.00    +0.000 A 
ATOM     20  C   UNL     1       0.802   3.211  20.332  0.00  0.00    +0.000 A 
ATOM     21  C   UNL     1       1.219   3.125  19.004  0.00  0.00    +0.000 A 
ATOM     22  C   UNL     1       2.528   3.494  18.671  0.00  0.00    +0.000 A 
ATOM     23  C   UNL     1       3.015   3.412  17.284  0.00  0.00    +0.000 A 
ATOM     24  O   UNL     1       2.309   3.017  16.363  0.00  0.00    +0.000 OA
ATOM     25  N   UNL     1       4.315   3.805  17.089  0.00  0.00    +0.000 N 
ATOM     26  H   UNL     1       4.658   3.724  16.143  0.00  0.00    +0.000 HD
ENDBRANCH  14  15
ENDBRANCH   1  14
TORSDOF 5
ENDMDL
MODEL 9
REMARK VINA RESULT:      -8.1      4.104      6.527
REMARK  Name = 
REMARK  5 active torsions:
REMARK  status: ('A' for Active; 'I' for Inactive)
REMARK    1  A    between atoms: C_2  and  C_3
REMARK    2  A    between atoms: C_3  and  C_4
REMARK    3  A    between atoms: C_4  and  C_5
REMARK    4  A    between atoms: N_16  and  C_17
REMARK    5  A    between atoms: C_17  and  C_18
REMARK                            x       y       z     vdW  Elec       q    Type
REMARK                         _______ _______ _______ _____ _____    ______ ____
ROOT
ATOM      1  C   UNL     1       1.298   3.900  19.860  0.00  0.00    +0.000 C 
ENDROOT
BRANCH   1   3
ATOM      2  O   UNL     1       1.311   3.913  17.451  0.00  0.00    +0.000 OA
ATOM      3  C   UNL     1       1.952   3.823  18.494  0.00  0.00    +0.000 C 
ATOM      4  N   UNL     1       3.321   3.705  18.537  0.00  0.00    +0.000 N 
ATOM      5  H   UNL     1       3.789   3.617  19.429  0.00  0.00    +0.000 HD
BRANCH   4   6
ATOM      6  C   UNL     1       4.130   3.629  17.340  0.00  0.00    +0.000 C 
BRANCH   6   7
ATOM      7  C   UNL     1       5.164   4.727  17.308  0.00  0.00    +0.000 A 
ATOM      8  C   UNL     1       6.468   4.482  17.771  0.00  0.00    +0.000 A 
ATOM      9  C   UNL     1       7.429   5.495  17.750  0.00  0.00    +0.000 A 
ATOM     10  C   UNL     1       7.087   6.756  17.275  0.00  0.00    +0.000 A 
ATOM     11  F   UNL     1       8.007   7.728  17.258  0.00  0.00    +0.000 F 
ATOM     12  C   UNL     1       5.802   7.022  16.819  0.00  0.00    +0.000 A 
ATOM     13  C   UNL     1       4.839   6.009  16.836  0.00  0.00    +0.000 A 
ENDBRANCH   6   7
ENDBRANCH   4   6
ENDBRANCH   1   3
BRANCH   1  14
ATOM     14  C   UNL     1       2.102   4.792  20.800  0.00  0.00    +0.000 C 
BRANCH  14  15
ATOM     15  C   UNL     1       1.833   6.244  20.502  0.00  0.00    +0.000 A 
ATOM     16  N   UNL     1       2.228   6.765  19.386  0.00  0.00    +0.000 NA
ATOM     17  C   UNL     1       1.938   8.122  19.154  0.00  0.00    +0.000 A 
ATOM     18  C   UNL     1       2.376   8.712  17.968  0.00  0.00    +0.000 A 
ATOM     19  C   UNL     1       2.101  10.056  17.697  0.00  0.00    +0.000 A 
ATOM     20  C   UNL     1       1.381  10.823  18.614  0.00  0.00    +0.000 A 
ATOM     21  C   UNL     1       0.941  10.250  19.806  0.00  0.00    +0.000 A 
ATOM     22  C   UNL     1       1.226   8.904  20.067  0.00  0.00    +0.000 A 
ATOM     23  C   UNL     1       0.788   8.259  21.316  0.00  0.00    +0.000 A 
ATOM     24  O   UNL     1       0.165   8.862  22.183  0.00  0.00    +0.000 OA
ATOM     25  N   UNL     1       1.128   6.936  21.449  0.00  0.00    +0.000 N 
ATOM     26  H   UNL     1       0.852   6.499  22.316  0.00  0.00    +0.000 HD
ENDBRANCH  14  15
ENDBRANCH   1  14
TORSDOF 5
ENDMDL
