MODEL 1
REMARK VINA RESULT:      -6.7      0.000      0.000
REMARK  Name = 
REMARK  12 active torsions:
REMARK  status: ('A' for Active; 'I' for Inactive)
REMARK    1  A    between atoms: C_1  and  O_2
REMARK    2  A    between atoms: O_2  and  C_3
REMARK    3  A    between atoms: C_6  and  C_7
REMARK    4  A    between atoms: C_7  and  N_8
REMARK    5  A    between atoms: N_12  and  C_13
REMARK    6  A    between atoms: C_13  and  C_14
REMARK    7  A    between atoms: C_17  and  O_18
REMARK    8  A    between atoms: O_18  and  C_19
REMARK    9  A    between atoms: C_22  and  C_23
REMARK   10  A    between atoms: C_26  and  N_27
REMARK   11  A    between atoms: N_27  and  C_28
REMARK   12  A    between atoms: N_27  and  C_29
REMARK                            x       y       z     vdW  Elec       q    Type
REMARK                         _______ _______ _______ _____ _____    ______ ____
ROOT
ATOM      1  N   UNL     1       4.952   4.829  16.294  0.00  0.00    +0.000 NA
ATOM      2  C   UNL     1       6.031   3.976  15.780  0.00  0.00    +0.000 C 
ATOM      3  C   UNL     1       7.444   4.445  16.085  0.00  0.00    +0.000 C 
ATOM      4  C   UNL     1       7.527   4.909  17.527  0.00  0.00    +0.000 C 
ATOM      5  N   UNL     1       6.541   5.957  17.804  0.00  0.00    +0.000 NA
ATOM      6  C   UNL     1       5.179   5.391  17.643  0.00  0.00    +0.000 C 
ENDROOT
BRANCH   6   7
ATOM      7  C   UNL     1       4.099   6.404  18.068  0.00  0.00    +0.000 A 
ATOM      8  C   UNL     1       3.677   7.450  17.233  0.00  0.00    +0.000 A 
ATOM      9  C   UNL     1       2.675   8.345  17.631  0.00  0.00    +0.000 A 
ATOM     10  C   UNL     1       2.025   8.241  18.872  0.00  0.00    +0.000 A 
ATOM     11  C   UNL     1       2.476   7.198  19.699  0.00  0.00    +0.000 A 
ATOM     12  C   UNL     1       3.500   6.312  19.325  0.00  0.00    +0.000 A 
BRANCH  10  13
ATOM     13  N   UNL     1       1.037   9.131  19.264  0.00  0.00    +0.000 N 
ATOM     14  C   UNL     1       0.581   9.227  20.649  0.00  0.00    +0.000 C 
ATOM     15  C   UNL     1       0.563  10.210  18.402  0.00  0.00    +0.000 C 
ENDBRANCH  10  13
ENDBRANCH   6   7
BRANCH   1  16
ATOM     16  C   UNL     1       3.637   4.148  16.159  0.00  0.00    +0.000 C 
BRANCH  16  20
ATOM     17  C   UNL     1       1.963   2.486  19.793  0.00  0.00    +0.000 A 
ATOM     18  C   UNL     1       1.206   3.346  19.002  0.00  0.00    +0.000 A 
ATOM     19  C   UNL     1       1.726   3.855  17.817  0.00  0.00    +0.000 A 
ATOM     20  C   UNL     1       3.035   3.537  17.418  0.00  0.00    +0.000 A 
ATOM     21  C   UNL     1       3.784   2.660  18.209  0.00  0.00    +0.000 A 
ATOM     22  C   UNL     1       3.259   2.153  19.399  0.00  0.00    +0.000 A 
BRANCH  17  24
ATOM     23  C   UNL     1       1.664   2.863  22.101  0.00  0.00    +0.000 C 
ATOM     24  O   UNL     1       1.374   2.067  20.956  0.00  0.00    +0.000 OA
ENDBRANCH  17  24
ENDBRANCH  16  20
ENDBRANCH   1  16
BRANCH   5  25
ATOM     25  C   UNL     1       6.753   7.190  17.026  0.00  0.00    +0.000 C 
BRANCH  25  26
ATOM     26  C   UNL     1       7.523   8.288  17.737  0.00  0.00    +0.000 A 
ATOM     27  C   UNL     1       8.425   7.984  18.767  0.00  0.00    +0.000 A 
ATOM     28  C   UNL     1       9.213   8.986  19.338  0.00  0.00    +0.000 A 
ATOM     29  C   UNL     1       9.140  10.297  18.863  0.00  0.00    +0.000 A 
ATOM     30  C   UNL     1       8.218  10.613  17.866  0.00  0.00    +0.000 A 
ATOM     31  C   UNL     1       7.413   9.615  17.312  0.00  0.00    +0.000 A 
BRANCH  29  32
ATOM     32  O   UNL     1       9.988  11.195  19.453  0.00  0.00    +0.000 OA
ATOM     33  C   UNL     1      11.047  11.655  18.617  0.00  0.00    +0.000 C 
ENDBRANCH  29  32
ENDBRANCH  25  26
ENDBRANCH   5  25
TORSDOF 8
ENDMDL
MODEL 2
REMARK VINA RESULT:      -6.6      4.763      8.435
REMARK  Name = 
REMARK  12 active torsions:
REMARK  status: ('A' for Active; 'I' for Inactive)
REMARK    1  A    between atoms: C_1  and  O_2
REMARK    2  A    between atoms: O_2  and  C_3
REMARK    3  A    between atoms: C_6  and  C_7
REMARK    4  A    between atoms: C_7  and  N_8
REMARK    5  A    between atoms: N_12  and  C_13
REMARK    6  A    between atoms: C_13  and  C_14
REMARK    7  A    between atoms: C_17  and  O_18
REMARK    8  A    between atoms: O_18  and  C_19
REMARK    9  A    between atoms: C_22  and  C_23
REMARK   10  A    between atoms: C_26  and  N_27
REMARK   11  A    between atoms: N_27  and  C_28
REMARK   12  A    between atoms: N_27  and  C_29
REMARK                            x       y       z     vdW  Elec       q    Type
REMARK                         _______ _______ _______ _____ _____    ______ ____
ROOT
ATOM      1  N   UNL     1      -1.010  11.864  19.701  0.00  0.00    +0.000 NA
ATOM      2  C   UNL     1      -1.578  13.218  19.672  0.00  0.00    +0.000 C 
ATOM      3  C   UNL     1      -0.569  14.355  19.622  0.00  0.00    +0.000 C 
ATOM      4  C   UNL     1       0.528  14.019  18.629  0.00  0.00    +0.000 C 
ATOM      5  N   UNL     1       1.170  12.744  18.959  0.00  0.00    +0.000 NA
ATOM      6  C   UNL     1       0.170  11.655  18.835  0.00  0.00    +0.000 C 
ENDROOT
BRANCH   6   7
ATOM      7  C   UNL     1       0.823  10.273  19.023  0.00  0.00    +0.000 A 
ATOM      8  C   UNL     1       1.488   9.606  17.982  0.00  0.00    +0.000 A 
ATOM      9  C   UNL     1       2.096   8.360  18.183  0.00  0.00    +0.000 A 
ATOM     10  C   UNL     1       2.091   7.714  19.430  0.00  0.00    +0.000 A 
ATOM     11  C   UNL     1       1.404   8.390  20.453  0.00  0.00    +0.000 A 
ATOM     12  C   UNL     1       0.764   9.626  20.258  0.00  0.00    +0.000 A 
BRANCH  10  13
ATOM     13  N   UNL     1       2.691   6.479  19.625  0.00  0.00    +0.000 N 
ATOM     14  C   UNL     1       2.131   5.475  20.527  0.00  0.00    +0.000 C 
ATOM     15  C   UNL     1       3.760   5.980  18.764  0.00  0.00    +0.000 C 
ENDBRANCH  10  13
ENDBRANCH   6   7
BRANCH   1  16
ATOM     16  C   UNL     1      -2.074  10.847  19.493  0.00  0.00    +0.000 C 
BRANCH  16  20
ATOM     17  C   UNL     1      -3.623  10.521  15.460  0.00  0.00    +0.000 A 
ATOM     18  C   UNL     1      -2.523   9.763  15.852  0.00  0.00    +0.000 A 
ATOM     19  C   UNL     1      -2.043   9.838  17.155  0.00  0.00    +0.000 A 
ATOM     20  C   UNL     1      -2.640  10.705  18.086  0.00  0.00    +0.000 A 
ATOM     21  C   UNL     1      -3.754  11.452  17.690  0.00  0.00    +0.000 A 
ATOM     22  C   UNL     1      -4.231  11.375  16.380  0.00  0.00    +0.000 A 
BRANCH  17  24
ATOM     23  C   UNL     1      -3.039   9.774  13.302  0.00  0.00    +0.000 C 
ATOM     24  O   UNL     1      -3.997  10.402  14.148  0.00  0.00    +0.000 OA
ENDBRANCH  17  24
ENDBRANCH  16  20
ENDBRANCH   1  16
BRANCH   5  25
ATOM     25  C   UNL     1       1.863  12.750  20.259  0.00  0.00    +0.000 C 
BRANCH  25  26
ATOM     26  C   UNL     1       2.868  13.869  20.460  0.00  0.00    +0.000 A 
ATOM     27  C   UNL     1       3.850  14.137  19.495  0.00  0.00    +0.000 A 
ATOM     28  C   UNL     1       4.698  15.239  19.632  0.00  0.00    +0.000 A 
ATOM     29  C   UNL     1       4.553  16.109  20.714  0.00  0.00    +0.000 A 
ATOM     30  C   UNL     1       3.606  15.827  21.698  0.00  0.00    +0.000 A 
ATOM     31  C   UNL     1       2.774  14.712  21.572  0.00  0.00    +0.000 A 
BRANCH  29  32
ATOM     32  O   UNL     1       5.398  17.186  20.732  0.00  0.00    +0.000 OA
ATOM     33  C   UNL     1       6.097  17.417  19.512  0.00  0.00    +0.000 C 
ENDBRANCH  29  32
ENDBRANCH  25  26
ENDBRANCH   5  25
TORSDOF 8
ENDMDL
MODEL 3
REMARK VINA RESULT:      -6.5      4.894      8.505
REMARK  Name = 
REMARK  12 active torsions:
REMARK  status: ('A' for Active; 'I' for Inactive)
REMARK    1  A    between atoms: C_1  and  O_2
REMARK    2  A    between atoms: O_2  and  C_3
REMARK    3  A    between atoms: C_6  and  C_7
REMARK    4  A    between atoms: C_7  and  N_8
REMARK    5  A    between atoms: N_12  and  C_13
REMARK    6  A    between atoms: C_13  and  C_14
REMARK    7  A    between atoms: C_17  and  O_18
REMARK    8  A    between atoms: O_18  and  C_19
REMARK    9  A    between atoms: C_22  and  C_23
REMARK   10  A    between atoms: C_26  and  N_27
REMARK   11  A    between atoms: N_27  and  C_28
REMARK   12  A    between atoms: N_27  and  C_29
REMARK                            x       y       z     vdW  Elec       q    Type
REMARK                         _______ _______ _______ _____ _____    ______ ____
ROOT
ATOM      1  N   UNL     1      -0.946  11.855  19.706  0.00  0.00    +0.000 NA
ATOM      2  C   UNL     1      -1.566  13.186  19.739  0.00  0.00    +0.000 C 
ATOM      3  C   UNL     1      -0.602  14.362  19.743  0.00  0.00    +0.000 C 
ATOM      4  C   UNL     1       0.506  14.116  18.737  0.00  0.00    +0.000 C 
ATOM      5  N   UNL     1       1.198  12.853  19.009  0.00  0.00    +0.000 NA
ATOM      6  C   UNL     1       0.241  11.733  18.833  0.00  0.00    +0.000 C 
ENDROOT
BRANCH   6   7
ATOM      7  C   UNL     1       0.947  10.369  18.957  0.00  0.00    +0.000 A 
ATOM      8  C   UNL     1       0.860   9.579  20.114  0.00  0.00    +0.000 A 
ATOM      9  C   UNL     1       1.491   8.330  20.195  0.00  0.00    +0.000 A 
ATOM     10  C   UNL     1       2.228   7.790  19.129  0.00  0.00    +0.000 A 
ATOM     11  C   UNL     1       2.318   8.606  17.988  0.00  0.00    +0.000 A 
ATOM     12  C   UNL     1       1.716   9.873  17.903  0.00  0.00    +0.000 A 
BRANCH  10  13
ATOM     13  N   UNL     1       2.854   6.556  19.215  0.00  0.00    +0.000 N 
ATOM     14  C   UNL     1       2.454   5.546  20.193  0.00  0.00    +0.000 C 
ATOM     15  C   UNL     1       3.766   6.064  18.186  0.00  0.00    +0.000 C 
ENDBRANCH  10  13
ENDBRANCH   6   7
BRANCH   1  16
ATOM     16  C   UNL     1      -1.970  10.808  19.450  0.00  0.00    +0.000 C 
BRANCH  16  20
ATOM     17  C   UNL     1      -3.588  10.420  15.449  0.00  0.00    +0.000 A 
ATOM     18  C   UNL     1      -4.191  11.273  16.370  0.00  0.00    +0.000 A 
ATOM     19  C   UNL     1      -3.656  11.427  17.644  0.00  0.00    +0.000 A 
ATOM     20  C   UNL     1      -2.518  10.699  18.033  0.00  0.00    +0.000 A 
ATOM     21  C   UNL     1      -1.908   9.857  17.098  0.00  0.00    +0.000 A 
ATOM     22  C   UNL     1      -2.450   9.704  15.821  0.00  0.00    +0.000 A 
BRANCH  17  24
ATOM     23  C   UNL     1      -3.405   9.777  13.189  0.00  0.00    +0.000 C 
ATOM     24  O   UNL     1      -4.211  10.312  14.235  0.00  0.00    +0.000 OA
ENDBRANCH  17  24
ENDBRANCH  16  20
ENDBRANCH   1  16
BRANCH   5  25
ATOM     25  C   UNL     1       1.891  12.825  20.308  0.00  0.00    +0.000 C 
BRANCH  25  26
ATOM     26  C   UNL     1       2.785  14.017  20.599  0.00  0.00    +0.000 A 
ATOM     27  C   UNL     1       2.627  14.766  21.773  0.00  0.00    +0.000 A 
ATOM     28  C   UNL     1       3.525  15.790  22.088  0.00  0.00    +0.000 A 
ATOM     29  C   UNL     1       4.613  16.053  21.254  0.00  0.00    +0.000 A 
ATOM     30  C   UNL     1       4.755  15.338  20.066  0.00  0.00    +0.000 A 
ATOM     31  C   UNL     1       3.843  14.331  19.740  0.00  0.00    +0.000 A 
BRANCH  29  32
ATOM     32  O   UNL     1       5.463  17.041  21.675  0.00  0.00    +0.000 OA
ATOM     33  C   UNL     1       5.041  18.366  21.361  0.00  0.00    +0.000 C 
ENDBRANCH  29  32
ENDBRANCH  25  26
ENDBRANCH   5  25
TORSDOF 8
ENDMDL
MODEL 4
REMARK VINA RESULT:      -6.5      0.245      1.203
REMARK  Name = 
REMARK  12 active torsions:
REMARK  status: ('A' for Active; 'I' for Inactive)
REMARK    1  A    between atoms: C_1  and  O_2
REMARK    2  A    between atoms: O_2  and  C_3
REMARK    3  A    between atoms: C_6  and  C_7
REMARK    4  A    between atoms: C_7  and  N_8
REMARK    5  A    between atoms: N_12  and  C_13
REMARK    6  A    between atoms: C_13  and  C_14
REMARK    7  A    between atoms: C_17  and  O_18
REMARK    8  A    between atoms: O_18  and  C_19
REMARK    9  A    between atoms: C_22  and  C_23
REMARK   10  A    between atoms: C_26  and  N_27
REMARK   11  A    between atoms: N_27  and  C_28
REMARK   12  A    between atoms: N_27  and  C_29
REMARK                            x       y       z     vdW  Elec       q    Type
REMARK                         _______ _______ _______ _____ _____    ______ ____
ROOT
ATOM      1  N   UNL     1       4.872   4.817  16.320  0.00  0.00    +0.000 NA
ATOM      2  C   UNL     1       5.958   3.977  15.799  0.00  0.00    +0.000 C 
ATOM      3  C   UNL     1       7.367   4.462  16.099  0.00  0.00    +0.000 C 
ATOM      4  C   UNL     1       7.451   4.924  17.541  0.00  0.00    +0.000 C 
ATOM      5  N   UNL     1       6.455   5.961  17.825  0.00  0.00    +0.000 NA
ATOM      6  C   UNL     1       5.099   5.380  17.669  0.00  0.00    +0.000 C 
ENDROOT
BRANCH   6   7
ATOM      7  C   UNL     1       4.009   6.379  18.100  0.00  0.00    +0.000 A 
ATOM      8  C   UNL     1       3.401   6.330  19.364  0.00  0.00    +0.000 A 
ATOM      9  C   UNL     1       2.429   7.265  19.744  0.00  0.00    +0.000 A 
ATOM     10  C   UNL     1       2.019   8.309  18.898  0.00  0.00    +0.000 A 
ATOM     11  C   UNL     1       2.627   8.328  17.631  0.00  0.00    +0.000 A 
ATOM     12  C   UNL     1       3.581   7.379  17.226  0.00  0.00    +0.000 A 
BRANCH  10  13
ATOM     13  N   UNL     1       1.054   9.231  19.276  0.00  0.00    +0.000 N 
ATOM     14  C   UNL     1       0.466   9.238  20.614  0.00  0.00    +0.000 C 
ATOM     15  C   UNL     1       0.742  10.414  18.479  0.00  0.00    +0.000 C 
ENDBRANCH  10  13
ENDBRANCH   6   7
BRANCH   1  16
ATOM     16  C   UNL     1       3.564   4.122  16.189  0.00  0.00    +0.000 C 
BRANCH  16  20
ATOM     17  C   UNL     1       1.838   2.588  19.856  0.00  0.00    +0.000 A 
ATOM     18  C   UNL     1       1.071   3.362  18.990  0.00  0.00    +0.000 A 
ATOM     19  C   UNL     1       1.609   3.828  17.795  0.00  0.00    +0.000 A 
ATOM     20  C   UNL     1       2.946   3.553  17.460  0.00  0.00    +0.000 A 
ATOM     21  C   UNL     1       3.706   2.762  18.327  0.00  0.00    +0.000 A 
ATOM     22  C   UNL     1       3.162   2.298  19.526  0.00  0.00    +0.000 A 
BRANCH  17  24
ATOM     23  C   UNL     1       1.887   2.622  22.212  0.00  0.00    +0.000 C 
ATOM     24  O   UNL     1       1.227   2.207  21.020  0.00  0.00    +0.000 OA
ENDBRANCH  17  24
ENDBRANCH  16  20
ENDBRANCH   1  16
BRANCH   5  25
ATOM     25  C   UNL     1       6.649   7.197  17.048  0.00  0.00    +0.000 C 
BRANCH  25  26
ATOM     26  C   UNL     1       7.570   8.227  17.676  0.00  0.00    +0.000 A 
ATOM     27  C   UNL     1       7.535   9.568  17.268  0.00  0.00    +0.000 A 
ATOM     28  C   UNL     1       8.303  10.531  17.929  0.00  0.00    +0.000 A 
ATOM     29  C   UNL     1       9.086  10.174  19.029  0.00  0.00    +0.000 A 
ATOM     30  C   UNL     1       9.155   8.836  19.415  0.00  0.00    +0.000 A 
ATOM     31  C   UNL     1       8.406   7.871  18.739  0.00  0.00    +0.000 A 
BRANCH  29  32
ATOM     32  O   UNL     1       9.761  11.198  19.638  0.00  0.00    +0.000 OA
ATOM     33  C   UNL     1      10.139  12.264  18.771  0.00  0.00    +0.000 C 
ENDBRANCH  29  32
ENDBRANCH  25  26
ENDBRANCH   5  25
TORSDOF 8
ENDMDL
MODEL 5
REMARK VINA RESULT:      -6.5      4.629      8.249
REMARK  Name = 
REMARK  12 active torsions:
REMARK  status: ('A' for Active; 'I' for Inactive)
REMARK    1  A    between atoms: C_1  and  O_2
REMARK    2  A    between atoms: O_2  and  C_3
REMARK    3  A    between atoms: C_6  and  C_7
REMARK    4  A    between atoms: C_7  and  N_8
REMARK    5  A    between atoms: N_12  and  C_13
REMARK    6  A    between atoms: C_13  and  C_14
REMARK    7  A    between atoms: C_17  and  O_18
REMARK    8  A    between atoms: O_18  and  C_19
REMARK    9  A    between atoms: C_22  and  C_23
REMARK   10  A    between atoms: C_26  and  N_27
REMARK   11  A    between atoms: N_27  and  C_28
REMARK   12  A    between atoms: N_27  and  C_29
REMARK                            x       y       z     vdW  Elec       q    Type
REMARK                         _______ _______ _______ _____ _____    ______ ____
ROOT
ATOM      1  N   UNL     1      -0.923  12.007  19.671  0.00  0.00    +0.000 NA
ATOM      2  C   UNL     1      -1.495  13.359  19.689  0.00  0.00    +0.000 C 
ATOM      3  C   UNL     1      -0.492  14.499  19.615  0.00  0.00    +0.000 C 
ATOM      4  C   UNL     1       0.561  14.184  18.569  0.00  0.00    +0.000 C 
ATOM      5  N   UNL     1       1.220  12.905  18.849  0.00  0.00    +0.000 NA
ATOM      6  C   UNL     1       0.218  11.816  18.750  0.00  0.00    +0.000 C 
ENDROOT
BRANCH   6   7
ATOM      7  C   UNL     1       0.882  10.432  18.886  0.00  0.00    +0.000 A 
ATOM      8  C   UNL     1       1.589   9.830  17.834  0.00  0.00    +0.000 A 
ATOM      9  C   UNL     1       2.206   8.581  17.988  0.00  0.00    +0.000 A 
ATOM     10  C   UNL     1       2.168   7.869  19.198  0.00  0.00    +0.000 A 
ATOM     11  C   UNL     1       1.439   8.481  20.231  0.00  0.00    +0.000 A 
ATOM     12  C   UNL     1       0.791   9.719  20.082  0.00  0.00    +0.000 A 
BRANCH  10  13
ATOM     13  N   UNL     1       2.776   6.631  19.346  0.00  0.00    +0.000 N 
ATOM     14  C   UNL     1       2.244   5.604  20.239  0.00  0.00    +0.000 C 
ATOM     15  C   UNL     1       3.823   6.157  18.444  0.00  0.00    +0.000 C 
ENDBRANCH  10  13
ENDBRANCH   6   7
BRANCH   1  16
ATOM     16  C   UNL     1      -1.993  10.990  19.493  0.00  0.00    +0.000 C 
BRANCH  16  20
ATOM     17  C   UNL     1      -3.641  10.380  15.532  0.00  0.00    +0.000 A 
ATOM     18  C   UNL     1      -4.221  11.303  16.398  0.00  0.00    +0.000 A 
ATOM     19  C   UNL     1      -3.676  11.527  17.658  0.00  0.00    +0.000 A 
ATOM     20  C   UNL     1      -2.551  10.802  18.088  0.00  0.00    +0.000 A 
ATOM     21  C   UNL     1      -1.964   9.888  17.207  0.00  0.00    +0.000 A 
ATOM     22  C   UNL     1      -2.516   9.665  15.944  0.00  0.00    +0.000 A 
BRANCH  17  24
ATOM     23  C   UNL     1      -3.419   9.850  13.246  0.00  0.00    +0.000 C 
ATOM     24  O   UNL     1      -4.272  10.208  14.329  0.00  0.00    +0.000 OA
ENDBRANCH  17  24
ENDBRANCH  16  20
ENDBRANCH   1  16
BRANCH   5  25
ATOM     25  C   UNL     1       1.970  12.891  20.117  0.00  0.00    +0.000 C 
BRANCH  25  26
ATOM     26  C   UNL     1       3.135  13.860  20.199  0.00  0.00    +0.000 A 
ATOM     27  C   UNL     1       3.641  14.274  21.440  0.00  0.00    +0.000 A 
ATOM     28  C   UNL     1       4.784  15.075  21.508  0.00  0.00    +0.000 A 
ATOM     29  C   UNL     1       5.458  15.443  20.342  0.00  0.00    +0.000 A 
ATOM     30  C   UNL     1       4.937  15.068  19.104  0.00  0.00    +0.000 A 
ATOM     31  C   UNL     1       3.781  14.287  19.035  0.00  0.00    +0.000 A 
BRANCH  29  32
ATOM     32  O   UNL     1       6.594  16.186  20.517  0.00  0.00    +0.000 OA
ATOM     33  C   UNL     1       6.450  17.575  20.231  0.00  0.00    +0.000 C 
ENDBRANCH  29  32
ENDBRANCH  25  26
ENDBRANCH   5  25
TORSDOF 8
ENDMDL
MODEL 6
REMARK VINA RESULT:      -6.4      4.413      8.264
REMARK  Name = 
REMARK  12 active torsions:
REMARK  status: ('A' for Active; 'I' for Inactive)
REMARK    1  A    between atoms: C_1  and  O_2
REMARK    2  A    between atoms: O_2  and  C_3
REMARK    3  A    between atoms: C_6  and  C_7
REMARK    4  A    between atoms: C_7  and  N_8
REMARK    5  A    between atoms: N_12  and  C_13
REMARK    6  A    between atoms: C_13  and  C_14
REMARK    7  A    between atoms: C_17  and  O_18
REMARK    8  A    between atoms: O_18  and  C_19
REMARK    9  A    between atoms: C_22  and  C_23
REMARK   10  A    between atoms: C_26  and  N_27
REMARK   11  A    between atoms: N_27  and  C_28
REMARK   12  A    between atoms: N_27  and  C_29
REMARK                            x       y       z     vdW  Elec       q    Type
REMARK                         _______ _______ _______ _____ _____    ______ ____
ROOT
ATOM      1  N   UNL     1      -0.766  12.359  19.929  0.00  0.00    +0.000 NA
ATOM      2  C   UNL     1      -1.313  13.720  20.006  0.00  0.00    +0.000 C 
ATOM      3  C   UNL     1      -0.321  14.844  19.754  0.00  0.00    +0.000 C 
ATOM      4  C   UNL     1       0.555  14.493  18.566  0.00  0.00    +0.000 C 
ATOM      5  N   UNL     1       1.236  13.210  18.769  0.00  0.00    +0.000 NA
ATOM      6  C   UNL     1       0.218  12.134  18.849  0.00  0.00    +0.000 C 
ENDROOT
BRANCH   6   7
ATOM      7  C   UNL     1       0.879  10.744  18.911  0.00  0.00    +0.000 A 
ATOM      8  C   UNL     1       0.857   9.951  20.069  0.00  0.00    +0.000 A 
ATOM      9  C   UNL     1       1.444   8.679  20.096  0.00  0.00    +0.000 A 
ATOM     10  C   UNL     1       2.070   8.117  18.971  0.00  0.00    +0.000 A 
ATOM     11  C   UNL     1       2.097   8.935  17.829  0.00  0.00    +0.000 A 
ATOM     12  C   UNL     1       1.539  10.224  17.797  0.00  0.00    +0.000 A 
BRANCH  10  13
ATOM     13  N   UNL     1       2.653   6.859  19.001  0.00  0.00    +0.000 N 
ATOM     14  C   UNL     1       3.725   6.475  18.084  0.00  0.00    +0.000 C 
ATOM     15  C   UNL     1       2.440   5.920  20.100  0.00  0.00    +0.000 C 
ENDBRANCH  10  13
ENDBRANCH   6   7
BRANCH   1  16
ATOM     16  C   UNL     1      -1.862  11.354  19.940  0.00  0.00    +0.000 C 
BRANCH  16  20
ATOM     17  C   UNL     1      -3.640  10.451  16.093  0.00  0.00    +0.000 A 
ATOM     18  C   UNL     1      -2.636   9.637  16.609  0.00  0.00    +0.000 A 
ATOM     19  C   UNL     1      -2.085   9.902  17.859  0.00  0.00    +0.000 A 
ATOM     20  C   UNL     1      -2.511  11.015  18.604  0.00  0.00    +0.000 A 
ATOM     21  C   UNL     1      -3.531  11.819  18.087  0.00  0.00    +0.000 A 
ATOM     22  C   UNL     1      -4.080  11.550  16.831  0.00  0.00    +0.000 A 
BRANCH  17  24
ATOM     23  C   UNL     1      -3.087  10.062  13.835  0.00  0.00    +0.000 C 
ATOM     24  O   UNL     1      -4.092  10.125  14.843  0.00  0.00    +0.000 OA
ENDBRANCH  17  24
ENDBRANCH  16  20
ENDBRANCH   1  16
BRANCH   5  25
ATOM     25  C   UNL     1       2.171  13.211  19.908  0.00  0.00    +0.000 C 
BRANCH  25  26
ATOM     26  C   UNL     1       3.425  14.046  19.724  0.00  0.00    +0.000 A 
ATOM     27  C   UNL     1       4.120  14.554  20.830  0.00  0.00    +0.000 A 
ATOM     28  C   UNL     1       5.334  15.224  20.659  0.00  0.00    +0.000 A 
ATOM     29  C   UNL     1       5.889  15.362  19.385  0.00  0.00    +0.000 A 
ATOM     30  C   UNL     1       5.184  14.893  18.277  0.00  0.00    +0.000 A 
ATOM     31  C   UNL     1       3.959  14.244  18.447  0.00  0.00    +0.000 A 
BRANCH  29  32
ATOM     32  O   UNL     1       7.105  15.989  19.328  0.00  0.00    +0.000 OA
ATOM     33  C   UNL     1       7.882  15.679  18.174  0.00  0.00    +0.000 C 
ENDBRANCH  29  32
ENDBRANCH  25  26
ENDBRANCH   5  25
TORSDOF 8
ENDMDL
MODEL 7
REMARK VINA RESULT:      -6.4      5.353      9.729
REMARK  Name = 
REMARK  12 active torsions:
REMARK  status: ('A' for Active; 'I' for Inactive)
REMARK    1  A    between atoms: C_1  and  O_2
REMARK    2  A    between atoms: O_2  and  C_3
REMARK    3  A    between atoms: C_6  and  C_7
REMARK    4  A    between atoms: C_7  and  N_8
REMARK    5  A    between atoms: N_12  and  C_13
REMARK    6  A    between atoms: C_13  and  C_14
REMARK    7  A    between atoms: C_17  and  O_18
REMARK    8  A    between atoms: O_18  and  C_19
REMARK    9  A    between atoms: C_22  and  C_23
REMARK   10  A    between atoms: C_26  and  N_27
REMARK   11  A    between atoms: N_27  and  C_28
REMARK   12  A    between atoms: N_27  and  C_29
REMARK                            x       y       z     vdW  Elec       q    Type
REMARK                         _______ _______ _______ _____ _____    ______ ____
ROOT
ATOM      1  N   UNL     1      -0.868  11.654  22.274  0.00  0.00    +0.000 NA
ATOM      2  C   UNL     1      -1.221  10.488  23.095  0.00  0.00    +0.000 C 
ATOM      3  C   UNL     1      -0.525   9.188  22.726  0.00  0.00    +0.000 C 
ATOM      4  C   UNL     1       0.944   9.455  22.459  0.00  0.00    +0.000 C 
ATOM      5  N   UNL     1       1.118  10.472  21.418  0.00  0.00    +0.000 NA
ATOM      6  C   UNL     1       0.559  11.757  21.903  0.00  0.00    +0.000 C 
ENDROOT
BRANCH   6   7
ATOM      7  C   UNL     1       0.847  12.901  20.913  0.00  0.00    +0.000 A 
ATOM      8  C   UNL     1      -0.099  13.341  19.974  0.00  0.00    +0.000 A 
ATOM      9  C   UNL     1       0.176  14.400  19.099  0.00  0.00    +0.000 A 
ATOM     10  C   UNL     1       1.398  15.092  19.119  0.00  0.00    +0.000 A 
ATOM     11  C   UNL     1       2.337  14.624  20.053  0.00  0.00    +0.000 A 
ATOM     12  C   UNL     1       2.086  13.544  20.916  0.00  0.00    +0.000 A 
BRANCH  10  13
ATOM     13  N   UNL     1       1.668  16.138  18.249  0.00  0.00    +0.000 N 
ATOM     14  C   UNL     1       0.771  17.283  18.105  0.00  0.00    +0.000 C 
ATOM     15  C   UNL     1       2.971  16.315  17.613  0.00  0.00    +0.000 C 
ENDBRANCH  10  13
ENDBRANCH   6   7
BRANCH   1  16
ATOM     16  C   UNL     1      -1.407  12.901  22.879  0.00  0.00    +0.000 C 
BRANCH  16  20
ATOM     17  C   UNL     1      -5.722  13.288  22.909  0.00  0.00    +0.000 A 
ATOM     18  C   UNL     1      -5.026  13.106  24.101  0.00  0.00    +0.000 A 
ATOM     19  C   UNL     1      -3.638  13.016  24.101  0.00  0.00    +0.000 A 
ATOM     20  C   UNL     1      -2.920  13.073  22.894  0.00  0.00    +0.000 A 
ATOM     21  C   UNL     1      -3.624  13.271  21.703  0.00  0.00    +0.000 A 
ATOM     22  C   UNL     1      -5.018  13.359  21.707  0.00  0.00    +0.000 A 
BRANCH  17  24
ATOM     23  C   UNL     1      -7.720  12.065  23.175  0.00  0.00    +0.000 C 
ATOM     24  O   UNL     1      -7.087  13.330  23.012  0.00  0.00    +0.000 OA
ENDBRANCH  17  24
ENDBRANCH  16  20
ENDBRANCH   1  16
BRANCH   5  25
ATOM     25  C   UNL     1       0.589  10.068  20.103  0.00  0.00    +0.000 C 
BRANCH  25  26
ATOM     26  C   UNL     1       1.377   8.989  19.385  0.00  0.00    +0.000 A 
ATOM     27  C   UNL     1       1.837   9.185  18.074  0.00  0.00    +0.000 A 
ATOM     28  C   UNL     1       2.657   8.234  17.461  0.00  0.00    +0.000 A 
ATOM     29  C   UNL     1       3.060   7.095  18.160  0.00  0.00    +0.000 A 
ATOM     30  C   UNL     1       2.575   6.875  19.449  0.00  0.00    +0.000 A 
ATOM     31  C   UNL     1       1.736   7.814  20.052  0.00  0.00    +0.000 A 
BRANCH  29  32
ATOM     32  O   UNL     1       3.904   6.250  17.490  0.00  0.00    +0.000 OA
ATOM     33  C   UNL     1       5.207   6.775  17.249  0.00  0.00    +0.000 C 
ENDBRANCH  29  32
ENDBRANCH  25  26
ENDBRANCH   5  25
TORSDOF 8
ENDMDL
MODEL 8
REMARK VINA RESULT:      -6.4      0.276      1.054
REMARK  Name = 
REMARK  12 active torsions:
REMARK  status: ('A' for Active; 'I' for Inactive)
REMARK    1  A    between atoms: C_1  and  O_2
REMARK    2  A    between atoms: O_2  and  C_3
REMARK    3  A    between atoms: C_6  and  C_7
REMARK    4  A    between atoms: C_7  and  N_8
REMARK    5  A    between atoms: N_12  and  C_13
REMARK    6  A    between atoms: C_13  and  C_14
REMARK    7  A    between atoms: C_17  and  O_18
REMARK    8  A    between atoms: O_18  and  C_19
REMARK    9  A    between atoms: C_22  and  C_23
REMARK   10  A    between atoms: C_26  and  N_27
REMARK   11  A    between atoms: N_27  and  C_28
REMARK   12  A    between atoms: N_27  and  C_29
REMARK                            x       y       z     vdW  Elec       q    Type
REMARK                         _______ _______ _______ _____ _____    ______ ____
ROOT
ATOM      1  N   UNL     1       4.877   4.831  16.386  0.00  0.00    +0.000 NA
ATOM      2  C   UNL     1       5.946   3.939  15.921  0.00  0.00    +0.000 C 
ATOM      3  C   UNL     1       7.364   4.391  16.233  0.00  0.00    +0.000 C 
ATOM      4  C   UNL     1       7.432   4.904  17.660  0.00  0.00    +0.000 C 
ATOM      5  N   UNL     1       6.462   5.980  17.884  0.00  0.00    +0.000 NA
ATOM      6  C   UNL     1       5.093   5.435  17.719  0.00  0.00    +0.000 C 
ENDROOT
BRANCH   6   7
ATOM      7  C   UNL     1       4.026   6.482  18.090  0.00  0.00    +0.000 A 
ATOM      8  C   UNL     1       3.671   7.532  17.229  0.00  0.00    +0.000 A 
ATOM      9  C   UNL     1       2.679   8.460  17.577  0.00  0.00    +0.000 A 
ATOM     10  C   UNL     1       1.975   8.387  18.790  0.00  0.00    +0.000 A 
ATOM     11  C   UNL     1       2.360   7.339  19.644  0.00  0.00    +0.000 A 
ATOM     12  C   UNL     1       3.373   6.420  19.321  0.00  0.00    +0.000 A 
BRANCH  10  13
ATOM     13  N   UNL     1       0.998   9.308  19.133  0.00  0.00    +0.000 N 
ATOM     14  C   UNL     1       0.034   9.820  18.160  0.00  0.00    +0.000 C 
ATOM     15  C   UNL     1       0.681   9.639  20.520  0.00  0.00    +0.000 C 
ENDBRANCH  10  13
ENDBRANCH   6   7
BRANCH   1  16
ATOM     16  C   UNL     1       3.551   4.171  16.252  0.00  0.00    +0.000 C 
BRANCH  16  20
ATOM     17  C   UNL     1       1.729   2.770  19.926  0.00  0.00    +0.000 A 
ATOM     18  C   UNL     1       0.994   3.540  19.028  0.00  0.00    +0.000 A 
ATOM     19  C   UNL     1       1.564   3.964  17.832  0.00  0.00    +0.000 A 
ATOM     20  C   UNL     1       2.899   3.649  17.526  0.00  0.00    +0.000 A 
ATOM     21  C   UNL     1       3.625   2.862  18.425  0.00  0.00    +0.000 A 
ATOM     22  C   UNL     1       3.051   2.441  19.626  0.00  0.00    +0.000 A 
BRANCH  17  24
ATOM     23  C   UNL     1       1.888   2.526  22.265  0.00  0.00    +0.000 C 
ATOM     24  O   UNL     1       1.090   2.433  21.088  0.00  0.00    +0.000 OA
ENDBRANCH  17  24
ENDBRANCH  16  20
ENDBRANCH   1  16
BRANCH   5  25
ATOM     25  C   UNL     1       6.712   7.180  17.067  0.00  0.00    +0.000 C 
BRANCH  25  26
ATOM     26  C   UNL     1       7.609   8.227  17.700  0.00  0.00    +0.000 A 
ATOM     27  C   UNL     1       7.578   9.560  17.265  0.00  0.00    +0.000 A 
ATOM     28  C   UNL     1       8.323  10.540  17.927  0.00  0.00    +0.000 A 
ATOM     29  C   UNL     1       9.078  10.210  19.055  0.00  0.00    +0.000 A 
ATOM     30  C   UNL     1       9.144   8.880  19.469  0.00  0.00    +0.000 A 
ATOM     31  C   UNL     1       8.418   7.897  18.792  0.00  0.00    +0.000 A 
BRANCH  29  32
ATOM     32  O   UNL     1       9.730  11.248  19.662  0.00  0.00    +0.000 OA
ATOM     33  C   UNL     1      10.733  11.872  18.864  0.00  0.00    +0.000 C 
ENDBRANCH  29  32
ENDBRANCH  25  26
ENDBRANCH   5  25
TORSDOF 8
ENDMDL
MODEL 9
REMARK VINA RESULT:      -6.3      5.678     10.520
REMARK  Name = 
REMARK  12 active torsions:
REMARK  status: ('A' for Active; 'I' for Inactive)
REMARK    1  A    between atoms: C_1  and  O_2
REMARK    2  A    between atoms: O_2  and  C_3
REMARK    3  A    between atoms: C_6  and  C_7
REMARK    4  A    between atoms: C_7  and  N_8
REMARK    5  A    between atoms: N_12  and  C_13
REMARK    6  A    between atoms: C_13  and  C_14
REMARK    7  A    between atoms: C_17  and  O_18
REMARK    8  A    between atoms: O_18  and  C_19
REMARK    9  A    between atoms: C_22  and  C_23
REMARK   10  A    between atoms: C_26  and  N_27
REMARK   11  A    between atoms: N_27  and  C_28
REMARK   12  A    between atoms: N_27  and  C_29
REMARK                            x       y       z     vdW  Elec       q    Type
REMARK                         _______ _______ _______ _____ _____    ______ ____
ROOT
ATOM      1  N   UNL     1      -0.982  10.512  18.116  0.00  0.00    +0.000 NA
ATOM      2  C   UNL     1      -1.415   9.632  17.022  0.00  0.00    +0.000 C 
ATOM      3  C   UNL     1      -2.888   9.712  16.656  0.00  0.00    +0.000 C 
ATOM      4  C   UNL     1      -3.326  11.164  16.620  0.00  0.00    +0.000 C 
ATOM      5  N   UNL     1      -3.052  11.833  17.895  0.00  0.00    +0.000 NA
ATOM      6  C   UNL     1      -1.586  11.862  18.117  0.00  0.00    +0.000 C 
ENDROOT
BRANCH   6   7
ATOM      7  C   UNL     1      -1.226  12.686  19.368  0.00  0.00    +0.000 A 
ATOM      8  C   UNL     1      -1.212  12.130  20.657  0.00  0.00    +0.000 A 
ATOM      9  C   UNL     1      -0.858  12.893  21.778  0.00  0.00    +0.000 A 
ATOM     10  C   UNL     1      -0.483  14.243  21.680  0.00  0.00    +0.000 A 
ATOM     11  C   UNL     1      -0.522  14.783  20.383  0.00  0.00    +0.000 A 
ATOM     12  C   UNL     1      -0.904  14.039  19.254  0.00  0.00    +0.000 A 
BRANCH  10  13
ATOM     13  N   UNL     1      -0.136  14.995  22.792  0.00  0.00    +0.000 N 
ATOM     14  C   UNL     1       0.969  15.951  22.771  0.00  0.00    +0.000 C 
ATOM     15  C   UNL     1      -0.991  15.094  23.972  0.00  0.00    +0.000 C 
ENDBRANCH  10  13
ENDBRANCH   6   7
BRANCH   1  16
ATOM     16  C   UNL     1       0.501  10.535  18.212  0.00  0.00    +0.000 C 
BRANCH  16  20
ATOM     17  C   UNL     1       2.365   6.912  19.687  0.00  0.00    +0.000 A 
ATOM     18  C   UNL     1       2.520   7.288  18.355  0.00  0.00    +0.000 A 
ATOM     19  C   UNL     1       1.952   8.468  17.885  0.00  0.00    +0.000 A 
ATOM     20  C   UNL     1       1.186   9.280  18.738  0.00  0.00    +0.000 A 
ATOM     21  C   UNL     1       1.048   8.905  20.078  0.00  0.00    +0.000 A 
ATOM     22  C   UNL     1       1.617   7.719  20.545  0.00  0.00    +0.000 A 
BRANCH  17  24
ATOM     23  C   UNL     1       4.180   5.433  19.417  0.00  0.00    +0.000 C 
ATOM     24  O   UNL     1       2.933   5.718  20.042  0.00  0.00    +0.000 OA
ENDBRANCH  17  24
ENDBRANCH  16  20
ENDBRANCH   1  16
BRANCH   5  25
ATOM     25  C   UNL     1      -3.800  11.268  19.032  0.00  0.00    +0.000 C 
BRANCH  25  26
ATOM     26  C   UNL     1      -4.877  12.164  19.615  0.00  0.00    +0.000 A 
ATOM     27  C   UNL     1      -4.547  13.375  20.240  0.00  0.00    +0.000 A 
ATOM     28  C   UNL     1      -5.549  14.247  20.673  0.00  0.00    +0.000 A 
ATOM     29  C   UNL     1      -6.893  13.940  20.454  0.00  0.00    +0.000 A 
ATOM     30  C   UNL     1      -7.230  12.720  19.869  0.00  0.00    +0.000 A 
ATOM     31  C   UNL     1      -6.228  11.838  19.458  0.00  0.00    +0.000 A 
BRANCH  29  32
ATOM     32  O   UNL     1      -7.796  14.881  20.869  0.00  0.00    +0.000 OA
ATOM     33  C   UNL     1      -7.916  15.011  22.284  0.00  0.00    +0.000 C 
ENDBRANCH  29  32
ENDBRANCH  25  26
ENDBRANCH   5  25
TORSDOF 8
ENDMDL
