MODEL 1
REMARK VINA RESULT:      -9.3      0.000      0.000
REMARK  Name = 
REMARK  3 active torsions:
REMARK  status: ('A' for Active; 'I' for Inactive)
REMARK    1  A    between atoms: C_6  and  C_7
REMARK    2  A    between atoms: C_9  and  O_10
REMARK    3  A    between atoms: O_10  and  C_11
REMARK                            x       y       z     vdW  Elec       q    Type
REMARK                         _______ _______ _______ _____ _____    ______ ____
ROOT
ATOM      1  C   UNL     1       3.179   6.987  18.030  0.00  0.00    +0.000 A 
ATOM      2  C   UNL     1       2.981   5.609  18.238  0.00  0.00    +0.000 A 
ATOM      3  C   UNL     1       3.812   4.622  17.653  0.00  0.00    +0.000 A 
ATOM      4  C   UNL     1       4.859   5.024  16.790  0.00  0.00    +0.000 A 
ATOM      5  C   UNL     1       5.834   4.442  15.919  0.00  0.00    +0.000 A 
ATOM      6  N   UNL     1       5.950   3.149  15.593  0.00  0.00    +0.000 N 
ATOM      7  N   UNL     1       6.677   5.345  15.425  0.00  0.00    +0.000 NA
ATOM      8  N   UNL     1       6.202   6.508  15.878  0.00  0.00    +0.000 N 
ATOM      9  C   UNL     1       5.096   6.392  16.673  0.00  0.00    +0.000 A 
ATOM     10  C   UNL     1       4.295   7.375  17.267  0.00  0.00    +0.000 A 
ATOM     11  H   UNL     1       5.441   2.422  16.078  0.00  0.00    +0.000 HD
ATOM     12  H   UNL     1       6.840   2.850  15.216  0.00  0.00    +0.000 HD
ATOM     13  H   UNL     1       6.673   7.361  15.597  0.00  0.00    +0.000 HD
ENDROOT
BRANCH   1  19
ATOM     14  N   UNL     1       0.855   8.793  21.732  0.00  0.00    +0.000 N 
ATOM     15  C   UNL     1       1.164   8.884  20.390  0.00  0.00    +0.000 A 
ATOM     16  N   UNL     1       0.670   9.924  19.719  0.00  0.00    +0.000 NA
ATOM     17  C   UNL     1       1.004  10.002  18.420  0.00  0.00    +0.000 A 
ATOM     18  C   UNL     1       1.791   9.078  17.780  0.00  0.00    +0.000 A 
ATOM     19  C   UNL     1       2.244   8.020  18.543  0.00  0.00    +0.000 A 
ATOM     20  N   UNL     1       1.916   7.917  19.858  0.00  0.00    +0.000 NA
ATOM     21  H   UNL     1       0.017   9.323  21.923  0.00  0.00    +0.000 HD
ATOM     22  H   UNL     1       0.878   7.829  22.029  0.00  0.00    +0.000 HD
ENDBRANCH   1  19
BRANCH   3  23
ATOM     23  O   UNL     1       3.430   3.309  17.936  0.00  0.00    +0.000 OA
BRANCH  23  24
ATOM     24  C   UNL     1       2.697   3.034  19.068  0.00  0.00    +0.000 A 
ATOM     25  C   UNL     1       1.302   2.997  19.139  0.00  0.00    +0.000 A 
ATOM     26  C   UNL     1       0.669   2.831  20.373  0.00  0.00    +0.000 A 
ATOM     27  C   UNL     1       1.424   2.633  21.528  0.00  0.00    +0.000 A 
ATOM     28  C   UNL     1       2.815   2.594  21.450  0.00  0.00    +0.000 A 
ATOM     29  C   UNL     1       3.449   2.796  20.222  0.00  0.00    +0.000 A 
ENDBRANCH  23  24
ENDBRANCH   3  23
TORSDOF 3
ENDMDL
MODEL 2
REMARK VINA RESULT:      -9.2      2.584      4.890
REMARK  Name = 
REMARK  3 active torsions:
REMARK  status: ('A' for Active; 'I' for Inactive)
REMARK    1  A    between atoms: C_6  and  C_7
REMARK    2  A    between atoms: C_9  and  O_10
REMARK    3  A    between atoms: O_10  and  C_11
REMARK                            x       y       z     vdW  Elec       q    Type
REMARK                         _______ _______ _______ _____ _____    ______ ____
ROOT
ATOM      1  C   UNL     1       2.042   6.883  20.064  0.00  0.00    +0.000 A 
ATOM      2  C   UNL     1       2.983   6.617  19.052  0.00  0.00    +0.000 A 
ATOM      3  C   UNL     1       3.601   5.352  18.897  0.00  0.00    +0.000 A 
ATOM      4  C   UNL     1       3.299   4.319  19.816  0.00  0.00    +0.000 A 
ATOM      5  C   UNL     1       3.722   2.990  20.136  0.00  0.00    +0.000 A 
ATOM      6  N   UNL     1       4.747   2.322  19.594  0.00  0.00    +0.000 N 
ATOM      7  N   UNL     1       2.966   2.428  21.075  0.00  0.00    +0.000 NA
ATOM      8  N   UNL     1       2.130   3.404  21.440  0.00  0.00    +0.000 N 
ATOM      9  C   UNL     1       2.297   4.573  20.751  0.00  0.00    +0.000 A 
ATOM     10  C   UNL     1       1.663   5.813  20.896  0.00  0.00    +0.000 A 
ATOM     11  H   UNL     1       5.230   2.650  18.768  0.00  0.00    +0.000 HD
ATOM     12  H   UNL     1       4.744   1.315  19.699  0.00  0.00    +0.000 HD
ATOM     13  H   UNL     1       1.466   3.215  22.183  0.00  0.00    +0.000 HD
ENDROOT
BRANCH   1  19
ATOM     14  N   UNL     1       0.633  11.011  18.237  0.00  0.00    +0.000 N 
ATOM     15  C   UNL     1       0.770  10.215  19.356  0.00  0.00    +0.000 A 
ATOM     16  N   UNL     1       0.309  10.700  20.510  0.00  0.00    +0.000 NA
ATOM     17  C   UNL     1       0.434   9.898  21.580  0.00  0.00    +0.000 A 
ATOM     18  C   UNL     1       1.009   8.653  21.535  0.00  0.00    +0.000 A 
ATOM     19  C   UNL     1       1.479   8.235  20.304  0.00  0.00    +0.000 A 
ATOM     20  N   UNL     1       1.368   9.032  19.209  0.00  0.00    +0.000 NA
ATOM     21  H   UNL     1       0.532  11.976  18.517  0.00  0.00    +0.000 HD
ATOM     22  H   UNL     1       1.352  10.790  17.564  0.00  0.00    +0.000 HD
ENDBRANCH   1  19
BRANCH   3  23
ATOM     23  O   UNL     1       4.542   5.296  17.868  0.00  0.00    +0.000 OA
BRANCH  23  24
ATOM     24  C   UNL     1       5.796   5.834  18.050  0.00  0.00    +0.000 A 
ATOM     25  C   UNL     1       6.735   5.397  18.986  0.00  0.00    +0.000 A 
ATOM     26  C   UNL     1       7.927   6.104  19.163  0.00  0.00    +0.000 A 
ATOM     27  C   UNL     1       8.214   7.208  18.362  0.00  0.00    +0.000 A 
ATOM     28  C   UNL     1       7.313   7.602  17.375  0.00  0.00    +0.000 A 
ATOM     29  C   UNL     1       6.105   6.918  17.222  0.00  0.00    +0.000 A 
ENDBRANCH  23  24
ENDBRANCH   3  23
TORSDOF 3
ENDMDL
MODEL 3
REMARK VINA RESULT:      -9.1      1.691      5.465
REMARK  Name = 
REMARK  3 active torsions:
REMARK  status: ('A' for Active; 'I' for Inactive)
REMARK    1  A    between atoms: C_6  and  C_7
REMARK    2  A    between atoms: C_9  and  O_10
REMARK    3  A    between atoms: O_10  and  C_11
REMARK                            x       y       z     vdW  Elec       q    Type
REMARK                         _______ _______ _______ _____ _____    ______ ____
ROOT
ATOM      1  C   UNL     1       3.989   6.727  17.707  0.00  0.00    +0.000 A 
ATOM      2  C   UNL     1       3.391   6.203  18.868  0.00  0.00    +0.000 A 
ATOM      3  C   UNL     1       2.364   6.882  19.570  0.00  0.00    +0.000 A 
ATOM      4  C   UNL     1       1.943   8.155  19.117  0.00  0.00    +0.000 A 
ATOM      5  C   UNL     1       1.082   9.223  19.523  0.00  0.00    +0.000 A 
ATOM      6  N   UNL     1       0.413   9.321  20.677  0.00  0.00    +0.000 N 
ATOM      7  N   UNL     1       0.986  10.177  18.600  0.00  0.00    +0.000 NA
ATOM      8  N   UNL     1       1.849   9.795  17.654  0.00  0.00    +0.000 N 
ATOM      9  C   UNL     1       2.481   8.612  17.915  0.00  0.00    +0.000 A 
ATOM     10  C   UNL     1       3.479   7.937  17.202  0.00  0.00    +0.000 A 
ATOM     11  H   UNL     1       0.328   8.545  21.320  0.00  0.00    +0.000 HD
ATOM     12  H   UNL     1      -0.367   9.966  20.702  0.00  0.00    +0.000 HD
ATOM     13  H   UNL     1       1.975  10.397  16.847  0.00  0.00    +0.000 HD
ENDROOT
BRANCH   1  19
ATOM     14  N   UNL     1       8.007   4.270  18.145  0.00  0.00    +0.000 N 
ATOM     15  C   UNL     1       7.077   4.847  17.304  0.00  0.00    +0.000 A 
ATOM     16  N   UNL     1       7.260   4.692  15.993  0.00  0.00    +0.000 NA
ATOM     17  C   UNL     1       6.329   5.244  15.196  0.00  0.00    +0.000 A 
ATOM     18  C   UNL     1       5.247   5.947  15.665  0.00  0.00    +0.000 A 
ATOM     19  C   UNL     1       5.144   6.079  17.036  0.00  0.00    +0.000 A 
ATOM     20  N   UNL     1       6.076   5.533  17.861  0.00  0.00    +0.000 NA
ATOM     21  H   UNL     1       8.872   4.125  17.644  0.00  0.00    +0.000 HD
ATOM     22  H   UNL     1       8.049   4.777  19.016  0.00  0.00    +0.000 HD
ENDBRANCH   1  19
BRANCH   3  23
ATOM     23  O   UNL     1       1.929   6.228  20.724  0.00  0.00    +0.000 OA
BRANCH  23  24
ATOM     24  C   UNL     1       1.800   4.858  20.733  0.00  0.00    +0.000 A 
ATOM     25  C   UNL     1       2.420   3.994  21.639  0.00  0.00    +0.000 A 
ATOM     26  C   UNL     1       2.313   2.611  21.470  0.00  0.00    +0.000 A 
ATOM     27  C   UNL     1       1.535   2.087  20.439  0.00  0.00    +0.000 A 
ATOM     28  C   UNL     1       0.854   2.947  19.578  0.00  0.00    +0.000 A 
ATOM     29  C   UNL     1       0.988   4.329  19.725  0.00  0.00    +0.000 A 
ENDBRANCH  23  24
ENDBRANCH   3  23
TORSDOF 3
ENDMDL
MODEL 4
REMARK VINA RESULT:      -9.1      2.587      4.835
REMARK  Name = 
REMARK  3 active torsions:
REMARK  status: ('A' for Active; 'I' for Inactive)
REMARK    1  A    between atoms: C_6  and  C_7
REMARK    2  A    between atoms: C_9  and  O_10
REMARK    3  A    between atoms: O_10  and  C_11
REMARK                            x       y       z     vdW  Elec       q    Type
REMARK                         _______ _______ _______ _____ _____    ______ ____
ROOT
ATOM      1  C   UNL     1       1.973   6.905  20.104  0.00  0.00    +0.000 A 
ATOM      2  C   UNL     1       2.922   6.598  19.111  0.00  0.00    +0.000 A 
ATOM      3  C   UNL     1       3.477   5.304  18.959  0.00  0.00    +0.000 A 
ATOM      4  C   UNL     1       3.100   4.280  19.862  0.00  0.00    +0.000 A 
ATOM      5  C   UNL     1       3.445   2.929  20.179  0.00  0.00    +0.000 A 
ATOM      6  N   UNL     1       4.446   2.212  19.655  0.00  0.00    +0.000 N 
ATOM      7  N   UNL     1       2.639   2.400  21.096  0.00  0.00    +0.000 NA
ATOM      8  N   UNL     1       1.847   3.416  21.451  0.00  0.00    +0.000 N 
ATOM      9  C   UNL     1       2.091   4.580  20.776  0.00  0.00    +0.000 A 
ATOM     10  C   UNL     1       1.519   5.850  20.917  0.00  0.00    +0.000 A 
ATOM     11  H   UNL     1       4.964   2.520  18.842  0.00  0.00    +0.000 HD
ATOM     12  H   UNL     1       4.388   1.206  19.751  0.00  0.00    +0.000 HD
ATOM     13  H   UNL     1       1.158   3.257  22.177  0.00  0.00    +0.000 HD
ENDROOT
BRANCH   1  19
ATOM     14  N   UNL     1       0.666  11.061  18.264  0.00  0.00    +0.000 N 
ATOM     15  C   UNL     1       0.813  10.277  19.391  0.00  0.00    +0.000 A 
ATOM     16  N   UNL     1       0.418  10.798  20.553  0.00  0.00    +0.000 NA
ATOM     17  C   UNL     1       0.551  10.007  21.631  0.00  0.00    +0.000 A 
ATOM     18  C   UNL     1       1.072   8.738  21.583  0.00  0.00    +0.000 A 
ATOM     19  C   UNL     1       1.476   8.283  20.343  0.00  0.00    +0.000 A 
ATOM     20  N   UNL     1       1.356   9.067  19.240  0.00  0.00    +0.000 NA
ATOM     21  H   UNL     1       0.616  12.033  18.533  0.00  0.00    +0.000 HD
ATOM     22  H   UNL     1       1.348  10.800  17.568  0.00  0.00    +0.000 HD
ENDBRANCH   1  19
BRANCH   3  23
ATOM     23  O   UNL     1       4.437   5.206  17.951  0.00  0.00    +0.000 OA
BRANCH  23  24
ATOM     24  C   UNL     1       5.640   5.860  18.079  0.00  0.00    +0.000 A 
ATOM     25  C   UNL     1       6.079   6.911  17.271  0.00  0.00    +0.000 A 
ATOM     26  C   UNL     1       7.375   7.413  17.419  0.00  0.00    +0.000 A 
ATOM     27  C   UNL     1       8.211   6.915  18.417  0.00  0.00    +0.000 A 
ATOM     28  C   UNL     1       7.750   5.918  19.275  0.00  0.00    +0.000 A 
ATOM     29  C   UNL     1       6.468   5.391  19.104  0.00  0.00    +0.000 A 
ENDBRANCH  23  24
ENDBRANCH   3  23
TORSDOF 3
ENDMDL
MODEL 5
REMARK VINA RESULT:      -9.1      2.601      4.753
REMARK  Name = 
REMARK  3 active torsions:
REMARK  status: ('A' for Active; 'I' for Inactive)
REMARK    1  A    between atoms: C_6  and  C_7
REMARK    2  A    between atoms: C_9  and  O_10
REMARK    3  A    between atoms: O_10  and  C_11
REMARK                            x       y       z     vdW  Elec       q    Type
REMARK                         _______ _______ _______ _____ _____    ______ ____
ROOT
ATOM      1  C   UNL     1       1.909   6.802  20.155  0.00  0.00    +0.000 A 
ATOM      2  C   UNL     1       2.826   6.609  19.105  0.00  0.00    +0.000 A 
ATOM      3  C   UNL     1       3.502   5.382  18.897  0.00  0.00    +0.000 A 
ATOM      4  C   UNL     1       3.284   4.312  19.799  0.00  0.00    +0.000 A 
ATOM      5  C   UNL     1       3.784   3.000  20.070  0.00  0.00    +0.000 A 
ATOM      6  N   UNL     1       4.821   2.398  19.477  0.00  0.00    +0.000 N 
ATOM      7  N   UNL     1       3.090   2.377  21.019  0.00  0.00    +0.000 NA
ATOM      8  N   UNL     1       2.219   3.300  21.437  0.00  0.00    +0.000 N 
ATOM      9  C   UNL     1       2.303   4.493  20.773  0.00  0.00    +0.000 A 
ATOM     10  C   UNL     1       1.613   5.694  20.971  0.00  0.00    +0.000 A 
ATOM     11  H   UNL     1       5.258   2.769  18.644  0.00  0.00    +0.000 HD
ATOM     12  H   UNL     1       4.873   1.390  19.556  0.00  0.00    +0.000 HD
ATOM     13  H   UNL     1       1.592   3.060  22.196  0.00  0.00    +0.000 HD
ENDROOT
BRANCH   1  19
ATOM     14  N   UNL     1      -0.278   9.580  23.296  0.00  0.00    +0.000 N 
ATOM     15  C   UNL     1       0.259   9.444  22.032  0.00  0.00    +0.000 A 
ATOM     16  N   UNL     1       0.244  10.519  21.244  0.00  0.00    +0.000 NA
ATOM     17  C   UNL     1       0.792  10.368  20.026  0.00  0.00    +0.000 A 
ATOM     18  C   UNL     1       1.332   9.188  19.577  0.00  0.00    +0.000 A 
ATOM     19  C   UNL     1       1.288   8.118  20.449  0.00  0.00    +0.000 A 
ATOM     20  N   UNL     1       0.734   8.246  21.683  0.00  0.00    +0.000 NA
ATOM     21  H   UNL     1      -0.919  10.360  23.310  0.00  0.00    +0.000 HD
ATOM     22  H   UNL     1      -0.616   8.689  23.627  0.00  0.00    +0.000 HD
ENDBRANCH   1  19
BRANCH   3  23
ATOM     23  O   UNL     1       4.408   5.398  17.836  0.00  0.00    +0.000 OA
BRANCH  23  24
ATOM     24  C   UNL     1       5.681   5.886  18.024  0.00  0.00    +0.000 A 
ATOM     25  C   UNL     1       6.606   5.396  18.949  0.00  0.00    +0.000 A 
ATOM     26  C   UNL     1       7.823   6.054  19.136  0.00  0.00    +0.000 A 
ATOM     27  C   UNL     1       8.150   7.161  18.355  0.00  0.00    +0.000 A 
ATOM     28  C   UNL     1       7.262   7.608  17.379  0.00  0.00    +0.000 A 
ATOM     29  C   UNL     1       6.029   6.972  17.216  0.00  0.00    +0.000 A 
ENDBRANCH  23  24
ENDBRANCH   3  23
TORSDOF 3
ENDMDL
MODEL 6
REMARK VINA RESULT:      -9.0      3.589      6.005
REMARK  Name = 
REMARK  3 active torsions:
REMARK  status: ('A' for Active; 'I' for Inactive)
REMARK    1  A    between atoms: C_6  and  C_7
REMARK    2  A    between atoms: C_9  and  O_10
REMARK    3  A    between atoms: O_10  and  C_11
REMARK                            x       y       z     vdW  Elec       q    Type
REMARK                         _______ _______ _______ _____ _____    ______ ____
ROOT
ATOM      1  C   UNL     1       4.104   4.121  18.435  0.00  0.00    +0.000 A 
ATOM      2  C   UNL     1       4.222   4.603  17.118  0.00  0.00    +0.000 A 
ATOM      3  C   UNL     1       5.314   5.398  16.691  0.00  0.00    +0.000 A 
ATOM      4  C   UNL     1       6.311   5.762  17.628  0.00  0.00    +0.000 A 
ATOM      5  C   UNL     1       7.472   6.594  17.712  0.00  0.00    +0.000 A 
ATOM      6  N   UNL     1       7.922   7.441  16.779  0.00  0.00    +0.000 N 
ATOM      7  N   UNL     1       8.118   6.450  18.866  0.00  0.00    +0.000 NA
ATOM      8  N   UNL     1       7.340   5.621  19.568  0.00  0.00    +0.000 N 
ATOM      9  C   UNL     1       6.224   5.198  18.900  0.00  0.00    +0.000 A 
ATOM     10  C   UNL     1       5.161   4.391  19.323  0.00  0.00    +0.000 A 
ATOM     11  H   UNL     1       7.558   7.448  15.835  0.00  0.00    +0.000 HD
ATOM     12  H   UNL     1       8.889   7.731  16.852  0.00  0.00    +0.000 HD
ATOM     13  H   UNL     1       7.617   5.386  20.514  0.00  0.00    +0.000 HD
ENDROOT
BRANCH   1  19
ATOM     14  N   UNL     1       1.599   2.547  22.125  0.00  0.00    +0.000 N 
ATOM     15  C   UNL     1       1.704   2.677  20.755  0.00  0.00    +0.000 A 
ATOM     16  N   UNL     1       0.693   2.215  20.019  0.00  0.00    +0.000 NA
ATOM     17  C   UNL     1       0.809   2.373  18.690  0.00  0.00    +0.000 A 
ATOM     18  C   UNL     1       1.894   2.956  18.085  0.00  0.00    +0.000 A 
ATOM     19  C   UNL     1       2.907   3.388  18.919  0.00  0.00    +0.000 A 
ATOM     20  N   UNL     1       2.814   3.234  20.266  0.00  0.00    +0.000 NA
ATOM     21  H   UNL     1       0.947   1.808  22.346  0.00  0.00    +0.000 HD
ATOM     22  H   UNL     1       2.517   2.502  22.541  0.00  0.00    +0.000 HD
ENDBRANCH   1  19
BRANCH   3  23
ATOM     23  O   UNL     1       5.231   5.821  15.364  0.00  0.00    +0.000 OA
BRANCH  23  24
ATOM     24  C   UNL     1       5.883   5.119  14.375  0.00  0.00    +0.000 A 
ATOM     25  C   UNL     1       7.201   5.333  13.967  0.00  0.00    +0.000 A 
ATOM     26  C   UNL     1       7.713   4.642  12.866  0.00  0.00    +0.000 A 
ATOM     27  C   UNL     1       6.935   3.687  12.213  0.00  0.00    +0.000 A 
ATOM     28  C   UNL     1       5.645   3.416  12.665  0.00  0.00    +0.000 A 
ATOM     29  C   UNL     1       5.120   4.133  13.742  0.00  0.00    +0.000 A 
ENDBRANCH  23  24
ENDBRANCH   3  23
TORSDOF 3
ENDMDL
MODEL 7
REMARK VINA RESULT:      -8.8      2.375      6.484
REMARK  Name = 
REMARK  3 active torsions:
REMARK  status: ('A' for Active; 'I' for Inactive)
REMARK    1  A    between atoms: C_6  and  C_7
REMARK    2  A    between atoms: C_9  and  O_10
REMARK    3  A    between atoms: O_10  and  C_11
REMARK                            x       y       z     vdW  Elec       q    Type
REMARK                         _______ _______ _______ _____ _____    ______ ____
ROOT
ATOM      1  C   UNL     1       4.669   4.288  17.189  0.00  0.00    +0.000 A 
ATOM      2  C   UNL     1       4.312   5.228  18.174  0.00  0.00    +0.000 A 
ATOM      3  C   UNL     1       3.235   5.022  19.069  0.00  0.00    +0.000 A 
ATOM      4  C   UNL     1       2.453   3.848  18.952  0.00  0.00    +0.000 A 
ATOM      5  C   UNL     1       1.265   3.273  19.504  0.00  0.00    +0.000 A 
ATOM      6  N   UNL     1       0.414   3.853  20.358  0.00  0.00    +0.000 N 
ATOM      7  N   UNL     1       1.058   2.029  19.080  0.00  0.00    +0.000 NA
ATOM      8  N   UNL     1       2.030   1.829  18.186  0.00  0.00    +0.000 N 
ATOM      9  C   UNL     1       2.881   2.889  18.035  0.00  0.00    +0.000 A 
ATOM     10  C   UNL     1       3.960   3.073  17.162  0.00  0.00    +0.000 A 
ATOM     11  H   UNL     1       0.629   4.722  20.829  0.00  0.00    +0.000 HD
ATOM     12  H   UNL     1      -0.200   3.241  20.880  0.00  0.00    +0.000 HD
ATOM     13  H   UNL     1       2.057   0.943  17.694  0.00  0.00    +0.000 HD
ENDROOT
BRANCH   1  19
ATOM     14  N   UNL     1       6.353   3.399  12.859  0.00  0.00    +0.000 N 
ATOM     15  C   UNL     1       6.476   4.108  14.037  0.00  0.00    +0.000 A 
ATOM     16  N   UNL     1       7.460   5.004  14.111  0.00  0.00    +0.000 NA
ATOM     17  C   UNL     1       7.545   5.696  15.259  0.00  0.00    +0.000 A 
ATOM     18  C   UNL     1       6.699   5.511  16.324  0.00  0.00    +0.000 A 
ATOM     19  C   UNL     1       5.720   4.548  16.173  0.00  0.00    +0.000 A 
ATOM     20  N   UNL     1       5.618   3.832  15.022  0.00  0.00    +0.000 NA
ATOM     21  H   UNL     1       7.234   3.407  12.366  0.00  0.00    +0.000 HD
ATOM     22  H   UNL     1       5.921   2.505  13.036  0.00  0.00    +0.000 HD
ENDBRANCH   1  19
BRANCH   3  23
ATOM     23  O   UNL     1       3.003   6.087  19.942  0.00  0.00    +0.000 OA
BRANCH  23  24
ATOM     24  C   UNL     1       2.336   7.207  19.502  0.00  0.00    +0.000 A 
ATOM     25  C   UNL     1       2.325   7.676  18.186  0.00  0.00    +0.000 A 
ATOM     26  C   UNL     1       1.714   8.896  17.884  0.00  0.00    +0.000 A 
ATOM     27  C   UNL     1       1.054   9.615  18.878  0.00  0.00    +0.000 A 
ATOM     28  C   UNL     1       0.997   9.113  20.177  0.00  0.00    +0.000 A 
ATOM     29  C   UNL     1       1.639   7.912  20.487  0.00  0.00    +0.000 A 
ENDBRANCH  23  24
ENDBRANCH   3  23
TORSDOF 3
ENDMDL
MODEL 8
REMARK VINA RESULT:      -8.8      0.729      1.346
REMARK  Name = 
REMARK  3 active torsions:
REMARK  status: ('A' for Active; 'I' for Inactive)
REMARK    1  A    between atoms: C_6  and  C_7
REMARK    2  A    between atoms: C_9  and  O_10
REMARK    3  A    between atoms: O_10  and  C_11
REMARK                            x       y       z     vdW  Elec       q    Type
REMARK                         _______ _______ _______ _____ _____    ______ ____
ROOT
ATOM      1  C   UNL     1       3.145   6.953  18.265  0.00  0.00    +0.000 A 
ATOM      2  C   UNL     1       3.114   5.572  18.535  0.00  0.00    +0.000 A 
ATOM      3  C   UNL     1       3.917   4.639  17.834  0.00  0.00    +0.000 A 
ATOM      4  C   UNL     1       4.757   5.097  16.791  0.00  0.00    +0.000 A 
ATOM      5  C   UNL     1       5.614   4.570  15.775  0.00  0.00    +0.000 A 
ATOM      6  N   UNL     1       5.790   3.281  15.462  0.00  0.00    +0.000 N 
ATOM      7  N   UNL     1       6.273   5.522  15.120  0.00  0.00    +0.000 NA
ATOM      8  N   UNL     1       5.779   6.657  15.624  0.00  0.00    +0.000 N 
ATOM      9  C   UNL     1       4.844   6.476  16.604  0.00  0.00    +0.000 A 
ATOM     10  C   UNL     1       4.072   7.407  17.309  0.00  0.00    +0.000 A 
ATOM     11  H   UNL     1       5.442   2.530  16.045  0.00  0.00    +0.000 HD
ATOM     12  H   UNL     1       6.625   3.045  14.940  0.00  0.00    +0.000 HD
ATOM     13  H   UNL     1       6.114   7.536  15.246  0.00  0.00    +0.000 HD
ENDROOT
BRANCH   1  19
ATOM     14  N   UNL     1       0.125  10.556  17.753  0.00  0.00    +0.000 N 
ATOM     15  C   UNL     1       0.730   9.651  18.602  0.00  0.00    +0.000 A 
ATOM     16  N   UNL     1       0.366   9.679  19.884  0.00  0.00    +0.000 NA
ATOM     17  C   UNL     1       0.953   8.774  20.685  0.00  0.00    +0.000 A 
ATOM     18  C   UNL     1       1.888   7.867  20.251  0.00  0.00    +0.000 A 
ATOM     19  C   UNL     1       2.223   7.920  18.913  0.00  0.00    +0.000 A 
ATOM     20  N   UNL     1       1.647   8.831  18.084  0.00  0.00    +0.000 NA
ATOM     21  H   UNL     1      -0.234  11.334  18.288  0.00  0.00    +0.000 HD
ATOM     22  H   UNL     1       0.732  10.762  16.975  0.00  0.00    +0.000 HD
ENDBRANCH   1  19
BRANCH   3  23
ATOM     23  O   UNL     1       3.712   3.310  18.209  0.00  0.00    +0.000 OA
BRANCH  23  24
ATOM     24  C   UNL     1       2.861   3.011  19.249  0.00  0.00    +0.000 A 
ATOM     25  C   UNL     1       1.467   2.977  19.169  0.00  0.00    +0.000 A 
ATOM     26  C   UNL     1       0.706   2.783  20.324  0.00  0.00    +0.000 A 
ATOM     27  C   UNL     1       1.332   2.557  21.548  0.00  0.00    +0.000 A 
ATOM     28  C   UNL     1       2.723   2.516  21.619  0.00  0.00    +0.000 A 
ATOM     29  C   UNL     1       3.485   2.745  20.472  0.00  0.00    +0.000 A 
ENDBRANCH  23  24
ENDBRANCH   3  23
TORSDOF 3
ENDMDL
MODEL 9
REMARK VINA RESULT:      -8.6      2.427      4.510
REMARK  Name = 
REMARK  3 active torsions:
REMARK  status: ('A' for Active; 'I' for Inactive)
REMARK    1  A    between atoms: C_6  and  C_7
REMARK    2  A    between atoms: C_9  and  O_10
REMARK    3  A    between atoms: O_10  and  C_11
REMARK                            x       y       z     vdW  Elec       q    Type
REMARK                         _______ _______ _______ _____ _____    ______ ____
ROOT
ATOM      1  C   UNL     1       2.177   6.570  19.178  0.00  0.00    +0.000 A 
ATOM      2  C   UNL     1       2.701   5.832  18.100  0.00  0.00    +0.000 A 
ATOM      3  C   UNL     1       3.148   4.495  18.237  0.00  0.00    +0.000 A 
ATOM      4  C   UNL     1       3.109   3.880  19.512  0.00  0.00    +0.000 A 
ATOM      5  C   UNL     1       3.529   2.670  20.148  0.00  0.00    +0.000 A 
ATOM      6  N   UNL     1       4.265   1.692  19.608  0.00  0.00    +0.000 N 
ATOM      7  N   UNL     1       3.100   2.581  21.405  0.00  0.00    +0.000 NA
ATOM      8  N   UNL     1       2.502   3.756  21.623  0.00  0.00    +0.000 N 
ATOM      9  C   UNL     1       2.500   4.594  20.543  0.00  0.00    +0.000 A 
ATOM     10  C   UNL     1       2.034   5.907  20.411  0.00  0.00    +0.000 A 
ATOM     11  H   UNL     1       4.460   1.647  18.616  0.00  0.00    +0.000 HD
ATOM     12  H   UNL     1       4.233   0.789  20.064  0.00  0.00    +0.000 HD
ATOM     13  H   UNL     1       2.118   3.936  22.543  0.00  0.00    +0.000 HD
ENDROOT
BRANCH   1  19
ATOM     14  N   UNL     1       0.540  10.456  21.320  0.00  0.00    +0.000 N 
ATOM     15  C   UNL     1       1.050   9.881  20.173  0.00  0.00    +0.000 A 
ATOM     16  N   UNL     1       1.246  10.682  19.125  0.00  0.00    +0.000 NA
ATOM     17  C   UNL     1       1.763  10.103  18.028  0.00  0.00    +0.000 A 
ATOM     18  C   UNL     1       2.071   8.768  17.945  0.00  0.00    +0.000 A 
ATOM     19  C   UNL     1       1.817   8.006  19.069  0.00  0.00    +0.000 A 
ATOM     20  N   UNL     1       1.289   8.568  20.188  0.00  0.00    +0.000 NA
ATOM     21  H   UNL     1       0.061  11.313  21.085  0.00  0.00    +0.000 HD
ATOM     22  H   UNL     1       0.036   9.768  21.858  0.00  0.00    +0.000 HD
ENDBRANCH   1  19
BRANCH   3  23
ATOM     23  O   UNL     1       3.680   3.945  17.069  0.00  0.00    +0.000 OA
BRANCH  23  24
ATOM     24  C   UNL     1       4.979   4.222  16.707  0.00  0.00    +0.000 A 
ATOM     25  C   UNL     1       6.045   4.398  17.592  0.00  0.00    +0.000 A 
ATOM     26  C   UNL     1       7.293   4.800  17.111  0.00  0.00    +0.000 A 
ATOM     27  C   UNL     1       7.500   4.961  15.742  0.00  0.00    +0.000 A 
ATOM     28  C   UNL     1       6.459   4.712  14.849  0.00  0.00    +0.000 A 
ATOM     29  C   UNL     1       5.201   4.346  15.332  0.00  0.00    +0.000 A 
ENDBRANCH  23  24
ENDBRANCH   3  23
TORSDOF 3
ENDMDL
