MODEL 1
REMARK VINA RESULT:      -8.5      0.000      0.000
REMARK  Name = 
REMARK  4 active torsions:
REMARK  status: ('A' for Active; 'I' for Inactive)
REMARK    1  A    between atoms: C_2  and  C_3
REMARK    2  A    between atoms: C_3  and  S_4
REMARK    3  A    between atoms: S_4  and  C_5
REMARK    4  A    between atoms: N_18  and  C_19
REMARK                            x       y       z     vdW  Elec       q    Type
REMARK                         _______ _______ _______ _____ _____    ______ ____
ROOT
ATOM      1  C   UNL     1       4.933   3.545  18.456  0.00  0.00    +0.000 C 
ATOM      2  N   UNL     1       5.755   4.357  19.008  0.00  0.00    +0.000 NA
ATOM      3  S   UNL     1       6.926   5.021  18.104  0.00  0.00    +0.000 S 
ATOM      4  O   UNL     1       8.177   4.355  18.410  0.00  0.00    +0.000 OA
ATOM      5  O   UNL     1       6.814   6.462  18.206  0.00  0.00    +0.000 OA
ATOM      6  C   UNL     1       6.601   4.644  16.410  0.00  0.00    +0.000 A 
ATOM      7  C   UNL     1       7.362   5.249  15.403  0.00  0.00    +0.000 A 
ATOM      8  C   UNL     1       7.101   4.911  14.080  0.00  0.00    +0.000 A 
ATOM      9 CL   UNL     1       8.020   5.623  12.813  0.00  0.00    +0.000 Cl
ATOM     10  C   UNL     1       6.099   3.991  13.771  0.00  0.00    +0.000 A 
ATOM     11  C   UNL     1       5.347   3.403  14.794  0.00  0.00    +0.000 A 
ATOM     12  C   UNL     1       5.588   3.734  16.132  0.00  0.00    +0.000 A 
ATOM     13  N   UNL     1       4.843   3.158  17.154  0.00  0.00    +0.000 N 
ATOM     14  H   UNL     1       4.083   2.537  16.908  0.00  0.00    +0.000 HD
ENDROOT
BRANCH   1  15
ATOM     15  S   UNL     1       3.679   2.775  19.433  0.00  0.00    +0.000 S 
BRANCH  15  16
ATOM     16  C   UNL     1       3.092   4.175  20.424  0.00  0.00    +0.000 C 
BRANCH  16  18
ATOM     17  O   UNL     1       1.675   4.988  18.689  0.00  0.00    +0.000 OA
ATOM     18  C   UNL     1       2.456   5.285  19.593  0.00  0.00    +0.000 C 
ATOM     19  N   UNL     1       2.763   6.578  19.975  0.00  0.00    +0.000 N 
ATOM     20  H   UNL     1       3.574   6.702  20.574  0.00  0.00    +0.000 HD
BRANCH  19  21
ATOM     21  C   UNL     1       2.162   7.766  19.497  0.00  0.00    +0.000 A 
ATOM     22  C   UNL     1       2.340   8.252  18.198  0.00  0.00    +0.000 A 
ATOM     23  C   UNL     1       1.678   9.410  17.772  0.00  0.00    +0.000 A 
ATOM     24  C   UNL     1       0.835  10.100  18.641  0.00  0.00    +0.000 A 
ATOM     25  C   UNL     1       0.653   9.634  19.940  0.00  0.00    +0.000 A 
ATOM     26  C   UNL     1       1.308   8.472  20.354  0.00  0.00    +0.000 A 
ATOM     27  F   UNL     1       1.119   8.037  21.610  0.00  0.00    +0.000 F 
ENDBRANCH  19  21
ENDBRANCH  16  18
ENDBRANCH  15  16
ENDBRANCH   1  15
TORSDOF 4
ENDMDL
MODEL 2
REMARK VINA RESULT:      -8.5      1.039      1.412
REMARK  Name = 
REMARK  4 active torsions:
REMARK  status: ('A' for Active; 'I' for Inactive)
REMARK    1  A    between atoms: C_2  and  C_3
REMARK    2  A    between atoms: C_3  and  S_4
REMARK    3  A    between atoms: S_4  and  C_5
REMARK    4  A    between atoms: N_18  and  C_19
REMARK                            x       y       z     vdW  Elec       q    Type
REMARK                         _______ _______ _______ _____ _____    ______ ____
ROOT
ATOM      1  C   UNL     1       4.808   3.543  18.312  0.00  0.00    +0.000 C 
ATOM      2  N   UNL     1       5.585   4.370  18.904  0.00  0.00    +0.000 NA
ATOM      3  S   UNL     1       6.791   5.053  18.061  0.00  0.00    +0.000 S 
ATOM      4  O   UNL     1       8.035   4.410  18.436  0.00  0.00    +0.000 OA
ATOM      5  O   UNL     1       6.648   6.492  18.151  0.00  0.00    +0.000 OA
ATOM      6  C   UNL     1       6.563   4.664  16.353  0.00  0.00    +0.000 A 
ATOM      7  C   UNL     1       7.365   5.280  15.386  0.00  0.00    +0.000 A 
ATOM      8  C   UNL     1       7.182   4.934  14.052  0.00  0.00    +0.000 A 
ATOM      9 CL   UNL     1       8.154   5.658  12.833  0.00  0.00    +0.000 Cl
ATOM     10  C   UNL     1       6.214   3.994  13.694  0.00  0.00    +0.000 A 
ATOM     11  C   UNL     1       5.419   3.397  14.678  0.00  0.00    +0.000 A 
ATOM     12  C   UNL     1       5.582   3.736  16.025  0.00  0.00    +0.000 A 
ATOM     13  N   UNL     1       4.794   3.150  17.009  0.00  0.00    +0.000 N 
ATOM     14  H   UNL     1       4.060   2.514  16.726  0.00  0.00    +0.000 HD
ENDROOT
BRANCH   1  15
ATOM     15  S   UNL     1       3.518   2.753  19.224  0.00  0.00    +0.000 S 
BRANCH  15  16
ATOM     16  C   UNL     1       3.281   3.923  20.589  0.00  0.00    +0.000 C 
BRANCH  16  18
ATOM     17  O   UNL     1       1.089   4.848  20.439  0.00  0.00    +0.000 OA
ATOM     18  C   UNL     1       2.294   5.041  20.267  0.00  0.00    +0.000 C 
ATOM     19  N   UNL     1       2.848   6.241  19.863  0.00  0.00    +0.000 N 
ATOM     20  H   UNL     1       3.813   6.219  19.547  0.00  0.00    +0.000 HD
BRANCH  19  21
ATOM     21  C   UNL     1       2.171   7.471  19.694  0.00  0.00    +0.000 A 
ATOM     22  C   UNL     1       1.464   8.109  20.718  0.00  0.00    +0.000 A 
ATOM     23  C   UNL     1       0.854   9.350  20.499  0.00  0.00    +0.000 A 
ATOM     24  C   UNL     1       0.937   9.966  19.252  0.00  0.00    +0.000 A 
ATOM     25  C   UNL     1       1.631   9.340  18.219  0.00  0.00    +0.000 A 
ATOM     26  C   UNL     1       2.246   8.109  18.449  0.00  0.00    +0.000 A 
ATOM     27  F   UNL     1       2.911   7.521  17.441  0.00  0.00    +0.000 F 
ENDBRANCH  19  21
ENDBRANCH  16  18
ENDBRANCH  15  16
ENDBRANCH   1  15
TORSDOF 4
ENDMDL
MODEL 3
REMARK VINA RESULT:      -7.6      4.035      6.664
REMARK  Name = 
REMARK  4 active torsions:
REMARK  status: ('A' for Active; 'I' for Inactive)
REMARK    1  A    between atoms: C_2  and  C_3
REMARK    2  A    between atoms: C_3  and  S_4
REMARK    3  A    between atoms: S_4  and  C_5
REMARK    4  A    between atoms: N_18  and  C_19
REMARK                            x       y       z     vdW  Elec       q    Type
REMARK                         _______ _______ _______ _____ _____    ______ ____
ROOT
ATOM      1  C   UNL     1       5.785   5.310  19.103  0.00  0.00    +0.000 C 
ATOM      2  N   UNL     1       4.958   6.277  19.239  0.00  0.00    +0.000 NA
ATOM      3  S   UNL     1       3.377   5.994  19.013  0.00  0.00    +0.000 S 
ATOM      4  O   UNL     1       2.995   6.528  17.720  0.00  0.00    +0.000 OA
ATOM      5  O   UNL     1       2.670   6.391  20.213  0.00  0.00    +0.000 OA
ATOM      6  C   UNL     1       3.140   4.249  18.883  0.00  0.00    +0.000 A 
ATOM      7  C   UNL     1       1.843   3.722  18.863  0.00  0.00    +0.000 A 
ATOM      8  C   UNL     1       1.687   2.347  18.733  0.00  0.00    +0.000 A 
ATOM      9 CL   UNL     1       0.111   1.660  18.693  0.00  0.00    +0.000 Cl
ATOM     10  C   UNL     1       2.803   1.517  18.628  0.00  0.00    +0.000 A 
ATOM     11  C   UNL     1       4.090   2.065  18.657  0.00  0.00    +0.000 A 
ATOM     12  C   UNL     1       4.270   3.446  18.795  0.00  0.00    +0.000 A 
ATOM     13  N   UNL     1       5.545   3.999  18.828  0.00  0.00    +0.000 N 
ATOM     14  H   UNL     1       6.343   3.377  18.809  0.00  0.00    +0.000 HD
ENDROOT
BRANCH   1  15
ATOM     15  S   UNL     1       7.515   5.608  19.299  0.00  0.00    +0.000 S 
BRANCH  15  16
ATOM     16  C   UNL     1       7.836   6.754  17.931  0.00  0.00    +0.000 C 
BRANCH  16  18
ATOM     17  O   UNL     1       6.186   7.133  16.254  0.00  0.00    +0.000 OA
ATOM     18  C   UNL     1       7.089   6.396  16.650  0.00  0.00    +0.000 C 
ATOM     19  N   UNL     1       7.544   5.277  15.976  0.00  0.00    +0.000 N 
ATOM     20  H   UNL     1       8.132   4.633  16.497  0.00  0.00    +0.000 HD
BRANCH  19  21
ATOM     21  C   UNL     1       7.154   4.852  14.685  0.00  0.00    +0.000 A 
ATOM     22  C   UNL     1       7.852   5.183  13.520  0.00  0.00    +0.000 A 
ATOM     23  C   UNL     1       7.441   4.690  12.276  0.00  0.00    +0.000 A 
ATOM     24  C   UNL     1       6.322   3.865  12.180  0.00  0.00    +0.000 A 
ATOM     25  C   UNL     1       5.611   3.532  13.329  0.00  0.00    +0.000 A 
ATOM     26  C   UNL     1       6.034   4.018  14.567  0.00  0.00    +0.000 A 
ATOM     27  F   UNL     1       5.336   3.685  15.665  0.00  0.00    +0.000 F 
ENDBRANCH  19  21
ENDBRANCH  16  18
ENDBRANCH  15  16
ENDBRANCH   1  15
TORSDOF 4
ENDMDL
MODEL 4
REMARK VINA RESULT:      -7.5      6.319      7.519
REMARK  Name = 
REMARK  4 active torsions:
REMARK  status: ('A' for Active; 'I' for Inactive)
REMARK    1  A    between atoms: C_2  and  C_3
REMARK    2  A    between atoms: C_3  and  S_4
REMARK    3  A    between atoms: S_4  and  C_5
REMARK    4  A    between atoms: N_18  and  C_19
REMARK                            x       y       z     vdW  Elec       q    Type
REMARK                         _______ _______ _______ _____ _____    ______ ____
ROOT
ATOM      1  C   UNL     1       6.965   7.401  17.351  0.00  0.00    +0.000 C 
ATOM      2  N   UNL     1       7.744   6.475  16.934  0.00  0.00    +0.000 NA
ATOM      3  S   UNL     1       7.218   4.940  16.954  0.00  0.00    +0.000 S 
ATOM      4  O   UNL     1       7.842   4.256  18.069  0.00  0.00    +0.000 OA
ATOM      5  O   UNL     1       7.322   4.409  15.610  0.00  0.00    +0.000 OA
ATOM      6  C   UNL     1       5.491   4.950  17.323  0.00  0.00    +0.000 A 
ATOM      7  C   UNL     1       4.751   3.767  17.225  0.00  0.00    +0.000 A 
ATOM      8  C   UNL     1       3.399   3.799  17.547  0.00  0.00    +0.000 A 
ATOM      9 CL   UNL     1       2.456   2.365  17.451  0.00  0.00    +0.000 Cl
ATOM     10  C   UNL     1       2.801   4.992  17.956  0.00  0.00    +0.000 A 
ATOM     11  C   UNL     1       3.559   6.164  18.041  0.00  0.00    +0.000 A 
ATOM     12  C   UNL     1       4.919   6.155  17.714  0.00  0.00    +0.000 A 
ATOM     13  N   UNL     1       5.679   7.316  17.791  0.00  0.00    +0.000 N 
ATOM     14  H   UNL     1       5.216   8.183  18.034  0.00  0.00    +0.000 HD
ENDROOT
BRANCH   1  15
ATOM     15  S   UNL     1       7.534   9.072  17.381  0.00  0.00    +0.000 S 
BRANCH  15  16
ATOM     16  C   UNL     1       8.659   9.038  18.802  0.00  0.00    +0.000 C 
BRANCH  16  18
ATOM     17  O   UNL     1       9.640  10.618  20.292  0.00  0.00    +0.000 OA
ATOM     18  C   UNL     1       9.249  10.403  19.145  0.00  0.00    +0.000 C 
ATOM     19  N   UNL     1       9.364  11.294  18.094  0.00  0.00    +0.000 N 
ATOM     20  H   UNL     1       8.816  11.098  17.261  0.00  0.00    +0.000 HD
BRANCH  19  21
ATOM     21  C   UNL     1      10.045  12.533  18.108  0.00  0.00    +0.000 A 
ATOM     22  C   UNL     1       9.395  13.768  18.205  0.00  0.00    +0.000 A 
ATOM     23  C   UNL     1      10.130  14.959  18.261  0.00  0.00    +0.000 A 
ATOM     24  C   UNL     1      11.523  14.931  18.214  0.00  0.00    +0.000 A 
ATOM     25  C   UNL     1      12.184  13.710  18.110  0.00  0.00    +0.000 A 
ATOM     26  C   UNL     1      11.445  12.527  18.066  0.00  0.00    +0.000 A 
ATOM     27  F   UNL     1      12.101  11.359  17.966  0.00  0.00    +0.000 F 
ENDBRANCH  19  21
ENDBRANCH  16  18
ENDBRANCH  15  16
ENDBRANCH   1  15
TORSDOF 4
ENDMDL
MODEL 5
REMARK VINA RESULT:      -7.5      5.232      8.858
REMARK  Name = 
REMARK  4 active torsions:
REMARK  status: ('A' for Active; 'I' for Inactive)
REMARK    1  A    between atoms: C_2  and  C_3
REMARK    2  A    between atoms: C_3  and  S_4
REMARK    3  A    between atoms: S_4  and  C_5
REMARK    4  A    between atoms: N_18  and  C_19
REMARK                            x       y       z     vdW  Elec       q    Type
REMARK                         _______ _______ _______ _____ _____    ______ ____
ROOT
ATOM      1  C   UNL     1       0.961   9.590  19.330  0.00  0.00    +0.000 C 
ATOM      2  N   UNL     1       0.919   8.799  20.335  0.00  0.00    +0.000 NA
ATOM      3  S   UNL     1       0.500   9.393  21.785  0.00  0.00    +0.000 S 
ATOM      4  O   UNL     1       1.698   9.525  22.590  0.00  0.00    +0.000 OA
ATOM      5  O   UNL     1      -0.638   8.639  22.271  0.00  0.00    +0.000 OA
ATOM      6  C   UNL     1      -0.091  11.041  21.558  0.00  0.00    +0.000 A 
ATOM      7  C   UNL     1      -0.686  11.721  22.627  0.00  0.00    +0.000 A 
ATOM      8  C   UNL     1      -1.117  13.028  22.426  0.00  0.00    +0.000 A 
ATOM      9 CL   UNL     1      -1.842  13.902  23.716  0.00  0.00    +0.000 Cl
ATOM     10  C   UNL     1      -0.959  13.639  21.182  0.00  0.00    +0.000 A 
ATOM     11  C   UNL     1      -0.368  12.937  20.125  0.00  0.00    +0.000 A 
ATOM     12  C   UNL     1       0.067  11.620  20.304  0.00  0.00    +0.000 A 
ATOM     13  N   UNL     1       0.652  10.914  19.259  0.00  0.00    +0.000 N 
ATOM     14  H   UNL     1       0.705  11.353  18.348  0.00  0.00    +0.000 HD
ENDROOT
BRANCH   1  15
ATOM     15  S   UNL     1       1.460   8.972  17.752  0.00  0.00    +0.000 S 
BRANCH  15  16
ATOM     16  C   UNL     1       3.091   8.282  18.141  0.00  0.00    +0.000 C 
BRANCH  16  18
ATOM     17  O   UNL     1       3.971   6.081  17.898  0.00  0.00    +0.000 OA
ATOM     18  C   UNL     1       3.073   6.775  18.377  0.00  0.00    +0.000 C 
ATOM     19  N   UNL     1       2.062   6.301  19.191  0.00  0.00    +0.000 N 
ATOM     20  H   UNL     1       1.267   6.915  19.343  0.00  0.00    +0.000 HD
BRANCH  19  21
ATOM     21  C   UNL     1       1.939   4.992  19.713  0.00  0.00    +0.000 A 
ATOM     22  C   UNL     1       2.274   4.652  21.027  0.00  0.00    +0.000 A 
ATOM     23  C   UNL     1       2.086   3.347  21.497  0.00  0.00    +0.000 A 
ATOM     24  C   UNL     1       1.565   2.363  20.657  0.00  0.00    +0.000 A 
ATOM     25  C   UNL     1       1.234   2.684  19.344  0.00  0.00    +0.000 A 
ATOM     26  C   UNL     1       1.415   3.991  18.886  0.00  0.00    +0.000 A 
ATOM     27  F   UNL     1       1.088   4.281  17.616  0.00  0.00    +0.000 F 
ENDBRANCH  19  21
ENDBRANCH  16  18
ENDBRANCH  15  16
ENDBRANCH   1  15
TORSDOF 4
ENDMDL
MODEL 6
REMARK VINA RESULT:      -7.5      6.026      7.190
REMARK  Name = 
REMARK  4 active torsions:
REMARK  status: ('A' for Active; 'I' for Inactive)
REMARK    1  A    between atoms: C_2  and  C_3
REMARK    2  A    between atoms: C_3  and  S_4
REMARK    3  A    between atoms: S_4  and  C_5
REMARK    4  A    between atoms: N_18  and  C_19
REMARK                            x       y       z     vdW  Elec       q    Type
REMARK                         _______ _______ _______ _____ _____    ______ ____
ROOT
ATOM      1  C   UNL     1       7.457   6.677  17.963  0.00  0.00    +0.000 C 
ATOM      2  N   UNL     1       7.387   6.668  16.685  0.00  0.00    +0.000 NA
ATOM      3  S   UNL     1       6.457   5.555  15.959  0.00  0.00    +0.000 S 
ATOM      4  O   UNL     1       7.317   4.528  15.406  0.00  0.00    +0.000 OA
ATOM      5  O   UNL     1       5.497   6.245  15.120  0.00  0.00    +0.000 OA
ATOM      6  C   UNL     1       5.498   4.741  17.197  0.00  0.00    +0.000 A 
ATOM      7  C   UNL     1       4.479   3.857  16.821  0.00  0.00    +0.000 A 
ATOM      8  C   UNL     1       3.759   3.210  17.818  0.00  0.00    +0.000 A 
ATOM      9 CL   UNL     1       2.507   2.108  17.398  0.00  0.00    +0.000 Cl
ATOM     10  C   UNL     1       4.049   3.444  19.162  0.00  0.00    +0.000 A 
ATOM     11  C   UNL     1       5.067   4.336  19.515  0.00  0.00    +0.000 A 
ATOM     12  C   UNL     1       5.800   5.004  18.528  0.00  0.00    +0.000 A 
ATOM     13  N   UNL     1       6.810   5.894  18.870  0.00  0.00    +0.000 N 
ATOM     14  H   UNL     1       6.968   6.095  19.849  0.00  0.00    +0.000 HD
ENDROOT
BRANCH   1  15
ATOM     15  S   UNL     1       8.500   7.851  18.771  0.00  0.00    +0.000 S 
BRANCH  15  16
ATOM     16  C   UNL     1       8.079   9.373  17.879  0.00  0.00    +0.000 C 
BRANCH  16  18
ATOM     17  O   UNL     1       9.808  10.427  19.135  0.00  0.00    +0.000 OA
ATOM     18  C   UNL     1       8.913  10.578  18.304  0.00  0.00    +0.000 C 
ATOM     19  N   UNL     1       8.636  11.766  17.653  0.00  0.00    +0.000 N 
ATOM     20  H   UNL     1       7.749  11.825  17.161  0.00  0.00    +0.000 HD
BRANCH  19  21
ATOM     21  C   UNL     1       9.385  12.963  17.724  0.00  0.00    +0.000 A 
ATOM     22  C   UNL     1      10.686  13.090  17.229  0.00  0.00    +0.000 A 
ATOM     23  C   UNL     1      11.357  14.318  17.288  0.00  0.00    +0.000 A 
ATOM     24  C   UNL     1      10.737  15.433  17.849  0.00  0.00    +0.000 A 
ATOM     25  C   UNL     1       9.444  15.321  18.355  0.00  0.00    +0.000 A 
ATOM     26  C   UNL     1       8.779  14.097  18.281  0.00  0.00    +0.000 A 
ATOM     27  F   UNL     1       7.531  14.009  18.773  0.00  0.00    +0.000 F 
ENDBRANCH  19  21
ENDBRANCH  16  18
ENDBRANCH  15  16
ENDBRANCH   1  15
TORSDOF 4
ENDMDL
MODEL 7
REMARK VINA RESULT:      -7.4      6.185      7.293
REMARK  Name = 
REMARK  4 active torsions:
REMARK  status: ('A' for Active; 'I' for Inactive)
REMARK    1  A    between atoms: C_2  and  C_3
REMARK    2  A    between atoms: C_3  and  S_4
REMARK    3  A    between atoms: S_4  and  C_5
REMARK    4  A    between atoms: N_18  and  C_19
REMARK                            x       y       z     vdW  Elec       q    Type
REMARK                         _______ _______ _______ _____ _____    ______ ____
ROOT
ATOM      1  C   UNL     1       7.452   6.677  17.986  0.00  0.00    +0.000 C 
ATOM      2  N   UNL     1       7.396   6.666  16.708  0.00  0.00    +0.000 NA
ATOM      3  S   UNL     1       6.463   5.561  15.973  0.00  0.00    +0.000 S 
ATOM      4  O   UNL     1       7.319   4.524  15.432  0.00  0.00    +0.000 OA
ATOM      5  O   UNL     1       5.520   6.258  15.122  0.00  0.00    +0.000 OA
ATOM      6  C   UNL     1       5.482   4.758  17.203  0.00  0.00    +0.000 A 
ATOM      7  C   UNL     1       4.459   3.885  16.817  0.00  0.00    +0.000 A 
ATOM      8  C   UNL     1       3.721   3.247  17.807  0.00  0.00    +0.000 A 
ATOM      9 CL   UNL     1       2.463   2.157  17.376  0.00  0.00    +0.000 Cl
ATOM     10  C   UNL     1       3.999   3.480  19.154  0.00  0.00    +0.000 A 
ATOM     11  C   UNL     1       5.022   4.363  19.517  0.00  0.00    +0.000 A 
ATOM     12  C   UNL     1       5.772   5.021  18.536  0.00  0.00    +0.000 A 
ATOM     13  N   UNL     1       6.788   5.902  18.888  0.00  0.00    +0.000 N 
ATOM     14  H   UNL     1       6.937   6.103  19.868  0.00  0.00    +0.000 HD
ENDROOT
BRANCH   1  15
ATOM     15  S   UNL     1       8.498   7.842  18.803  0.00  0.00    +0.000 S 
BRANCH  15  16
ATOM     16  C   UNL     1       8.213   9.332  17.811  0.00  0.00    +0.000 C 
BRANCH  16  18
ATOM     17  O   UNL     1       9.404  10.521  19.499  0.00  0.00    +0.000 OA
ATOM     18  C   UNL     1       8.767  10.603  18.448  0.00  0.00    +0.000 C 
ATOM     19  N   UNL     1       8.564  11.773  17.740  0.00  0.00    +0.000 N 
ATOM     20  H   UNL     1       7.849  11.757  17.019  0.00  0.00    +0.000 HD
BRANCH  19  21
ATOM     21  C   UNL     1       9.137  13.037  18.014  0.00  0.00    +0.000 A 
ATOM     22  C   UNL     1       8.487  14.035  18.746  0.00  0.00    +0.000 A 
ATOM     23  C   UNL     1       9.128  15.249  19.023  0.00  0.00    +0.000 A 
ATOM     24  C   UNL     1      10.424  15.482  18.568  0.00  0.00    +0.000 A 
ATOM     25  C   UNL     1      11.082  14.501  17.830  0.00  0.00    +0.000 A 
ATOM     26  C   UNL     1      10.440  13.289  17.568  0.00  0.00    +0.000 A 
ATOM     27  F   UNL     1      11.092  12.354  16.857  0.00  0.00    +0.000 F 
ENDBRANCH  19  21
ENDBRANCH  16  18
ENDBRANCH  15  16
ENDBRANCH   1  15
TORSDOF 4
ENDMDL
MODEL 8
REMARK VINA RESULT:      -7.4      3.253      4.744
REMARK  Name = 
REMARK  4 active torsions:
REMARK  status: ('A' for Active; 'I' for Inactive)
REMARK    1  A    between atoms: C_2  and  C_3
REMARK    2  A    between atoms: C_3  and  S_4
REMARK    3  A    between atoms: S_4  and  C_5
REMARK    4  A    between atoms: N_18  and  C_19
REMARK                            x       y       z     vdW  Elec       q    Type
REMARK                         _______ _______ _______ _____ _____    ______ ____
ROOT
ATOM      1  C   UNL     1       2.222   6.396  19.429  0.00  0.00    +0.000 C 
ATOM      2  N   UNL     1       1.884   5.174  19.602  0.00  0.00    +0.000 NA
ATOM      3  S   UNL     1       2.412   4.057  18.551  0.00  0.00    +0.000 S 
ATOM      4  O   UNL     1       1.316   3.699  17.673  0.00  0.00    +0.000 OA
ATOM      5  O   UNL     1       3.126   3.038  19.293  0.00  0.00    +0.000 OA
ATOM      6  C   UNL     1       3.619   4.809  17.504  0.00  0.00    +0.000 A 
ATOM      7  C   UNL     1       4.365   4.019  16.622  0.00  0.00    +0.000 A 
ATOM      8  C   UNL     1       5.289   4.642  15.791  0.00  0.00    +0.000 A 
ATOM      9 CL   UNL     1       6.218   3.709  14.685  0.00  0.00    +0.000 Cl
ATOM     10  C   UNL     1       5.464   6.025  15.843  0.00  0.00    +0.000 A 
ATOM     11  C   UNL     1       4.712   6.794  16.737  0.00  0.00    +0.000 A 
ATOM     12  C   UNL     1       3.782   6.187  17.588  0.00  0.00    +0.000 A 
ATOM     13  N   UNL     1       3.033   6.943  18.481  0.00  0.00    +0.000 N 
ATOM     14  H   UNL     1       3.215   7.936  18.546  0.00  0.00    +0.000 HD
ENDROOT
BRANCH   1  15
ATOM     15  S   UNL     1       1.620   7.633  20.536  0.00  0.00    +0.000 S 
BRANCH  15  16
ATOM     16  C   UNL     1       1.450   9.054  19.422  0.00  0.00    +0.000 C 
BRANCH  16  18
ATOM     17  O   UNL     1      -0.665  10.132  19.218  0.00  0.00    +0.000 OA
ATOM     18  C   UNL     1       0.380  10.048  19.863  0.00  0.00    +0.000 C 
ATOM     19  N   UNL     1       0.646  10.749  21.024  0.00  0.00    +0.000 N 
ATOM     20  H   UNL     1       1.611  10.765  21.342  0.00  0.00    +0.000 HD
BRANCH  19  21
ATOM     21  C   UNL     1      -0.253  11.575  21.738  0.00  0.00    +0.000 A 
ATOM     22  C   UNL     1      -0.384  12.948  21.510  0.00  0.00    +0.000 A 
ATOM     23  C   UNL     1      -1.327  13.703  22.218  0.00  0.00    +0.000 A 
ATOM     24  C   UNL     1      -2.146  13.095  23.168  0.00  0.00    +0.000 A 
ATOM     25  C   UNL     1      -2.023  11.730  23.412  0.00  0.00    +0.000 A 
ATOM     26  C   UNL     1      -1.088  10.983  22.694  0.00  0.00    +0.000 A 
ATOM     27  F   UNL     1      -0.985   9.667  22.942  0.00  0.00    +0.000 F 
ENDBRANCH  19  21
ENDBRANCH  16  18
ENDBRANCH  15  16
ENDBRANCH   1  15
TORSDOF 4
ENDMDL
MODEL 9
REMARK VINA RESULT:      -7.4      6.128      7.393
REMARK  Name = 
REMARK  4 active torsions:
REMARK  status: ('A' for Active; 'I' for Inactive)
REMARK    1  A    between atoms: C_2  and  C_3
REMARK    2  A    between atoms: C_3  and  S_4
REMARK    3  A    between atoms: S_4  and  C_5
REMARK    4  A    between atoms: N_18  and  C_19
REMARK                            x       y       z     vdW  Elec       q    Type
REMARK                         _______ _______ _______ _____ _____    ______ ____
ROOT
ATOM      1  C   UNL     1       6.963   7.412  17.437  0.00  0.00    +0.000 C 
ATOM      2  N   UNL     1       7.761   6.454  17.149  0.00  0.00    +0.000 NA
ATOM      3  S   UNL     1       7.215   4.929  17.226  0.00  0.00    +0.000 S 
ATOM      4  O   UNL     1       7.735   4.315  18.431  0.00  0.00    +0.000 OA
ATOM      5  O   UNL     1       7.422   4.308  15.933  0.00  0.00    +0.000 OA
ATOM      6  C   UNL     1       5.464   4.977  17.448  0.00  0.00    +0.000 A 
ATOM      7  C   UNL     1       4.718   3.796  17.366  0.00  0.00    +0.000 A 
ATOM      8  C   UNL     1       3.345   3.861  17.573  0.00  0.00    +0.000 A 
ATOM      9 CL   UNL     1       2.394   2.432  17.493  0.00  0.00    +0.000 Cl
ATOM     10  C   UNL     1       2.731   5.083  17.851  0.00  0.00    +0.000 A 
ATOM     11  C   UNL     1       3.496   6.252  17.921  0.00  0.00    +0.000 A 
ATOM     12  C   UNL     1       4.878   6.210  17.710  0.00  0.00    +0.000 A 
ATOM     13  N   UNL     1       5.645   7.368  17.774  0.00  0.00    +0.000 N 
ATOM     14  H   UNL     1       5.175   8.252  17.919  0.00  0.00    +0.000 HD
ENDROOT
BRANCH   1  15
ATOM     15  S   UNL     1       7.552   9.077  17.404  0.00  0.00    +0.000 S 
BRANCH  15  16
ATOM     16  C   UNL     1       8.665   9.088  18.835  0.00  0.00    +0.000 C 
BRANCH  16  18
ATOM     17  O   UNL     1       9.822  10.685  20.173  0.00  0.00    +0.000 OA
ATOM     18  C   UNL     1       9.347  10.433  19.065  0.00  0.00    +0.000 C 
ATOM     19  N   UNL     1       9.442  11.261  17.962  0.00  0.00    +0.000 N 
ATOM     20  H   UNL     1       8.831  11.054  17.177  0.00  0.00    +0.000 HD
BRANCH  19  21
ATOM     21  C   UNL     1      10.186  12.460  17.866  0.00  0.00    +0.000 A 
ATOM     22  C   UNL     1      11.548  12.499  17.551  0.00  0.00    +0.000 A 
ATOM     23  C   UNL     1      12.217  13.722  17.425  0.00  0.00    +0.000 A 
ATOM     24  C   UNL     1      11.535  14.922  17.618  0.00  0.00    +0.000 A 
ATOM     25  C   UNL     1      10.180  14.900  17.940  0.00  0.00    +0.000 A 
ATOM     26  C   UNL     1       9.518  13.677  18.053  0.00  0.00    +0.000 A 
ATOM     27  F   UNL     1       8.211  13.676  18.363  0.00  0.00    +0.000 F 
ENDBRANCH  19  21
ENDBRANCH  16  18
ENDBRANCH  15  16
ENDBRANCH   1  15
TORSDOF 4
ENDMDL
