MODEL 1
REMARK VINA RESULT:      -8.3      0.000      0.000
REMARK  Name = 
REMARK  3 active torsions:
REMARK  status: ('A' for Active; 'I' for Inactive)
REMARK    1  A    between atoms: S_2  and  C_3
REMARK    2  A    between atoms: S_2  and  C_17
REMARK    3  A    between atoms: C_3  and  C_4
REMARK                            x       y       z     vdW  Elec       q    Type
REMARK                         _______ _______ _______ _____ _____    ______ ____
ROOT
ATOM      1  C   UNL     1       4.480   6.934  17.156  0.00  0.00    +0.000 C 
ENDROOT
BRANCH   1   2
ATOM      2  C   UNL     1       3.609   6.096  18.060  0.00  0.00    +0.000 A 
ATOM      3  N   UNL     1       3.671   4.796  18.004  0.00  0.00    +0.000 NA
ATOM      4  C   UNL     1       2.810   4.027  18.810  0.00  0.00    +0.000 A 
ATOM      5  C   UNL     1       2.825   2.642  18.650  0.00  0.00    +0.000 A 
ATOM      6  C   UNL     1       1.977   1.831  19.407  0.00  0.00    +0.000 A 
ATOM      7  C   UNL     1       1.106   2.402  20.337  0.00  0.00    +0.000 A 
ATOM      8  C   UNL     1       1.076   3.787  20.513  0.00  0.00    +0.000 A 
ATOM      9  C   UNL     1       1.923   4.587  19.744  0.00  0.00    +0.000 A 
ATOM     10  N   UNL     1       1.941   5.991  19.841  0.00  0.00    +0.000 N 
ATOM     11  C   UNL     1       1.227   6.824  20.669  0.00  0.00    +0.000 A 
ATOM     12  C   UNL     1       1.614   8.122  20.409  0.00  0.00    +0.000 A 
ATOM     13  C   UNL     1       2.584   8.077  19.380  0.00  0.00    +0.000 A 
ATOM     14  C   UNL     1       2.761   6.750  19.035  0.00  0.00    +0.000 A 
ENDBRANCH   1   2
BRANCH   1  16
ATOM     15  O   UNL     1       7.148   7.717  17.085  0.00  0.00    +0.000 OA
ATOM     16  S   UNL     1       6.218   6.461  17.258  0.00  0.00    +0.000 S 
BRANCH  16  17
ATOM     17  C   UNL     1       6.371   5.559  15.784  0.00  0.00    +0.000 A 
ATOM     18  N   UNL     1       7.375   5.602  14.933  0.00  0.00    +0.000 NA
ATOM     19  C   UNL     1       6.982   4.815  13.873  0.00  0.00    +0.000 A 
ATOM     20  C   UNL     1       7.633   4.537  12.662  0.00  0.00    +0.000 A 
ATOM     21  C   UNL     1       6.994   3.710  11.728  0.00  0.00    +0.000 A 
ATOM     22  C   UNL     1       5.734   3.165  11.995  0.00  0.00    +0.000 A 
ATOM     23  C   UNL     1       5.072   3.424  13.199  0.00  0.00    +0.000 A 
ATOM     24  C   UNL     1       5.730   4.255  14.109  0.00  0.00    +0.000 A 
ATOM     25  N   UNL     1       5.382   4.720  15.348  0.00  0.00    +0.000 N 
ATOM     26  H   UNL     1       4.534   4.523  15.859  0.00  0.00    +0.000 HD
ENDBRANCH  16  17
ENDBRANCH   1  16
TORSDOF 3
ENDMDL
MODEL 2
REMARK VINA RESULT:      -8.0      3.431      8.397
REMARK  Name = 
REMARK  3 active torsions:
REMARK  status: ('A' for Active; 'I' for Inactive)
REMARK    1  A    between atoms: S_2  and  C_3
REMARK    2  A    between atoms: S_2  and  C_17
REMARK    3  A    between atoms: C_3  and  C_4
REMARK                            x       y       z     vdW  Elec       q    Type
REMARK                         _______ _______ _______ _____ _____    ______ ____
ROOT
ATOM      1  C   UNL     1       2.114   8.024  19.408  0.00  0.00    +0.000 C 
ENDROOT
BRANCH   1   2
ATOM      2  C   UNL     1       2.818   6.893  18.696  0.00  0.00    +0.000 A 
ATOM      3  N   UNL     1       3.693   7.152  17.766  0.00  0.00    +0.000 NA
ATOM      4  C   UNL     1       4.297   6.088  17.069  0.00  0.00    +0.000 A 
ATOM      5  C   UNL     1       5.147   6.398  16.008  0.00  0.00    +0.000 A 
ATOM      6  C   UNL     1       5.756   5.383  15.267  0.00  0.00    +0.000 A 
ATOM      7  C   UNL     1       5.521   4.044  15.586  0.00  0.00    +0.000 A 
ATOM      8  C   UNL     1       4.673   3.712  16.644  0.00  0.00    +0.000 A 
ATOM      9  C   UNL     1       4.063   4.737  17.372  0.00  0.00    +0.000 A 
ATOM     10  N   UNL     1       3.178   4.492  18.438  0.00  0.00    +0.000 N 
ATOM     11  C   UNL     1       2.777   3.299  18.991  0.00  0.00    +0.000 A 
ATOM     12  C   UNL     1       1.921   3.576  20.036  0.00  0.00    +0.000 A 
ATOM     13  C   UNL     1       1.786   4.983  20.112  0.00  0.00    +0.000 A 
ATOM     14  C   UNL     1       2.563   5.528  19.106  0.00  0.00    +0.000 A 
ENDBRANCH   1   2
BRANCH   1  16
ATOM     15  O   UNL     1       2.274  10.202  17.685  0.00  0.00    +0.000 OA
ATOM     16  S   UNL     1       1.274   9.132  18.258  0.00  0.00    +0.000 S 
BRANCH  16  17
ATOM     17  C   UNL     1       0.250   9.991  19.362  0.00  0.00    +0.000 A 
ATOM     18  N   UNL     1      -0.576  10.974  19.070  0.00  0.00    +0.000 NA
ATOM     19  C   UNL     1      -1.065  11.407  20.284  0.00  0.00    +0.000 A 
ATOM     20  C   UNL     1      -1.944  12.458  20.583  0.00  0.00    +0.000 A 
ATOM     21  C   UNL     1      -2.266  12.706  21.925  0.00  0.00    +0.000 A 
ATOM     22  C   UNL     1      -1.729  11.920  22.949  0.00  0.00    +0.000 A 
ATOM     23  C   UNL     1      -0.857  10.862  22.670  0.00  0.00    +0.000 A 
ATOM     24  C   UNL     1      -0.549  10.641  21.326  0.00  0.00    +0.000 A 
ATOM     25  N   UNL     1       0.257   9.727  20.705  0.00  0.00    +0.000 N 
ATOM     26  H   UNL     1       0.802   8.998  21.140  0.00  0.00    +0.000 HD
ENDBRANCH  16  17
ENDBRANCH   1  16
TORSDOF 3
ENDMDL
MODEL 3
REMARK VINA RESULT:      -8.0      1.339      3.121
REMARK  Name = 
REMARK  3 active torsions:
REMARK  status: ('A' for Active; 'I' for Inactive)
REMARK    1  A    between atoms: S_2  and  C_3
REMARK    2  A    between atoms: S_2  and  C_17
REMARK    3  A    between atoms: C_3  and  C_4
REMARK                            x       y       z     vdW  Elec       q    Type
REMARK                         _______ _______ _______ _____ _____    ______ ____
ROOT
ATOM      1  C   UNL     1       4.672   3.843  17.609  0.00  0.00    +0.000 C 
ENDROOT
BRANCH   1   2
ATOM      2  C   UNL     1       3.759   4.683  18.470  0.00  0.00    +0.000 A 
ATOM      3  N   UNL     1       3.423   5.882  18.088  0.00  0.00    +0.000 NA
ATOM      4  C   UNL     1       2.620   6.676  18.929  0.00  0.00    +0.000 A 
ATOM      5  C   UNL     1       2.367   7.992  18.543  0.00  0.00    +0.000 A 
ATOM      6  C   UNL     1       1.595   8.832  19.349  0.00  0.00    +0.000 A 
ATOM      7  C   UNL     1       1.066   8.358  20.551  0.00  0.00    +0.000 A 
ATOM      8  C   UNL     1       1.308   7.044  20.956  0.00  0.00    +0.000 A 
ATOM      9  C   UNL     1       2.088   6.217  20.145  0.00  0.00    +0.000 A 
ATOM     10  N   UNL     1       2.399   4.888  20.488  0.00  0.00    +0.000 N 
ATOM     11  C   UNL     1       2.009   4.147  21.577  0.00  0.00    +0.000 A 
ATOM     12  C   UNL     1       2.549   2.884  21.454  0.00  0.00    +0.000 A 
ATOM     13  C   UNL     1       3.303   2.861  20.257  0.00  0.00    +0.000 A 
ATOM     14  C   UNL     1       3.206   4.116  19.682  0.00  0.00    +0.000 A 
ENDBRANCH   1   2
BRANCH   1  16
ATOM     15  O   UNL     1       6.423   5.954  18.071  0.00  0.00    +0.000 OA
ATOM     16  S   UNL     1       6.373   4.444  17.636  0.00  0.00    +0.000 S 
BRANCH  16  17
ATOM     17  C   UNL     1       6.723   4.434  15.937  0.00  0.00    +0.000 A 
ATOM     18  N   UNL     1       7.531   5.250  15.293  0.00  0.00    +0.000 NA
ATOM     19  C   UNL     1       7.381   4.929  13.962  0.00  0.00    +0.000 A 
ATOM     20  C   UNL     1       7.960   5.503  12.821  0.00  0.00    +0.000 A 
ATOM     21  C   UNL     1       7.614   4.996  11.561  0.00  0.00    +0.000 A 
ATOM     22  C   UNL     1       6.713   3.934  11.437  0.00  0.00    +0.000 A 
ATOM     23  C   UNL     1       6.131   3.342  12.563  0.00  0.00    +0.000 A 
ATOM     24  C   UNL     1       6.489   3.871  13.805  0.00  0.00    +0.000 A 
ATOM     25  N   UNL     1       6.114   3.556  15.082  0.00  0.00    +0.000 N 
ATOM     26  H   UNL     1       5.474   2.831  15.369  0.00  0.00    +0.000 HD
ENDBRANCH  16  17
ENDBRANCH   1  16
TORSDOF 3
ENDMDL
MODEL 4
REMARK VINA RESULT:      -7.9      3.636      8.581
REMARK  Name = 
REMARK  3 active torsions:
REMARK  status: ('A' for Active; 'I' for Inactive)
REMARK    1  A    between atoms: S_2  and  C_3
REMARK    2  A    between atoms: S_2  and  C_17
REMARK    3  A    between atoms: C_3  and  C_4
REMARK                            x       y       z     vdW  Elec       q    Type
REMARK                         _______ _______ _______ _____ _____    ______ ____
ROOT
ATOM      1  C   UNL     1       1.945   8.122  19.758  0.00  0.00    +0.000 C 
ENDROOT
BRANCH   1   2
ATOM      2  C   UNL     1       2.621   6.999  19.010  0.00  0.00    +0.000 A 
ATOM      3  N   UNL     1       3.488   7.267  18.076  0.00  0.00    +0.000 NA
ATOM      4  C   UNL     1       4.066   6.211  17.345  0.00  0.00    +0.000 A 
ATOM      5  C   UNL     1       4.908   6.533  16.281  0.00  0.00    +0.000 A 
ATOM      6  C   UNL     1       5.491   5.527  15.508  0.00  0.00    +0.000 A 
ATOM      7  C   UNL     1       5.240   4.184  15.799  0.00  0.00    +0.000 A 
ATOM      8  C   UNL     1       4.401   3.840  16.860  0.00  0.00    +0.000 A 
ATOM      9  C   UNL     1       3.816   4.856  17.619  0.00  0.00    +0.000 A 
ATOM     10  N   UNL     1       2.942   4.599  18.691  0.00  0.00    +0.000 N 
ATOM     11  C   UNL     1       2.529   3.400  19.222  0.00  0.00    +0.000 A 
ATOM     12  C   UNL     1       1.691   3.665  20.284  0.00  0.00    +0.000 A 
ATOM     13  C   UNL     1       1.580   5.071  20.395  0.00  0.00    +0.000 A 
ATOM     14  C   UNL     1       2.352   5.628  19.391  0.00  0.00    +0.000 A 
ENDBRANCH   1   2
BRANCH   1  16
ATOM     15  O   UNL     1       2.197  10.287  18.030  0.00  0.00    +0.000 OA
ATOM     16  S   UNL     1       1.144   9.294  18.644  0.00  0.00    +0.000 S 
BRANCH  16  17
ATOM     17  C   UNL     1       0.234  10.225  19.790  0.00  0.00    +0.000 A 
ATOM     18  N   UNL     1       0.279  10.124  21.102  0.00  0.00    +0.000 NA
ATOM     19  C   UNL     1      -0.703  10.974  21.562  0.00  0.00    +0.000 A 
ATOM     20  C   UNL     1      -1.135  11.234  22.871  0.00  0.00    +0.000 A 
ATOM     21  C   UNL     1      -2.186  12.140  23.066  0.00  0.00    +0.000 A 
ATOM     22  C   UNL     1      -2.793  12.780  21.981  0.00  0.00    +0.000 A 
ATOM     23  C   UNL     1      -2.372  12.540  20.670  0.00  0.00    +0.000 A 
ATOM     24  C   UNL     1      -1.327  11.630  20.504  0.00  0.00    +0.000 A 
ATOM     25  N   UNL     1      -0.685  11.157  19.392  0.00  0.00    +0.000 N 
ATOM     26  H   UNL     1      -0.864  11.409  18.431  0.00  0.00    +0.000 HD
ENDBRANCH  16  17
ENDBRANCH   1  16
TORSDOF 3
ENDMDL
MODEL 5
REMARK VINA RESULT:      -7.9      3.069      8.268
REMARK  Name = 
REMARK  3 active torsions:
REMARK  status: ('A' for Active; 'I' for Inactive)
REMARK    1  A    between atoms: S_2  and  C_3
REMARK    2  A    between atoms: S_2  and  C_17
REMARK    3  A    between atoms: C_3  and  C_4
REMARK                            x       y       z     vdW  Elec       q    Type
REMARK                         _______ _______ _______ _____ _____    ______ ____
ROOT
ATOM      1  C   UNL     1       2.478   7.380  19.254  0.00  0.00    +0.000 C 
ENDROOT
BRANCH   1   2
ATOM      2  C   UNL     1       3.203   6.373  18.394  0.00  0.00    +0.000 A 
ATOM      3  N   UNL     1       4.342   6.684  17.844  0.00  0.00    +0.000 NA
ATOM      4  C   UNL     1       4.977   5.757  16.995  0.00  0.00    +0.000 A 
ATOM      5  C   UNL     1       6.139   6.158  16.337  0.00  0.00    +0.000 A 
ATOM      6  C   UNL     1       6.799   5.288  15.467  0.00  0.00    +0.000 A 
ATOM      7  C   UNL     1       6.301   4.002  15.251  0.00  0.00    +0.000 A 
ATOM      8  C   UNL     1       5.139   3.580  15.900  0.00  0.00    +0.000 A 
ATOM      9  C   UNL     1       4.484   4.463  16.761  0.00  0.00    +0.000 A 
ATOM     10  N   UNL     1       3.297   4.127  17.437  0.00  0.00    +0.000 N 
ATOM     11  C   UNL     1       2.591   2.947  17.444  0.00  0.00    +0.000 A 
ATOM     12  C   UNL     1       1.508   3.098  18.284  0.00  0.00    +0.000 A 
ATOM     13  C   UNL     1       1.549   4.418  18.794  0.00  0.00    +0.000 A 
ATOM     14  C   UNL     1       2.656   5.040  18.247  0.00  0.00    +0.000 A 
ENDBRANCH   1   2
BRANCH   1  16
ATOM     15  O   UNL     1       2.512   9.584  17.557  0.00  0.00    +0.000 OA
ATOM     16  S   UNL     1       1.545   8.568  18.268  0.00  0.00    +0.000 S 
BRANCH  16  17
ATOM     17  C   UNL     1       0.770   9.466  19.533  0.00  0.00    +0.000 A 
ATOM     18  N   UNL     1       0.768   9.178  20.818  0.00  0.00    +0.000 NA
ATOM     19  C   UNL     1      -0.076  10.103  21.393  0.00  0.00    +0.000 A 
ATOM     20  C   UNL     1      -0.489  10.246  22.725  0.00  0.00    +0.000 A 
ATOM     21  C   UNL     1      -1.387  11.273  23.046  0.00  0.00    +0.000 A 
ATOM     22  C   UNL     1      -1.860  12.146  22.061  0.00  0.00    +0.000 A 
ATOM     23  C   UNL     1      -1.454  12.026  20.729  0.00  0.00    +0.000 A 
ATOM     24  C   UNL     1      -0.563  10.990  20.437  0.00  0.00    +0.000 A 
ATOM     25  N   UNL     1       0.020  10.579  19.269  0.00  0.00    +0.000 N 
ATOM     26  H   UNL     1      -0.095  10.987  18.353  0.00  0.00    +0.000 HD
ENDBRANCH  16  17
ENDBRANCH   1  16
TORSDOF 3
ENDMDL
MODEL 6
REMARK VINA RESULT:      -7.9      3.983      8.080
REMARK  Name = 
REMARK  3 active torsions:
REMARK  status: ('A' for Active; 'I' for Inactive)
REMARK    1  A    between atoms: S_2  and  C_3
REMARK    2  A    between atoms: S_2  and  C_17
REMARK    3  A    between atoms: C_3  and  C_4
REMARK                            x       y       z     vdW  Elec       q    Type
REMARK                         _______ _______ _______ _____ _____    ______ ____
ROOT
ATOM      1  C   UNL     1       1.728   8.485  19.169  0.00  0.00    +0.000 C 
ENDROOT
BRANCH   1   2
ATOM      2  C   UNL     1       2.579   7.320  18.724  0.00  0.00    +0.000 A 
ATOM      3  N   UNL     1       3.415   7.464  17.736  0.00  0.00    +0.000 NA
ATOM      4  C   UNL     1       4.158   6.353  17.292  0.00  0.00    +0.000 A 
ATOM      5  C   UNL     1       4.964   6.511  16.164  0.00  0.00    +0.000 A 
ATOM      6  C   UNL     1       5.706   5.438  15.667  0.00  0.00    +0.000 A 
ATOM      7  C   UNL     1       5.650   4.194  16.299  0.00  0.00    +0.000 A 
ATOM      8  C   UNL     1       4.850   4.015  17.428  0.00  0.00    +0.000 A 
ATOM      9  C   UNL     1       4.106   5.093  17.911  0.00  0.00    +0.000 A 
ATOM     10  N   UNL     1       3.258   4.994  19.029  0.00  0.00    +0.000 N 
ATOM     11  C   UNL     1       3.018   3.925  19.859  0.00  0.00    +0.000 A 
ATOM     12  C   UNL     1       2.128   4.328  20.833  0.00  0.00    +0.000 A 
ATOM     13  C   UNL     1       1.807   5.683  20.579  0.00  0.00    +0.000 A 
ATOM     14  C   UNL     1       2.508   6.070  19.451  0.00  0.00    +0.000 A 
ENDBRANCH   1   2
BRANCH   1  16
ATOM     15  O   UNL     1       2.385  10.989  18.151  0.00  0.00    +0.000 OA
ATOM     16  S   UNL     1       1.517   9.710  17.862  0.00  0.00    +0.000 S 
BRANCH  16  17
ATOM     17  C   UNL     1      -0.126  10.184  18.155  0.00  0.00    +0.000 A 
ATOM     18  N   UNL     1      -1.193   9.780  17.498  0.00  0.00    +0.000 NA
ATOM     19  C   UNL     1      -2.234  10.521  18.011  0.00  0.00    +0.000 A 
ATOM     20  C   UNL     1      -3.591  10.545  17.655  0.00  0.00    +0.000 A 
ATOM     21  C   UNL     1      -4.450  11.423  18.329  0.00  0.00    +0.000 A 
ATOM     22  C   UNL     1      -3.970  12.259  19.343  0.00  0.00    +0.000 A 
ATOM     23  C   UNL     1      -2.623  12.245  19.718  0.00  0.00    +0.000 A 
ATOM     24  C   UNL     1      -1.790  11.364  19.026  0.00  0.00    +0.000 A 
ATOM     25  N   UNL     1      -0.450  11.101  19.117  0.00  0.00    +0.000 N 
ATOM     26  H   UNL     1       0.214  11.523  19.750  0.00  0.00    +0.000 HD
ENDBRANCH  16  17
ENDBRANCH   1  16
TORSDOF 3
ENDMDL
MODEL 7
REMARK VINA RESULT:      -7.8      0.901      1.469
REMARK  Name = 
REMARK  3 active torsions:
REMARK  status: ('A' for Active; 'I' for Inactive)
REMARK    1  A    between atoms: S_2  and  C_3
REMARK    2  A    between atoms: S_2  and  C_17
REMARK    3  A    between atoms: C_3  and  C_4
REMARK                            x       y       z     vdW  Elec       q    Type
REMARK                         _______ _______ _______ _____ _____    ______ ____
ROOT
ATOM      1  C   UNL     1       4.992   6.798  17.207  0.00  0.00    +0.000 C 
ENDROOT
BRANCH   1   2
ATOM      2  C   UNL     1       4.211   6.093  18.290  0.00  0.00    +0.000 A 
ATOM      3  N   UNL     1       4.551   4.892  18.662  0.00  0.00    +0.000 NA
ATOM      4  C   UNL     1       3.777   4.223  19.630  0.00  0.00    +0.000 A 
ATOM      5  C   UNL     1       4.102   2.900  19.930  0.00  0.00    +0.000 A 
ATOM      6  C   UNL     1       3.356   2.180  20.865  0.00  0.00    +0.000 A 
ATOM      7  C   UNL     1       2.276   2.783  21.513  0.00  0.00    +0.000 A 
ATOM      8  C   UNL     1       1.933   4.105  21.227  0.00  0.00    +0.000 A 
ATOM      9  C   UNL     1       2.683   4.811  20.284  0.00  0.00    +0.000 A 
ATOM     10  N   UNL     1       2.393   6.140  19.920  0.00  0.00    +0.000 N 
ATOM     11  C   UNL     1       1.423   6.990  20.395  0.00  0.00    +0.000 A 
ATOM     12  C   UNL     1       1.558   8.200  19.747  0.00  0.00    +0.000 A 
ATOM     13  C   UNL     1       2.636   8.077  18.839  0.00  0.00    +0.000 A 
ATOM     14  C   UNL     1       3.130   6.790  18.955  0.00  0.00    +0.000 A 
ENDBRANCH   1   2
BRANCH   1  16
ATOM     15  O   UNL     1       7.704   7.207  16.744  0.00  0.00    +0.000 OA
ATOM     16  S   UNL     1       6.631   6.081  16.977  0.00  0.00    +0.000 S 
BRANCH  16  17
ATOM     17  C   UNL     1       6.412   5.318  15.435  0.00  0.00    +0.000 A 
ATOM     18  N   UNL     1       5.369   4.616  15.043  0.00  0.00    +0.000 NA
ATOM     19  C   UNL     1       5.713   4.118  13.805  0.00  0.00    +0.000 A 
ATOM     20  C   UNL     1       5.007   3.268  12.943  0.00  0.00    +0.000 A 
ATOM     21  C   UNL     1       5.604   2.888  11.733  0.00  0.00    +0.000 A 
ATOM     22  C   UNL     1       6.877   3.349  11.384  0.00  0.00    +0.000 A 
ATOM     23  C   UNL     1       7.594   4.204  12.227  0.00  0.00    +0.000 A 
ATOM     24  C   UNL     1       6.978   4.562  13.428  0.00  0.00    +0.000 A 
ATOM     25  N   UNL     1       7.382   5.351  14.470  0.00  0.00    +0.000 N 
ATOM     26  H   UNL     1       8.254   5.852  14.555  0.00  0.00    +0.000 HD
ENDBRANCH  16  17
ENDBRANCH   1  16
TORSDOF 3
ENDMDL
MODEL 8
REMARK VINA RESULT:      -7.8      2.735      7.658
REMARK  Name = 
REMARK  3 active torsions:
REMARK  status: ('A' for Active; 'I' for Inactive)
REMARK    1  A    between atoms: S_2  and  C_3
REMARK    2  A    between atoms: S_2  and  C_17
REMARK    3  A    between atoms: C_3  and  C_4
REMARK                            x       y       z     vdW  Elec       q    Type
REMARK                         _______ _______ _______ _____ _____    ______ ____
ROOT
ATOM      1  C   UNL     1       3.200   8.090  18.578  0.00  0.00    +0.000 C 
ENDROOT
BRANCH   1   2
ATOM      2  C   UNL     1       3.036   6.596  18.442  0.00  0.00    +0.000 A 
ATOM      3  N   UNL     1       2.113   5.977  19.123  0.00  0.00    +0.000 NA
ATOM      4  C   UNL     1       2.010   4.575  19.032  0.00  0.00    +0.000 A 
ATOM      5  C   UNL     1       1.085   3.931  19.853  0.00  0.00    +0.000 A 
ATOM      6  C   UNL     1       0.955   2.541  19.822  0.00  0.00    +0.000 A 
ATOM      7  C   UNL     1       1.751   1.782  18.962  0.00  0.00    +0.000 A 
ATOM      8  C   UNL     1       2.683   2.407  18.132  0.00  0.00    +0.000 A 
ATOM      9  C   UNL     1       2.809   3.797  18.179  0.00  0.00    +0.000 A 
ATOM     10  N   UNL     1       3.738   4.505  17.394  0.00  0.00    +0.000 N 
ATOM     11  C   UNL     1       4.626   4.043  16.452  0.00  0.00    +0.000 A 
ATOM     12  C   UNL     1       5.303   5.126  15.932  0.00  0.00    +0.000 A 
ATOM     13  C   UNL     1       4.821   6.282  16.589  0.00  0.00    +0.000 A 
ATOM     14  C   UNL     1       3.862   5.873  17.498  0.00  0.00    +0.000 A 
ENDBRANCH   1   2
BRANCH   1  16
ATOM     15  O   UNL     1       2.353  10.337  17.173  0.00  0.00    +0.000 OA
ATOM     16  S   UNL     1       1.840   8.995  17.813  0.00  0.00    +0.000 S 
BRANCH  16  17
ATOM     17  C   UNL     1       0.954   9.461  19.230  0.00  0.00    +0.000 A 
ATOM     18  N   UNL     1       0.183  10.520  19.366  0.00  0.00    +0.000 NA
ATOM     19  C   UNL     1      -0.192  10.524  20.692  0.00  0.00    +0.000 A 
ATOM     20  C   UNL     1      -0.973  11.443  21.408  0.00  0.00    +0.000 A 
ATOM     21  C   UNL     1      -1.187  11.223  22.776  0.00  0.00    +0.000 A 
ATOM     22  C   UNL     1      -0.640  10.107  23.418  0.00  0.00    +0.000 A 
ATOM     23  C   UNL     1       0.134   9.175  22.719  0.00  0.00    +0.000 A 
ATOM     24  C   UNL     1       0.335   9.422  21.359  0.00  0.00    +0.000 A 
ATOM     25  N   UNL     1       1.032   8.747  20.394  0.00  0.00    +0.000 N 
ATOM     26  H   UNL     1       1.552   7.889  20.504  0.00  0.00    +0.000 HD
ENDBRANCH  16  17
ENDBRANCH   1  16
TORSDOF 3
ENDMDL
MODEL 9
REMARK VINA RESULT:      -7.8      2.780      7.719
REMARK  Name = 
REMARK  3 active torsions:
REMARK  status: ('A' for Active; 'I' for Inactive)
REMARK    1  A    between atoms: S_2  and  C_3
REMARK    2  A    between atoms: S_2  and  C_17
REMARK    3  A    between atoms: C_3  and  C_4
REMARK                            x       y       z     vdW  Elec       q    Type
REMARK                         _______ _______ _______ _____ _____    ______ ____
ROOT
ATOM      1  C   UNL     1       3.278   8.059  18.446  0.00  0.00    +0.000 C 
ENDROOT
BRANCH   1   2
ATOM      2  C   UNL     1       3.144   6.567  18.257  0.00  0.00    +0.000 A 
ATOM      3  N   UNL     1       2.210   5.911  18.885  0.00  0.00    +0.000 NA
ATOM      4  C   UNL     1       2.134   4.512  18.747  0.00  0.00    +0.000 A 
ATOM      5  C   UNL     1       1.193   3.826  19.515  0.00  0.00    +0.000 A 
ATOM      6  C   UNL     1       1.089   2.436  19.435  0.00  0.00    +0.000 A 
ATOM      7  C   UNL     1       1.926   1.718  18.578  0.00  0.00    +0.000 A 
ATOM      8  C   UNL     1       2.874   2.385  17.800  0.00  0.00    +0.000 A 
ATOM      9  C   UNL     1       2.975   3.774  17.897  0.00  0.00    +0.000 A 
ATOM     10  N   UNL     1       3.917   4.523  17.166  0.00  0.00    +0.000 N 
ATOM     11  C   UNL     1       4.844   4.106  16.241  0.00  0.00    +0.000 A 
ATOM     12  C   UNL     1       5.519   5.216  15.779  0.00  0.00    +0.000 A 
ATOM     13  C   UNL     1       4.995   6.343  16.456  0.00  0.00    +0.000 A 
ATOM     14  C   UNL     1       4.013   5.889  17.319  0.00  0.00    +0.000 A 
ENDBRANCH   1   2
BRANCH   1  16
ATOM     15  O   UNL     1       2.237  10.280  17.135  0.00  0.00    +0.000 OA
ATOM     16  S   UNL     1       1.822   8.950  17.864  0.00  0.00    +0.000 S 
BRANCH  16  17
ATOM     17  C   UNL     1       1.143   9.442  19.383  0.00  0.00    +0.000 A 
ATOM     18  N   UNL     1       1.086   8.729  20.489  0.00  0.00    +0.000 NA
ATOM     19  C   UNL     1       0.353   9.493  21.371  0.00  0.00    +0.000 A 
ATOM     20  C   UNL     1      -0.061   9.214  22.682  0.00  0.00    +0.000 A 
ATOM     21  C   UNL     1      -0.831  10.167  23.363  0.00  0.00    +0.000 A 
ATOM     22  C   UNL     1      -1.177  11.377  22.754  0.00  0.00    +0.000 A 
ATOM     23  C   UNL     1      -0.768  11.677  21.451  0.00  0.00    +0.000 A 
ATOM     24  C   UNL     1      -0.007  10.708  20.795  0.00  0.00    +0.000 A 
ATOM     25  N   UNL     1       0.539  10.659  19.541  0.00  0.00    +0.000 N 
ATOM     26  H   UNL     1       0.489  11.369  18.825  0.00  0.00    +0.000 HD
ENDBRANCH  16  17
ENDBRANCH   1  16
TORSDOF 3
ENDMDL
