MODEL 1
REMARK VINA RESULT:      -7.3      0.000      0.000
REMARK  Name = 
REMARK  6 active torsions:
REMARK  status: ('A' for Active; 'I' for Inactive)
REMARK    1  A    between atoms: C_1  and  O_2
REMARK    2  A    between atoms: O_2  and  C_3
REMARK    3  A    between atoms: C_7  and  C_8
REMARK    4  A    between atoms: N_11  and  N_12
REMARK    5  A    between atoms: C_13  and  C_14
REMARK    6  A    between atoms: C_17  and  C_18
REMARK                            x       y       z     vdW  Elec       q    Type
REMARK                         _______ _______ _______ _____ _____    ______ ____
ROOT
ATOM      1  C   UNL     1       2.353   2.934  19.406  0.00  0.00    +0.000 A 
ATOM      2  C   UNL     1       3.373   2.445  18.604  0.00  0.00    +0.000 A 
ATOM      3  C   UNL     1       4.093   3.320  17.791  0.00  0.00    +0.000 A 
ATOM      4  C   UNL     1       3.812   4.704  17.760  0.00  0.00    +0.000 A 
ATOM      5  C   UNL     1       4.506   5.633  16.953  0.00  0.00    +0.000 A 
ATOM      6  C   UNL     1       5.599   5.274  15.984  0.00  0.00    +0.000 C 
ATOM      7  C   UNL     1       4.138   6.983  17.017  0.00  0.00    +0.000 A 
ATOM      8  C   UNL     1       3.089   7.389  17.833  0.00  0.00    +0.000 A 
ATOM      9  N   UNL     1       2.714   8.759  17.758  0.00  0.00    +0.000 N 
ATOM     10  N   UNL     1       2.419   6.502  18.600  0.00  0.00    +0.000 NA
ATOM     11  C   UNL     1       2.770   5.202  18.577  0.00  0.00    +0.000 A 
ATOM     12  C   UNL     1       2.072   4.305  19.384  0.00  0.00    +0.000 A 
ATOM     13  H   UNL     1       3.508   9.371  17.924  0.00  0.00    +0.000 HD
ENDROOT
BRANCH   1  15
ATOM     14  C   UNL     1       1.482   2.611  21.596  0.00  0.00    +0.000 C 
ATOM     15  O   UNL     1       1.568   2.182  20.239  0.00  0.00    +0.000 OA
ENDBRANCH   1  15
BRANCH   9  16
ATOM     16  N   UNL     1       1.483   9.109  18.218  0.00  0.00    +0.000 NA
ATOM     17  C   UNL     1       1.263  10.381  18.347  0.00  0.00    +0.000 C 
BRANCH  17  18
ATOM     18  C   UNL     1      -0.049  10.847  18.716  0.00  0.00    +0.000 A 
ATOM     19  C   UNL     1      -1.247  10.605  18.076  0.00  0.00    +0.000 A 
ATOM     20  C   UNL     1      -2.338  11.274  18.697  0.00  0.00    +0.000 A 
ATOM     21  C   UNL     1      -1.944  11.994  19.807  0.00  0.00    +0.000 A 
ATOM     22  C   UNL     1      -2.790  12.816  20.716  0.00  0.00    +0.000 C 
ATOM     23  S   UNL     1      -0.256  11.858  20.077  0.00  0.00    +0.000 S 
ENDBRANCH  17  18
ENDBRANCH   9  16
TORSDOF 3
ENDMDL
MODEL 2
REMARK VINA RESULT:      -7.2      0.771      1.054
REMARK  Name = 
REMARK  6 active torsions:
REMARK  status: ('A' for Active; 'I' for Inactive)
REMARK    1  A    between atoms: C_1  and  O_2
REMARK    2  A    between atoms: O_2  and  C_3
REMARK    3  A    between atoms: C_7  and  C_8
REMARK    4  A    between atoms: N_11  and  N_12
REMARK    5  A    between atoms: C_13  and  C_14
REMARK    6  A    between atoms: C_17  and  C_18
REMARK                            x       y       z     vdW  Elec       q    Type
REMARK                         _______ _______ _______ _____ _____    ______ ____
ROOT
ATOM      1  C   UNL     1       2.259   3.063  19.413  0.00  0.00    +0.000 A 
ATOM      2  C   UNL     1       3.267   2.564  18.602  0.00  0.00    +0.000 A 
ATOM      3  C   UNL     1       3.998   3.434  17.794  0.00  0.00    +0.000 A 
ATOM      4  C   UNL     1       3.739   4.824  17.775  0.00  0.00    +0.000 A 
ATOM      5  C   UNL     1       4.443   5.748  16.972  0.00  0.00    +0.000 A 
ATOM      6  C   UNL     1       5.527   5.379  15.996  0.00  0.00    +0.000 C 
ATOM      7  C   UNL     1       4.097   7.103  17.049  0.00  0.00    +0.000 A 
ATOM      8  C   UNL     1       3.058   7.518  17.873  0.00  0.00    +0.000 A 
ATOM      9  N   UNL     1       2.705   8.895  17.810  0.00  0.00    +0.000 N 
ATOM     10  N   UNL     1       2.378   6.636  18.635  0.00  0.00    +0.000 NA
ATOM     11  C   UNL     1       2.708   5.331  18.600  0.00  0.00    +0.000 A 
ATOM     12  C   UNL     1       2.000   4.438  19.403  0.00  0.00    +0.000 A 
ATOM     13  H   UNL     1       3.509   9.492  17.977  0.00  0.00    +0.000 HD
ENDROOT
BRANCH   1  15
ATOM     14  C   UNL     1       1.511   2.639  21.631  0.00  0.00    +0.000 C 
ATOM     15  O   UNL     1       1.466   2.317  20.243  0.00  0.00    +0.000 OA
ENDBRANCH   1  15
BRANCH   9  16
ATOM     16  N   UNL     1       1.481   9.260  18.278  0.00  0.00    +0.000 NA
ATOM     17  C   UNL     1       1.291  10.533  18.442  0.00  0.00    +0.000 C 
BRANCH  17  18
ATOM     18  C   UNL     1      -0.011  11.019  18.823  0.00  0.00    +0.000 A 
ATOM     19  C   UNL     1      -0.356  11.722  19.958  0.00  0.00    +0.000 A 
ATOM     20  C   UNL     1      -1.751  11.992  20.025  0.00  0.00    +0.000 A 
ATOM     21  C   UNL     1      -2.430  11.502  18.928  0.00  0.00    +0.000 A 
ATOM     22  C   UNL     1      -3.888  11.590  18.635  0.00  0.00    +0.000 C 
ATOM     23  S   UNL     1      -1.370  10.714  17.834  0.00  0.00    +0.000 S 
ENDBRANCH  17  18
ENDBRANCH   9  16
TORSDOF 3
ENDMDL
MODEL 3
REMARK VINA RESULT:      -7.1      3.601      8.414
REMARK  Name = 
REMARK  6 active torsions:
REMARK  status: ('A' for Active; 'I' for Inactive)
REMARK    1  A    between atoms: C_1  and  O_2
REMARK    2  A    between atoms: O_2  and  C_3
REMARK    3  A    between atoms: C_7  and  C_8
REMARK    4  A    between atoms: N_11  and  N_12
REMARK    5  A    between atoms: C_13  and  C_14
REMARK    6  A    between atoms: C_17  and  C_18
REMARK                            x       y       z     vdW  Elec       q    Type
REMARK                         _______ _______ _______ _____ _____    ______ ____
ROOT
ATOM      1  C   UNL     1      -2.064  11.060  17.446  0.00  0.00    +0.000 A 
ATOM      2  C   UNL     1      -2.553  11.985  18.355  0.00  0.00    +0.000 A 
ATOM      3  C   UNL     1      -2.050  12.010  19.655  0.00  0.00    +0.000 A 
ATOM      4  C   UNL     1      -1.047  11.109  20.080  0.00  0.00    +0.000 A 
ATOM      5  C   UNL     1      -0.506  11.086  21.384  0.00  0.00    +0.000 A 
ATOM      6  C   UNL     1      -0.954  11.977  22.511  0.00  0.00    +0.000 C 
ATOM      7  C   UNL     1       0.493  10.149  21.680  0.00  0.00    +0.000 A 
ATOM      8  C   UNL     1       0.913   9.241  20.716  0.00  0.00    +0.000 A 
ATOM      9  N   UNL     1       1.853   8.258  21.132  0.00  0.00    +0.000 N 
ATOM     10  N   UNL     1       0.392   9.255  19.471  0.00  0.00    +0.000 NA
ATOM     11  C   UNL     1      -0.550  10.164  19.152  0.00  0.00    +0.000 A 
ATOM     12  C   UNL     1      -1.067  10.168  17.858  0.00  0.00    +0.000 A 
ATOM     13  H   UNL     1       2.673   8.683  21.555  0.00  0.00    +0.000 HD
ENDROOT
BRANCH   1  15
ATOM     14  C   UNL     1      -3.871  11.091  15.900  0.00  0.00    +0.000 C 
ATOM     15  O   UNL     1      -2.477  10.927  16.147  0.00  0.00    +0.000 OA
ENDBRANCH   1  15
BRANCH   9  16
ATOM     16  N   UNL     1       1.989   7.142  20.366  0.00  0.00    +0.000 NA
ATOM     17  C   UNL     1       1.653   6.021  20.927  0.00  0.00    +0.000 C 
BRANCH  17  18
ATOM     18  C   UNL     1       1.654   4.805  20.155  0.00  0.00    +0.000 A 
ATOM     19  C   UNL     1       0.806   3.723  20.274  0.00  0.00    +0.000 A 
ATOM     20  C   UNL     1       1.138   2.673  19.373  0.00  0.00    +0.000 A 
ATOM     21  C   UNL     1       2.221   2.992  18.578  0.00  0.00    +0.000 A 
ATOM     22  C   UNL     1       2.859   2.160  17.520  0.00  0.00    +0.000 C 
ATOM     23  S   UNL     1       2.826   4.555  18.938  0.00  0.00    +0.000 S 
ENDBRANCH  17  18
ENDBRANCH   9  16
TORSDOF 3
ENDMDL
MODEL 4
REMARK VINA RESULT:      -7.1      1.395      1.489
REMARK  Name = 
REMARK  6 active torsions:
REMARK  status: ('A' for Active; 'I' for Inactive)
REMARK    1  A    between atoms: C_1  and  O_2
REMARK    2  A    between atoms: O_2  and  C_3
REMARK    3  A    between atoms: C_7  and  C_8
REMARK    4  A    between atoms: N_11  and  N_12
REMARK    5  A    between atoms: C_13  and  C_14
REMARK    6  A    between atoms: C_17  and  C_18
REMARK                            x       y       z     vdW  Elec       q    Type
REMARK                         _______ _______ _______ _____ _____    ______ ____
ROOT
ATOM      1  C   UNL     1       2.416   3.132  17.873  0.00  0.00    +0.000 A 
ATOM      2  C   UNL     1       3.763   2.985  17.575  0.00  0.00    +0.000 A 
ATOM      3  C   UNL     1       4.562   4.116  17.416  0.00  0.00    +0.000 A 
ATOM      4  C   UNL     1       4.037   5.421  17.549  0.00  0.00    +0.000 A 
ATOM      5  C   UNL     1       4.799   6.600  17.393  0.00  0.00    +0.000 A 
ATOM      6  C   UNL     1       6.256   6.632  17.017  0.00  0.00    +0.000 C 
ATOM      7  C   UNL     1       4.164   7.837  17.560  0.00  0.00    +0.000 A 
ATOM      8  C   UNL     1       2.804   7.897  17.838  0.00  0.00    +0.000 A 
ATOM      9  N   UNL     1       2.219   9.193  17.886  0.00  0.00    +0.000 N 
ATOM     10  N   UNL     1       2.070   6.773  17.980  0.00  0.00    +0.000 NA
ATOM     11  C   UNL     1       2.663   5.570  17.851  0.00  0.00    +0.000 A 
ATOM     12  C   UNL     1       1.890   4.421  18.012  0.00  0.00    +0.000 A 
ATOM     13  H   UNL     1       2.709   9.798  18.538  0.00  0.00    +0.000 HD
ENDROOT
BRANCH   1  15
ATOM     14  C   UNL     1       0.895   2.015  19.320  0.00  0.00    +0.000 C 
ATOM     15  O   UNL     1       1.525   2.107  18.045  0.00  0.00    +0.000 OA
ENDBRANCH   1  15
BRANCH   9  16
ATOM     16  N   UNL     1       0.867   9.287  17.761  0.00  0.00    +0.000 NA
ATOM     17  C   UNL     1       0.303  10.267  18.398  0.00  0.00    +0.000 C 
BRANCH  17  18
ATOM     18  C   UNL     1      -1.106  10.513  18.230  0.00  0.00    +0.000 A 
ATOM     19  C   UNL     1      -1.963   9.948  17.307  0.00  0.00    +0.000 A 
ATOM     20  C   UNL     1      -3.282  10.471  17.402  0.00  0.00    +0.000 A 
ATOM     21  C   UNL     1      -3.400  11.407  18.409  0.00  0.00    +0.000 A 
ATOM     22  C   UNL     1      -4.614  12.168  18.817  0.00  0.00    +0.000 C 
ATOM     23  S   UNL     1      -1.910  11.649  19.221  0.00  0.00    +0.000 S 
ENDBRANCH  17  18
ENDBRANCH   9  16
TORSDOF 3
ENDMDL
MODEL 5
REMARK VINA RESULT:      -7.0      3.292      8.458
REMARK  Name = 
REMARK  6 active torsions:
REMARK  status: ('A' for Active; 'I' for Inactive)
REMARK    1  A    between atoms: C_1  and  O_2
REMARK    2  A    between atoms: O_2  and  C_3
REMARK    3  A    between atoms: C_7  and  C_8
REMARK    4  A    between atoms: N_11  and  N_12
REMARK    5  A    between atoms: C_13  and  C_14
REMARK    6  A    between atoms: C_17  and  C_18
REMARK                            x       y       z     vdW  Elec       q    Type
REMARK                         _______ _______ _______ _____ _____    ______ ____
ROOT
ATOM      1  C   UNL     1      -3.472  10.600  16.271  0.00  0.00    +0.000 A 
ATOM      2  C   UNL     1      -4.071  11.439  17.199  0.00  0.00    +0.000 A 
ATOM      3  C   UNL     1      -3.411  11.732  18.392  0.00  0.00    +0.000 A 
ATOM      4  C   UNL     1      -2.138  11.194  18.688  0.00  0.00    +0.000 A 
ATOM      5  C   UNL     1      -1.428  11.453  19.882  0.00  0.00    +0.000 A 
ATOM      6  C   UNL     1      -1.946  12.291  21.018  0.00  0.00    +0.000 C 
ATOM      7  C   UNL     1      -0.168  10.865  20.054  0.00  0.00    +0.000 A 
ATOM      8  C   UNL     1       0.352  10.019  19.082  0.00  0.00    +0.000 A 
ATOM      9  N   UNL     1       1.587   9.382  19.385  0.00  0.00    +0.000 N 
ATOM     10  N   UNL     1      -0.328   9.763  17.944  0.00  0.00    +0.000 NA
ATOM     11  C   UNL     1      -1.530  10.337  17.742  0.00  0.00    +0.000 A 
ATOM     12  C   UNL     1      -2.210  10.068  16.555  0.00  0.00    +0.000 A 
ATOM     13  H   UNL     1       2.301  10.060  19.639  0.00  0.00    +0.000 HD
ENDROOT
BRANCH   1  15
ATOM     14  C   UNL     1      -3.108  10.047  13.987  0.00  0.00    +0.000 C 
ATOM     15  O   UNL     1      -4.015  10.229  15.070  0.00  0.00    +0.000 OA
ENDBRANCH   1  15
BRANCH   9  16
ATOM     16  N   UNL     1       1.928   8.278  18.667  0.00  0.00    +0.000 NA
ATOM     17  C   UNL     1       2.475   7.310  19.337  0.00  0.00    +0.000 C 
BRANCH  17  18
ATOM     18  C   UNL     1       2.762   6.060  18.682  0.00  0.00    +0.000 A 
ATOM     19  C   UNL     1       3.664   5.820  17.667  0.00  0.00    +0.000 A 
ATOM     20  C   UNL     1       3.641   4.467  17.229  0.00  0.00    +0.000 A 
ATOM     21  C   UNL     1       2.732   3.706  17.937  0.00  0.00    +0.000 A 
ATOM     22  C   UNL     1       2.424   2.258  17.775  0.00  0.00    +0.000 C 
ATOM     23  S   UNL     1       1.913   4.643  19.116  0.00  0.00    +0.000 S 
ENDBRANCH  17  18
ENDBRANCH   9  16
TORSDOF 3
ENDMDL
MODEL 6
REMARK VINA RESULT:      -7.0      3.378      8.568
REMARK  Name = 
REMARK  6 active torsions:
REMARK  status: ('A' for Active; 'I' for Inactive)
REMARK    1  A    between atoms: C_1  and  O_2
REMARK    2  A    between atoms: O_2  and  C_3
REMARK    3  A    between atoms: C_7  and  C_8
REMARK    4  A    between atoms: N_11  and  N_12
REMARK    5  A    between atoms: C_13  and  C_14
REMARK    6  A    between atoms: C_17  and  C_18
REMARK                            x       y       z     vdW  Elec       q    Type
REMARK                         _______ _______ _______ _____ _____    ______ ____
ROOT
ATOM      1  C   UNL     1      -3.672  10.643  16.053  0.00  0.00    +0.000 A 
ATOM      2  C   UNL     1      -4.314  11.429  16.998  0.00  0.00    +0.000 A 
ATOM      3  C   UNL     1      -3.676  11.719  18.203  0.00  0.00    +0.000 A 
ATOM      4  C   UNL     1      -2.381  11.231  18.494  0.00  0.00    +0.000 A 
ATOM      5  C   UNL     1      -1.691  11.490  19.699  0.00  0.00    +0.000 A 
ATOM      6  C   UNL     1      -2.254  12.274  20.854  0.00  0.00    +0.000 C 
ATOM      7  C   UNL     1      -0.407  10.956  19.864  0.00  0.00    +0.000 A 
ATOM      8  C   UNL     1       0.157  10.160  18.875  0.00  0.00    +0.000 A 
ATOM      9  N   UNL     1       1.419   9.573  19.169  0.00  0.00    +0.000 N 
ATOM     10  N   UNL     1      -0.503   9.905  17.725  0.00  0.00    +0.000 NA
ATOM     11  C   UNL     1      -1.729  10.429  17.530  0.00  0.00    +0.000 A 
ATOM     12  C   UNL     1      -2.389  10.161  16.331  0.00  0.00    +0.000 A 
ATOM     13  H   UNL     1       2.099  10.275  19.446  0.00  0.00    +0.000 HD
ENDROOT
BRANCH   1  15
ATOM     14  C   UNL     1      -3.256   9.946  13.817  0.00  0.00    +0.000 C 
ATOM     15  O   UNL     1      -4.191  10.280  14.839  0.00  0.00    +0.000 OA
ENDBRANCH   1  15
BRANCH   9  16
ATOM     16  N   UNL     1       1.814   8.505  18.425  0.00  0.00    +0.000 NA
ATOM     17  C   UNL     1       2.461   7.577  19.060  0.00  0.00    +0.000 C 
BRANCH  17  18
ATOM     18  C   UNL     1       2.816   6.358  18.380  0.00  0.00    +0.000 A 
ATOM     19  C   UNL     1       2.059   5.212  18.240  0.00  0.00    +0.000 A 
ATOM     20  C   UNL     1       2.756   4.184  17.546  0.00  0.00    +0.000 A 
ATOM     21  C   UNL     1       4.020   4.581  17.161  0.00  0.00    +0.000 A 
ATOM     22  C   UNL     1       5.043   3.793  16.416  0.00  0.00    +0.000 C 
ATOM     23  S   UNL     1       4.351   6.191  17.650  0.00  0.00    +0.000 S 
ENDBRANCH  17  18
ENDBRANCH   9  16
TORSDOF 3
ENDMDL
MODEL 7
REMARK VINA RESULT:      -6.9      2.460      3.989
REMARK  Name = 
REMARK  6 active torsions:
REMARK  status: ('A' for Active; 'I' for Inactive)
REMARK    1  A    between atoms: C_1  and  O_2
REMARK    2  A    between atoms: O_2  and  C_3
REMARK    3  A    between atoms: C_7  and  C_8
REMARK    4  A    between atoms: N_11  and  N_12
REMARK    5  A    between atoms: C_13  and  C_14
REMARK    6  A    between atoms: C_17  and  C_18
REMARK                            x       y       z     vdW  Elec       q    Type
REMARK                         _______ _______ _______ _____ _____    ______ ____
ROOT
ATOM      1  C   UNL     1       4.763   5.216  16.677  0.00  0.00    +0.000 A 
ATOM      2  C   UNL     1       4.888   3.904  17.108  0.00  0.00    +0.000 A 
ATOM      3  C   UNL     1       4.243   3.496  18.275  0.00  0.00    +0.000 A 
ATOM      4  C   UNL     1       3.460   4.389  19.041  0.00  0.00    +0.000 A 
ATOM      5  C   UNL     1       2.790   4.030  20.233  0.00  0.00    +0.000 A 
ATOM      6  C   UNL     1       2.859   2.672  20.875  0.00  0.00    +0.000 C 
ATOM      7  C   UNL     1       2.036   5.006  20.897  0.00  0.00    +0.000 A 
ATOM      8  C   UNL     1       1.980   6.305  20.409  0.00  0.00    +0.000 A 
ATOM      9  N   UNL     1       1.279   7.256  21.203  0.00  0.00    +0.000 N 
ATOM     10  N   UNL     1       2.625   6.653  19.275  0.00  0.00    +0.000 NA
ATOM     11  C   UNL     1       3.335   5.727  18.602  0.00  0.00    +0.000 A 
ATOM     12  C   UNL     1       3.984   6.104  17.427  0.00  0.00    +0.000 A 
ATOM     13  H   UNL     1       0.334   6.945  21.405  0.00  0.00    +0.000 HD
ENDROOT
BRANCH   1  15
ATOM     14  C   UNL     1       6.075   4.838  14.730  0.00  0.00    +0.000 C 
ATOM     15  O   UNL     1       5.349   5.743  15.557  0.00  0.00    +0.000 OA
ENDBRANCH   1  15
BRANCH   9  16
ATOM     16  N   UNL     1       1.525   8.575  20.982  0.00  0.00    +0.000 NA
ATOM     17  C   UNL     1       0.514   9.284  20.583  0.00  0.00    +0.000 C 
BRANCH  17  18
ATOM     18  C   UNL     1       0.653  10.710  20.437  0.00  0.00    +0.000 A 
ATOM     19  C   UNL     1       0.351  11.692  21.358  0.00  0.00    +0.000 A 
ATOM     20  C   UNL     1       0.568  13.001  20.846  0.00  0.00    +0.000 A 
ATOM     21  C   UNL     1       1.048  12.981  19.552  0.00  0.00    +0.000 A 
ATOM     22  C   UNL     1       1.398  14.141  18.685  0.00  0.00    +0.000 C 
ATOM     23  S   UNL     1       1.221  11.377  18.971  0.00  0.00    +0.000 S 
ENDBRANCH  17  18
ENDBRANCH   9  16
TORSDOF 3
ENDMDL
MODEL 8
REMARK VINA RESULT:      -6.9      5.135      6.356
REMARK  Name = 
REMARK  6 active torsions:
REMARK  status: ('A' for Active; 'I' for Inactive)
REMARK    1  A    between atoms: C_1  and  O_2
REMARK    2  A    between atoms: O_2  and  C_3
REMARK    3  A    between atoms: C_7  and  C_8
REMARK    4  A    between atoms: N_11  and  N_12
REMARK    5  A    between atoms: C_13  and  C_14
REMARK    6  A    between atoms: C_17  and  C_18
REMARK                            x       y       z     vdW  Elec       q    Type
REMARK                         _______ _______ _______ _____ _____    ______ ____
ROOT
ATOM      1  C   UNL     1       3.235   4.620  19.509  0.00  0.00    +0.000 A 
ATOM      2  C   UNL     1       2.916   3.805  18.433  0.00  0.00    +0.000 A 
ATOM      3  C   UNL     1       3.676   3.873  17.266  0.00  0.00    +0.000 A 
ATOM      4  C   UNL     1       4.772   4.758  17.145  0.00  0.00    +0.000 A 
ATOM      5  C   UNL     1       5.571   4.872  15.986  0.00  0.00    +0.000 A 
ATOM      6  C   UNL     1       5.339   4.109  14.710  0.00  0.00    +0.000 C 
ATOM      7  C   UNL     1       6.637   5.781  15.992  0.00  0.00    +0.000 A 
ATOM      8  C   UNL     1       6.876   6.577  17.106  0.00  0.00    +0.000 A 
ATOM      9  N   UNL     1       7.910   7.546  16.988  0.00  0.00    +0.000 N 
ATOM     10  N   UNL     1       6.109   6.476  18.212  0.00  0.00    +0.000 NA
ATOM     11  C   UNL     1       5.094   5.590  18.242  0.00  0.00    +0.000 A 
ATOM     12  C   UNL     1       4.321   5.494  19.398  0.00  0.00    +0.000 A 
ATOM     13  H   UNL     1       8.786   7.120  16.701  0.00  0.00    +0.000 HD
ENDROOT
BRANCH   1  15
ATOM     14  C   UNL     1       1.710   3.552  20.990  0.00  0.00    +0.000 C 
ATOM     15  O   UNL     1       2.565   4.655  20.703  0.00  0.00    +0.000 OA
ENDBRANCH   1  15
BRANCH   9  16
ATOM     16  N   UNL     1       7.918   8.580  17.872  0.00  0.00    +0.000 NA
ATOM     17  C   UNL     1       9.015   9.271  17.931  0.00  0.00    +0.000 C 
BRANCH  17  18
ATOM     18  C   UNL     1       9.073  10.453  18.752  0.00  0.00    +0.000 A 
ATOM     19  C   UNL     1       9.222  10.529  20.122  0.00  0.00    +0.000 A 
ATOM     20  C   UNL     1       9.184  11.868  20.598  0.00  0.00    +0.000 A 
ATOM     21  C   UNL     1       9.025  12.780  19.574  0.00  0.00    +0.000 A 
ATOM     22  C   UNL     1       8.945  14.265  19.671  0.00  0.00    +0.000 C 
ATOM     23  S   UNL     1       8.915  12.002  18.050  0.00  0.00    +0.000 S 
ENDBRANCH  17  18
ENDBRANCH   9  16
TORSDOF 3
ENDMDL
MODEL 9
REMARK VINA RESULT:      -6.9      1.073      1.118
REMARK  Name = 
REMARK  6 active torsions:
REMARK  status: ('A' for Active; 'I' for Inactive)
REMARK    1  A    between atoms: C_1  and  O_2
REMARK    2  A    between atoms: O_2  and  C_3
REMARK    3  A    between atoms: C_7  and  C_8
REMARK    4  A    between atoms: N_11  and  N_12
REMARK    5  A    between atoms: C_13  and  C_14
REMARK    6  A    between atoms: C_17  and  C_18
REMARK                            x       y       z     vdW  Elec       q    Type
REMARK                         _______ _______ _______ _____ _____    ______ ____
ROOT
ATOM      1  C   UNL     1       2.879   3.841  20.810  0.00  0.00    +0.000 A 
ATOM      2  C   UNL     1       3.726   3.219  19.905  0.00  0.00    +0.000 A 
ATOM      3  C   UNL     1       4.150   3.908  18.769  0.00  0.00    +0.000 A 
ATOM      4  C   UNL     1       3.738   5.235  18.509  0.00  0.00    +0.000 A 
ATOM      5  C   UNL     1       4.132   5.976  17.373  0.00  0.00    +0.000 A 
ATOM      6  C   UNL     1       5.000   5.445  16.265  0.00  0.00    +0.000 C 
ATOM      7  C   UNL     1       3.661   7.288  17.233  0.00  0.00    +0.000 A 
ATOM      8  C   UNL     1       2.797   7.830  18.175  0.00  0.00    +0.000 A 
ATOM      9  N   UNL     1       2.285   9.128  17.900  0.00  0.00    +0.000 N 
ATOM     10  N   UNL     1       2.412   7.121  19.258  0.00  0.00    +0.000 NA
ATOM     11  C   UNL     1       2.872   5.867  19.431  0.00  0.00    +0.000 A 
ATOM     12  C   UNL     1       2.470   5.156  20.561  0.00  0.00    +0.000 A 
ATOM     13  H   UNL     1       3.033   9.794  17.727  0.00  0.00    +0.000 HD
ENDROOT
BRANCH   1  15
ATOM     14  C   UNL     1       1.249   2.426  21.809  0.00  0.00    +0.000 C 
ATOM     15  O   UNL     1       2.385   3.274  21.954  0.00  0.00    +0.000 OA
ENDBRANCH   1  15
BRANCH   9  16
ATOM     16  N   UNL     1       1.166   9.526  18.564  0.00  0.00    +0.000 NA
ATOM     17  C   UNL     1       1.006  10.807  18.695  0.00  0.00    +0.000 C 
BRANCH  17  18
ATOM     18  C   UNL     1      -0.205  11.322  19.281  0.00  0.00    +0.000 A 
ATOM     19  C   UNL     1      -1.340  11.763  18.633  0.00  0.00    +0.000 A 
ATOM     20  C   UNL     1      -2.323  12.253  19.537  0.00  0.00    +0.000 A 
ATOM     21  C   UNL     1      -1.917  12.155  20.852  0.00  0.00    +0.000 A 
ATOM     22  C   UNL     1      -2.665  12.556  22.076  0.00  0.00    +0.000 C 
ATOM     23  S   UNL     1      -0.347  11.478  20.976  0.00  0.00    +0.000 S 
ENDBRANCH  17  18
ENDBRANCH   9  16
TORSDOF 3
ENDMDL
