MODEL 1
REMARK VINA RESULT:      -7.8      0.000      0.000
REMARK  Name = 
REMARK  6 active torsions:
REMARK  status: ('A' for Active; 'I' for Inactive)
REMARK    1  A    between atoms: C_1  and  O_2
REMARK    2  A    between atoms: O_2  and  C_3
REMARK    3  A    between atoms: C_10  and  C_11
REMARK    4  A    between atoms: N_13  and  C_14
REMARK    5  A    between atoms: C_14  and  C_15
REMARK    6  A    between atoms: C_15  and  C_16
REMARK                            x       y       z     vdW  Elec       q    Type
REMARK                         _______ _______ _______ _____ _____    ______ ____
ROOT
ATOM      1  C   UNL     1       6.840   4.627  14.102  0.00  0.00    +0.000 A 
ATOM      2  C   UNL     1       5.557   4.095  14.182  0.00  0.00    +0.000 A 
ATOM      3  C   UNL     1       5.020   3.743  15.417  0.00  0.00    +0.000 A 
ATOM      4  C   UNL     1       5.729   3.993  16.603  0.00  0.00    +0.000 A 
ATOM      5  C   UNL     1       7.010   4.542  16.511  0.00  0.00    +0.000 A 
ATOM      6  C   UNL     1       7.581   4.829  15.271  0.00  0.00    +0.000 A 
ATOM      7  O   UNL     1       7.774   4.795  17.622  0.00  0.00    +0.000 OA
ATOM      8  C   UNL     1       7.285   5.859  18.462  0.00  0.00    +0.000 C 
ATOM      9  C   UNL     1       7.225   7.216  17.753  0.00  0.00    +0.000 C 
ATOM     10  C   UNL     1       6.047   5.482  19.321  0.00  0.00    +0.000 C 
ATOM     11  N   UNL     1       4.803   4.997  18.686  0.00  0.00    +0.000 NA
ATOM     12  C   UNL     1       5.068   3.762  17.933  0.00  0.00    +0.000 C 
ENDROOT
BRANCH   1  14
ATOM     13  C   UNL     1       7.046   3.962  11.854  0.00  0.00    +0.000 C 
ATOM     14  O   UNL     1       7.247   4.964  12.842  0.00  0.00    +0.000 OA
ENDBRANCH   1  14
BRANCH  11  15
ATOM     15  C   UNL     1       4.112   6.057  17.925  0.00  0.00    +0.000 C 
BRANCH  15  16
ATOM     16  C   UNL     1       2.615   6.212  18.220  0.00  0.00    +0.000 C 
BRANCH  16  17
ATOM     17  C   UNL     1       1.914   4.867  18.113  0.00  0.00    +0.000 C 
ATOM     18  O   UNL     1       1.798   4.289  17.031  0.00  0.00    +0.000 OA
ATOM     19  N   UNL     1       1.436   4.309  19.286  0.00  0.00    +0.000 N 
ATOM     20  C   UNL     1       1.502   4.899  20.626  0.00  0.00    +0.000 C 
ATOM     21  C   UNL     1       2.395   4.047  21.537  0.00  0.00    +0.000 C 
ATOM     22  O   UNL     1       1.972   2.672  21.547  0.00  0.00    +0.000 OA
ATOM     23  C   UNL     1       1.980   2.117  20.219  0.00  0.00    +0.000 C 
ATOM     24  C   UNL     1       1.037   2.900  19.297  0.00  0.00    +0.000 C 
ENDBRANCH  16  17
ENDBRANCH  15  16
ENDBRANCH  11  15
TORSDOF 4
ENDMDL
MODEL 2
REMARK VINA RESULT:      -6.8      2.564      3.263
REMARK  Name = 
REMARK  6 active torsions:
REMARK  status: ('A' for Active; 'I' for Inactive)
REMARK    1  A    between atoms: C_1  and  O_2
REMARK    2  A    between atoms: O_2  and  C_3
REMARK    3  A    between atoms: C_10  and  C_11
REMARK    4  A    between atoms: N_13  and  C_14
REMARK    5  A    between atoms: C_14  and  C_15
REMARK    6  A    between atoms: C_15  and  C_16
REMARK                            x       y       z     vdW  Elec       q    Type
REMARK                         _______ _______ _______ _____ _____    ______ ____
ROOT
ATOM      1  C   UNL     1       6.587   4.470  14.370  0.00  0.00    +0.000 A 
ATOM      2  C   UNL     1       5.239   4.139  14.465  0.00  0.00    +0.000 A 
ATOM      3  C   UNL     1       4.663   3.899  15.709  0.00  0.00    +0.000 A 
ATOM      4  C   UNL     1       5.409   4.066  16.887  0.00  0.00    +0.000 A 
ATOM      5  C   UNL     1       6.757   4.413  16.779  0.00  0.00    +0.000 A 
ATOM      6  C   UNL     1       7.357   4.584  15.531  0.00  0.00    +0.000 A 
ATOM      7  O   UNL     1       7.557   4.573  17.883  0.00  0.00    +0.000 OA
ATOM      8  C   UNL     1       7.239   5.717  18.700  0.00  0.00    +0.000 C 
ATOM      9  C   UNL     1       7.379   7.051  17.959  0.00  0.00    +0.000 C 
ATOM     10  C   UNL     1       5.964   5.549  19.569  0.00  0.00    +0.000 C 
ATOM     11  N   UNL     1       4.656   5.243  18.950  0.00  0.00    +0.000 NA
ATOM     12  C   UNL     1       4.729   3.966  18.224  0.00  0.00    +0.000 C 
ENDROOT
BRANCH   1  14
ATOM     13  C   UNL     1       6.745   3.695  12.153  0.00  0.00    +0.000 C 
ATOM     14  O   UNL     1       7.033   4.714  13.101  0.00  0.00    +0.000 OA
ENDBRANCH   1  14
BRANCH  11  15
ATOM     15  C   UNL     1       4.128   6.378  18.166  0.00  0.00    +0.000 C 
BRANCH  15  16
ATOM     16  C   UNL     1       2.619   6.619  18.291  0.00  0.00    +0.000 C 
BRANCH  16  17
ATOM     17  C   UNL     1       2.312   8.105  18.189  0.00  0.00    +0.000 C 
ATOM     18  O   UNL     1       2.429   8.712  17.123  0.00  0.00    +0.000 OA
ATOM     19  N   UNL     1       1.870   8.738  19.338  0.00  0.00    +0.000 N 
ATOM     20  C   UNL     1       1.702   8.132  20.662  0.00  0.00    +0.000 C 
ATOM     21  C   UNL     1       0.221   8.138  21.063  0.00  0.00    +0.000 C 
ATOM     22  O   UNL     1      -0.341   9.458  20.973  0.00  0.00    +0.000 OA
ATOM     23  C   UNL     1      -0.206   9.990  19.642  0.00  0.00    +0.000 C 
ATOM     24  C   UNL     1       1.270  10.071  19.235  0.00  0.00    +0.000 C 
ENDBRANCH  16  17
ENDBRANCH  15  16
ENDBRANCH  11  15
TORSDOF 4
ENDMDL
MODEL 3
REMARK VINA RESULT:      -6.5      3.583      5.548
REMARK  Name = 
REMARK  6 active torsions:
REMARK  status: ('A' for Active; 'I' for Inactive)
REMARK    1  A    between atoms: C_1  and  O_2
REMARK    2  A    between atoms: O_2  and  C_3
REMARK    3  A    between atoms: C_10  and  C_11
REMARK    4  A    between atoms: N_13  and  C_14
REMARK    5  A    between atoms: C_14  and  C_15
REMARK    6  A    between atoms: C_15  and  C_16
REMARK                            x       y       z     vdW  Elec       q    Type
REMARK                         _______ _______ _______ _____ _____    ______ ____
ROOT
ATOM      1  C   UNL     1       6.128   4.720  18.185  0.00  0.00    +0.000 A 
ATOM      2  C   UNL     1       5.583   5.965  17.889  0.00  0.00    +0.000 A 
ATOM      3  C   UNL     1       4.204   6.116  17.772  0.00  0.00    +0.000 A 
ATOM      4  C   UNL     1       3.342   5.037  18.030  0.00  0.00    +0.000 A 
ATOM      5  C   UNL     1       3.901   3.796  18.342  0.00  0.00    +0.000 A 
ATOM      6  C   UNL     1       5.284   3.623  18.388  0.00  0.00    +0.000 A 
ATOM      7  O   UNL     1       3.126   2.690  18.585  0.00  0.00    +0.000 OA
ATOM      8  C   UNL     1       2.358   2.746  19.803  0.00  0.00    +0.000 C 
ATOM      9  C   UNL     1       3.223   2.862  21.062  0.00  0.00    +0.000 C 
ATOM     10  C   UNL     1       1.118   3.679  19.737  0.00  0.00    +0.000 C 
ATOM     11  N   UNL     1       1.263   5.112  19.402  0.00  0.00    +0.000 NA
ATOM     12  C   UNL     1       1.855   5.259  18.063  0.00  0.00    +0.000 C 
ENDROOT
BRANCH   1  14
ATOM     13  C   UNL     1       8.028   5.644  19.222  0.00  0.00    +0.000 C 
ATOM     14  O   UNL     1       7.489   4.700  18.306  0.00  0.00    +0.000 OA
ENDBRANCH   1  14
BRANCH  11  15
ATOM     15  C   UNL     1       1.940   5.873  20.471  0.00  0.00    +0.000 C 
BRANCH  15  16
ATOM     16  C   UNL     1       1.074   6.918  21.185  0.00  0.00    +0.000 C 
BRANCH  16  17
ATOM     17  C   UNL     1       1.337   8.302  20.612  0.00  0.00    +0.000 C 
ATOM     18  O   UNL     1       1.728   8.452  19.453  0.00  0.00    +0.000 OA
ATOM     19  N   UNL     1       1.092   9.384  21.439  0.00  0.00    +0.000 N 
ATOM     20  C   UNL     1       0.639   9.337  22.832  0.00  0.00    +0.000 C 
ATOM     21  C   UNL     1      -0.759   9.959  22.956  0.00  0.00    +0.000 C 
ATOM     22  O   UNL     1      -0.793  11.284  22.398  0.00  0.00    +0.000 OA
ATOM     23  C   UNL     1      -0.398  11.274  21.014  0.00  0.00    +0.000 C 
ATOM     24  C   UNL     1       1.027  10.728  20.859  0.00  0.00    +0.000 C 
ENDBRANCH  16  17
ENDBRANCH  15  16
ENDBRANCH  11  15
TORSDOF 4
ENDMDL
MODEL 4
REMARK VINA RESULT:      -6.4      2.182      6.568
REMARK  Name = 
REMARK  6 active torsions:
REMARK  status: ('A' for Active; 'I' for Inactive)
REMARK    1  A    between atoms: C_1  and  O_2
REMARK    2  A    between atoms: O_2  and  C_3
REMARK    3  A    between atoms: C_10  and  C_11
REMARK    4  A    between atoms: N_13  and  C_14
REMARK    5  A    between atoms: C_14  and  C_15
REMARK    6  A    between atoms: C_15  and  C_16
REMARK                            x       y       z     vdW  Elec       q    Type
REMARK                         _______ _______ _______ _____ _____    ______ ____
ROOT
ATOM      1  C   UNL     1       1.597   6.353  20.596  0.00  0.00    +0.000 A 
ATOM      2  C   UNL     1       2.751   6.866  20.014  0.00  0.00    +0.000 A 
ATOM      3  C   UNL     1       3.782   6.012  19.633  0.00  0.00    +0.000 A 
ATOM      4  C   UNL     1       3.641   4.620  19.755  0.00  0.00    +0.000 A 
ATOM      5  C   UNL     1       2.470   4.116  20.327  0.00  0.00    +0.000 A 
ATOM      6  C   UNL     1       1.465   4.973  20.776  0.00  0.00    +0.000 A 
ATOM      7  O   UNL     1       2.267   2.771  20.500  0.00  0.00    +0.000 OA
ATOM      8  C   UNL     1       2.094   2.023  19.280  0.00  0.00    +0.000 C 
ATOM      9  C   UNL     1       0.877   2.467  18.462  0.00  0.00    +0.000 C 
ATOM     10  C   UNL     1       3.405   1.787  18.482  0.00  0.00    +0.000 C 
ATOM     11  N   UNL     1       4.233   2.925  18.028  0.00  0.00    +0.000 NA
ATOM     12  C   UNL     1       4.691   3.708  19.186  0.00  0.00    +0.000 C 
ENDROOT
BRANCH   1  14
ATOM     13  C   UNL     1       1.140   8.546  21.319  0.00  0.00    +0.000 C 
ATOM     14  O   UNL     1       0.642   7.283  20.899  0.00  0.00    +0.000 OA
ENDBRANCH   1  14
BRANCH  11  15
ATOM     15  C   UNL     1       3.576   3.709  16.964  0.00  0.00    +0.000 C 
BRANCH  15  16
ATOM     16  C   UNL     1       4.510   4.271  15.886  0.00  0.00    +0.000 C 
BRANCH  16  17
ATOM     17  C   UNL     1       5.028   5.640  16.297  0.00  0.00    +0.000 C 
ATOM     18  O   UNL     1       4.278   6.615  16.366  0.00  0.00    +0.000 OA
ATOM     19  N   UNL     1       6.371   5.736  16.616  0.00  0.00    +0.000 N 
ATOM     20  C   UNL     1       7.363   4.659  16.563  0.00  0.00    +0.000 C 
ATOM     21  C   UNL     1       7.883   4.347  17.973  0.00  0.00    +0.000 C 
ATOM     22  O   UNL     1       8.373   5.532  18.624  0.00  0.00    +0.000 OA
ATOM     23  C   UNL     1       7.349   6.540  18.707  0.00  0.00    +0.000 C 
ATOM     24  C   UNL     1       6.858   6.933  17.308  0.00  0.00    +0.000 C 
ENDBRANCH  16  17
ENDBRANCH  15  16
ENDBRANCH  11  15
TORSDOF 4
ENDMDL
MODEL 5
REMARK VINA RESULT:      -6.3      3.360      5.707
REMARK  Name = 
REMARK  6 active torsions:
REMARK  status: ('A' for Active; 'I' for Inactive)
REMARK    1  A    between atoms: C_1  and  O_2
REMARK    2  A    between atoms: O_2  and  C_3
REMARK    3  A    between atoms: C_10  and  C_11
REMARK    4  A    between atoms: N_13  and  C_14
REMARK    5  A    between atoms: C_14  and  C_15
REMARK    6  A    between atoms: C_15  and  C_16
REMARK                            x       y       z     vdW  Elec       q    Type
REMARK                         _______ _______ _______ _____ _____    ______ ____
ROOT
ATOM      1  C   UNL     1       6.087   4.559  18.311  0.00  0.00    +0.000 A 
ATOM      2  C   UNL     1       5.568   5.785  17.910  0.00  0.00    +0.000 A 
ATOM      3  C   UNL     1       4.195   5.943  17.740  0.00  0.00    +0.000 A 
ATOM      4  C   UNL     1       3.311   4.895  18.047  0.00  0.00    +0.000 A 
ATOM      5  C   UNL     1       3.845   3.673  18.464  0.00  0.00    +0.000 A 
ATOM      6  C   UNL     1       5.224   3.489  18.566  0.00  0.00    +0.000 A 
ATOM      7  O   UNL     1       3.048   2.596  18.760  0.00  0.00    +0.000 OA
ATOM      8  C   UNL     1       2.245   2.748  19.947  0.00  0.00    +0.000 C 
ATOM      9  C   UNL     1       3.072   2.944  21.222  0.00  0.00    +0.000 C 
ATOM     10  C   UNL     1       1.020   3.687  19.777  0.00  0.00    +0.000 C 
ATOM     11  N   UNL     1       1.194   5.090  19.344  0.00  0.00    +0.000 NA
ATOM     12  C   UNL     1       1.828   5.135  18.018  0.00  0.00    +0.000 C 
ENDROOT
BRANCH   1  14
ATOM     13  C   UNL     1       7.999   5.685  19.097  0.00  0.00    +0.000 C 
ATOM     14  O   UNL     1       7.444   4.534  18.475  0.00  0.00    +0.000 OA
ENDBRANCH   1  14
BRANCH  11  15
ATOM     15  C   UNL     1       1.847   5.919  20.377  0.00  0.00    +0.000 C 
BRANCH  15  16
ATOM     16  C   UNL     1       2.171   7.359  19.960  0.00  0.00    +0.000 C 
BRANCH  16  17
ATOM     17  C   UNL     1       1.308   8.340  20.737  0.00  0.00    +0.000 C 
ATOM     18  O   UNL     1       1.114   8.205  21.947  0.00  0.00    +0.000 OA
ATOM     19  N   UNL     1       0.773   9.405  20.034  0.00  0.00    +0.000 N 
ATOM     20  C   UNL     1       0.920   9.668  18.599  0.00  0.00    +0.000 C 
ATOM     21  C   UNL     1       1.707  10.967  18.377  0.00  0.00    +0.000 C 
ATOM     22  O   UNL     1       1.117  12.065  19.093  0.00  0.00    +0.000 OA
ATOM     23  C   UNL     1       1.047  11.787  20.504  0.00  0.00    +0.000 C 
ATOM     24  C   UNL     1       0.202  10.535  20.770  0.00  0.00    +0.000 C 
ENDBRANCH  16  17
ENDBRANCH  15  16
ENDBRANCH  11  15
TORSDOF 4
ENDMDL
MODEL 6
REMARK VINA RESULT:      -6.3      2.977      3.828
REMARK  Name = 
REMARK  6 active torsions:
REMARK  status: ('A' for Active; 'I' for Inactive)
REMARK    1  A    between atoms: C_1  and  O_2
REMARK    2  A    between atoms: O_2  and  C_3
REMARK    3  A    between atoms: C_10  and  C_11
REMARK    4  A    between atoms: N_13  and  C_14
REMARK    5  A    between atoms: C_14  and  C_15
REMARK    6  A    between atoms: C_15  and  C_16
REMARK                            x       y       z     vdW  Elec       q    Type
REMARK                         _______ _______ _______ _____ _____    ______ ____
ROOT
ATOM      1  C   UNL     1       6.991   5.000  15.100  0.00  0.00    +0.000 A 
ATOM      2  C   UNL     1       5.755   4.989  14.461  0.00  0.00    +0.000 A 
ATOM      3  C   UNL     1       4.635   4.477  15.110  0.00  0.00    +0.000 A 
ATOM      4  C   UNL     1       4.718   4.040  16.442  0.00  0.00    +0.000 A 
ATOM      5  C   UNL     1       5.961   4.070  17.078  0.00  0.00    +0.000 A 
ATOM      6  C   UNL     1       7.100   4.515  16.407  0.00  0.00    +0.000 A 
ATOM      7  O   UNL     1       6.128   3.640  18.370  0.00  0.00    +0.000 OA
ATOM      8  C   UNL     1       5.501   4.469  19.369  0.00  0.00    +0.000 C 
ATOM      9  C   UNL     1       6.041   5.903  19.396  0.00  0.00    +0.000 C 
ATOM     10  C   UNL     1       3.957   4.320  19.450  0.00  0.00    +0.000 C 
ATOM     11  N   UNL     1       3.107   4.571  18.267  0.00  0.00    +0.000 NA
ATOM     12  C   UNL     1       3.469   3.648  17.180  0.00  0.00    +0.000 C 
ENDROOT
BRANCH   1  14
ATOM     13  C   UNL     1       7.953   5.320  12.976  0.00  0.00    +0.000 C 
ATOM     14  O   UNL     1       8.009   5.555  14.376  0.00  0.00    +0.000 OA
ENDBRANCH   1  14
BRANCH  11  15
ATOM     15  C   UNL     1       3.077   5.998  17.890  0.00  0.00    +0.000 C 
BRANCH  15  16
ATOM     16  C   UNL     1       2.542   6.953  18.964  0.00  0.00    +0.000 C 
BRANCH  16  17
ATOM     17  C   UNL     1       2.205   8.302  18.350  0.00  0.00    +0.000 C 
ATOM     18  O   UNL     1       2.429   8.539  17.161  0.00  0.00    +0.000 OA
ATOM     19  N   UNL     1       1.613   9.241  19.176  0.00  0.00    +0.000 N 
ATOM     20  C   UNL     1       1.308   9.085  20.601  0.00  0.00    +0.000 C 
ATOM     21  C   UNL     1      -0.210   9.121  20.825  0.00  0.00    +0.000 C 
ATOM     22  O   UNL     1      -0.796  10.302  20.251  0.00  0.00    +0.000 OA
ATOM     23  C   UNL     1      -0.522  10.384  18.840  0.00  0.00    +0.000 C 
ATOM     24  C   UNL     1       0.990  10.426  18.581  0.00  0.00    +0.000 C 
ENDBRANCH  16  17
ENDBRANCH  15  16
ENDBRANCH  11  15
TORSDOF 4
ENDMDL
MODEL 7
REMARK VINA RESULT:      -6.3      2.562      3.583
REMARK  Name = 
REMARK  6 active torsions:
REMARK  status: ('A' for Active; 'I' for Inactive)
REMARK    1  A    between atoms: C_1  and  O_2
REMARK    2  A    between atoms: O_2  and  C_3
REMARK    3  A    between atoms: C_10  and  C_11
REMARK    4  A    between atoms: N_13  and  C_14
REMARK    5  A    between atoms: C_14  and  C_15
REMARK    6  A    between atoms: C_15  and  C_16
REMARK                            x       y       z     vdW  Elec       q    Type
REMARK                         _______ _______ _______ _____ _____    ______ ____
ROOT
ATOM      1  C   UNL     1       6.643   4.608  14.389  0.00  0.00    +0.000 A 
ATOM      2  C   UNL     1       5.269   4.436  14.517  0.00  0.00    +0.000 A 
ATOM      3  C   UNL     1       4.705   4.212  15.769  0.00  0.00    +0.000 A 
ATOM      4  C   UNL     1       5.500   4.236  16.927  0.00  0.00    +0.000 A 
ATOM      5  C   UNL     1       6.877   4.425  16.787  0.00  0.00    +0.000 A 
ATOM      6  C   UNL     1       7.455   4.578  15.526  0.00  0.00    +0.000 A 
ATOM      7  O   UNL     1       7.722   4.440  17.867  0.00  0.00    +0.000 OA
ATOM      8  C   UNL     1       7.568   5.576  18.740  0.00  0.00    +0.000 C 
ATOM      9  C   UNL     1       7.846   6.916  18.050  0.00  0.00    +0.000 C 
ATOM     10  C   UNL     1       6.308   5.523  19.646  0.00  0.00    +0.000 C 
ATOM     11  N   UNL     1       4.956   5.403  19.060  0.00  0.00    +0.000 NA
ATOM     12  C   UNL     1       4.853   4.159  18.281  0.00  0.00    +0.000 C 
ENDROOT
BRANCH   1  14
ATOM     13  C   UNL     1       6.802   3.824  12.175  0.00  0.00    +0.000 C 
ATOM     14  O   UNL     1       7.077   4.853  13.116  0.00  0.00    +0.000 OA
ENDBRANCH   1  14
BRANCH  11  15
ATOM     15  C   UNL     1       4.545   6.625  18.342  0.00  0.00    +0.000 C 
BRANCH  15  16
ATOM     16  C   UNL     1       3.056   6.711  17.986  0.00  0.00    +0.000 C 
BRANCH  16  17
ATOM     17  C   UNL     1       2.251   7.179  19.188  0.00  0.00    +0.000 C 
ATOM     18  O   UNL     1       2.290   6.573  20.260  0.00  0.00    +0.000 OA
ATOM     19  N   UNL     1       1.497   8.329  19.034  0.00  0.00    +0.000 N 
ATOM     20  C   UNL     1       1.359   9.129  17.813  0.00  0.00    +0.000 C 
ATOM     21  C   UNL     1       1.961  10.524  18.024  0.00  0.00    +0.000 C 
ATOM     22  O   UNL     1       1.401  11.166  19.183  0.00  0.00    +0.000 OA
ATOM     23  C   UNL     1       1.611  10.374  20.367  0.00  0.00    +0.000 C 
ATOM     24  C   UNL     1       0.956   8.995  20.222  0.00  0.00    +0.000 C 
ENDBRANCH  16  17
ENDBRANCH  15  16
ENDBRANCH  11  15
TORSDOF 4
ENDMDL
MODEL 8
REMARK VINA RESULT:      -6.2      1.194      1.548
REMARK  Name = 
REMARK  6 active torsions:
REMARK  status: ('A' for Active; 'I' for Inactive)
REMARK    1  A    between atoms: C_1  and  O_2
REMARK    2  A    between atoms: O_2  and  C_3
REMARK    3  A    between atoms: C_10  and  C_11
REMARK    4  A    between atoms: N_13  and  C_14
REMARK    5  A    between atoms: C_14  and  C_15
REMARK    6  A    between atoms: C_15  and  C_16
REMARK                            x       y       z     vdW  Elec       q    Type
REMARK                         _______ _______ _______ _____ _____    ______ ____
ROOT
ATOM      1  C   UNL     1       6.879   4.690  14.101  0.00  0.00    +0.000 A 
ATOM      2  C   UNL     1       5.593   4.202  14.307  0.00  0.00    +0.000 A 
ATOM      3  C   UNL     1       5.147   3.924  15.596  0.00  0.00    +0.000 A 
ATOM      4  C   UNL     1       5.956   4.206  16.709  0.00  0.00    +0.000 A 
ATOM      5  C   UNL     1       7.240   4.710  16.490  0.00  0.00    +0.000 A 
ATOM      6  C   UNL     1       7.716   4.922  15.196  0.00  0.00    +0.000 A 
ATOM      7  O   UNL     1       8.097   4.990  17.524  0.00  0.00    +0.000 OA
ATOM      8  C   UNL     1       7.707   6.106  18.347  0.00  0.00    +0.000 C 
ATOM      9  C   UNL     1       7.626   7.430  17.580  0.00  0.00    +0.000 C 
ATOM     10  C   UNL     1       6.532   5.807  19.318  0.00  0.00    +0.000 C 
ATOM     11  N   UNL     1       5.228   5.332  18.808  0.00  0.00    +0.000 NA
ATOM     12  C   UNL     1       5.398   4.056  18.096  0.00  0.00    +0.000 C 
ENDROOT
BRANCH   1  14
ATOM     13  C   UNL     1       6.933   3.897  11.885  0.00  0.00    +0.000 C 
ATOM     14  O   UNL     1       7.192   4.956  12.797  0.00  0.00    +0.000 OA
ENDBRANCH   1  14
BRANCH  11  15
ATOM     15  C   UNL     1       4.507   6.377  18.054  0.00  0.00    +0.000 C 
BRANCH  15  16
ATOM     16  C   UNL     1       2.979   6.243  18.038  0.00  0.00    +0.000 C 
BRANCH  16  17
ATOM     17  C   UNL     1       2.471   5.828  19.410  0.00  0.00    +0.000 C 
ATOM     18  O   UNL     1       2.186   6.666  20.268  0.00  0.00    +0.000 OA
ATOM     19  N   UNL     1       2.318   4.473  19.643  0.00  0.00    +0.000 N 
ATOM     20  C   UNL     1       2.631   3.384  18.713  0.00  0.00    +0.000 C 
ATOM     21  C   UNL     1       1.349   2.637  18.321  0.00  0.00    +0.000 C 
ATOM     22  O   UNL     1       0.625   2.195  19.482  0.00  0.00    +0.000 OA
ATOM     23  C   UNL     1       0.287   3.303  20.336  0.00  0.00    +0.000 C 
ATOM     24  C   UNL     1       1.551   4.030  20.810  0.00  0.00    +0.000 C 
ENDBRANCH  16  17
ENDBRANCH  15  16
ENDBRANCH  11  15
TORSDOF 4
ENDMDL
MODEL 9
REMARK VINA RESULT:      -6.1      8.836     11.864
REMARK  Name = 
REMARK  6 active torsions:
REMARK  status: ('A' for Active; 'I' for Inactive)
REMARK    1  A    between atoms: C_1  and  O_2
REMARK    2  A    between atoms: O_2  and  C_3
REMARK    3  A    between atoms: C_10  and  C_11
REMARK    4  A    between atoms: N_13  and  C_14
REMARK    5  A    between atoms: C_14  and  C_15
REMARK    6  A    between atoms: C_15  and  C_16
REMARK                            x       y       z     vdW  Elec       q    Type
REMARK                         _______ _______ _______ _____ _____    ______ ____
ROOT
ATOM      1  C   UNL     1      -2.883  12.126  23.116  0.00  0.00    +0.000 A 
ATOM      2  C   UNL     1      -3.552  12.812  22.108  0.00  0.00    +0.000 A 
ATOM      3  C   UNL     1      -2.876  13.194  20.952  0.00  0.00    +0.000 A 
ATOM      4  C   UNL     1      -1.536  12.823  20.752  0.00  0.00    +0.000 A 
ATOM      5  C   UNL     1      -0.880  12.120  21.765  0.00  0.00    +0.000 A 
ATOM      6  C   UNL     1      -1.533  11.799  22.955  0.00  0.00    +0.000 A 
ATOM      7  O   UNL     1       0.434  11.742  21.653  0.00  0.00    +0.000 OA
ATOM      8  C   UNL     1       0.688  10.723  20.665  0.00  0.00    +0.000 C 
ATOM      9  C   UNL     1      -0.042   9.406  20.947  0.00  0.00    +0.000 C 
ATOM     10  C   UNL     1       0.642  11.229  19.197  0.00  0.00    +0.000 C 
ATOM     11  N   UNL     1      -0.568  11.884  18.657  0.00  0.00    +0.000 NA
ATOM     12  C   UNL     1      -0.874  13.097  19.431  0.00  0.00    +0.000 C 
ENDROOT
BRANCH   1  14
ATOM     13  C   UNL     1      -4.779  12.617  24.422  0.00  0.00    +0.000 C 
ATOM     14  O   UNL     1      -3.656  11.777  24.187  0.00  0.00    +0.000 OA
ENDBRANCH   1  14
BRANCH  11  15
ATOM     15  C   UNL     1      -1.695  10.942  18.502  0.00  0.00    +0.000 C 
BRANCH  15  16
ATOM     16  C   UNL     1      -2.891  11.469  17.701  0.00  0.00    +0.000 C 
BRANCH  16  17
ATOM     17  C   UNL     1      -4.091  10.553  17.878  0.00  0.00    +0.000 C 
ATOM     18  O   UNL     1      -3.958   9.329  17.945  0.00  0.00    +0.000 OA
ATOM     19  N   UNL     1      -5.333  11.153  17.986  0.00  0.00    +0.000 N 
ATOM     20  C   UNL     1      -5.621  12.588  17.910  0.00  0.00    +0.000 C 
ATOM     21  C   UNL     1      -6.161  13.092  19.255  0.00  0.00    +0.000 C 
ATOM     22  O   UNL     1      -7.288  12.314  19.692  0.00  0.00    +0.000 OA
ATOM     23  C   UNL     1      -6.943  10.921  19.810  0.00  0.00    +0.000 C 
ATOM     24  C   UNL     1      -6.470  10.362  18.462  0.00  0.00    +0.000 C 
ENDBRANCH  16  17
ENDBRANCH  15  16
ENDBRANCH  11  15
TORSDOF 4
ENDMDL
