MODEL 1
REMARK VINA RESULT:      -9.8      0.000      0.000
REMARK  Name = 
REMARK  10 active torsions:
REMARK  status: ('A' for Active; 'I' for Inactive)
REMARK    1  A    between atoms: C_2  and  O_3
REMARK    2  A    between atoms: C_2  and  C_4
REMARK    3  A    between atoms: C_8  and  C_9
REMARK    4  A    between atoms: C_9  and  O_10
REMARK    5  A    between atoms: O_10  and  C_11
REMARK    6  A    between atoms: C_15  and  C_16
REMARK    7  A    between atoms: N_22  and  C_23
REMARK    8  A    between atoms: C_23  and  C_24
REMARK    9  A    between atoms: C_28  and  C_29
REMARK   10  A    between atoms: C_29  and  O_31
REMARK                            x       y       z     vdW  Elec       q    Type
REMARK                         _______ _______ _______ _____ _____    ______ ____
ROOT
ATOM      1  C   UNL     1       0.843   9.021  20.675  0.00  0.00    +0.000 A 
ATOM      2  C   UNL     1       0.799   8.649  22.028  0.00  0.00    +0.000 A 
ATOM      3  C   UNL     1       0.059   9.371  22.977  0.00  0.00    +0.000 A 
ATOM      4  C   UNL     1      -0.682  10.492  22.567  0.00  0.00    +0.000 A 
ATOM      5  C   UNL     1      -1.531  11.417  23.230  0.00  0.00    +0.000 A 
ATOM      6  C   UNL     1      -1.992  12.315  22.292  0.00  0.00    +0.000 A 
ATOM      7  N   UNL     1      -1.454  11.969  21.078  0.00  0.00    +0.000 N 
ATOM      8  C   UNL     1      -0.639  10.866  21.224  0.00  0.00    +0.000 A 
ATOM      9  C   UNL     1       0.121  10.163  20.280  0.00  0.00    +0.000 A 
ENDROOT
BRANCH   1  14
ATOM     10  C   UNL     1       2.718   6.166  18.999  0.00  0.00    +0.000 A 
ATOM     11  C   UNL     1       3.090   6.751  17.789  0.00  0.00    +0.000 A 
ATOM     12  C   UNL     1       2.690   8.052  17.495  0.00  0.00    +0.000 A 
ATOM     13  C   UNL     1       1.943   8.781  18.421  0.00  0.00    +0.000 A 
ATOM     14  C   UNL     1       1.611   8.243  19.676  0.00  0.00    +0.000 A 
ATOM     15  C   UNL     1       2.026   6.924  19.942  0.00  0.00    +0.000 A 
BRANCH  10  16
ATOM     16  O   UNL     1       2.973   4.868  19.357  0.00  0.00    +0.000 OA
BRANCH  16  17
ATOM     17  C   UNL     1       3.383   4.021  18.285  0.00  0.00    +0.000 C 
BRANCH  17  22
ATOM     18  C   UNL     1       7.023   5.142  18.509  0.00  0.00    +0.000 A 
ATOM     19  C   UNL     1       7.477   4.872  17.211  0.00  0.00    +0.000 A 
ATOM     20  C   UNL     1       6.600   4.342  16.267  0.00  0.00    +0.000 A 
ATOM     21  C   UNL     1       5.279   4.064  16.619  0.00  0.00    +0.000 A 
ATOM     22  C   UNL     1       4.819   4.309  17.922  0.00  0.00    +0.000 A 
ATOM     23  C   UNL     1       5.703   4.842  18.868  0.00  0.00    +0.000 A 
BRANCH  18  25
ATOM     24  O   UNL     1       8.123   5.190  20.619  0.00  0.00    +0.000 OA
ATOM     25  C   UNL     1       7.917   5.719  19.541  0.00  0.00    +0.000 C 
BRANCH  25  26
ATOM     26  O   UNL     1       8.438   6.915  19.190  0.00  0.00    +0.000 OA
ATOM     27  H   UNL     1       7.840   7.485  18.675  0.00  0.00    +0.000 HD
ENDBRANCH  25  26
ENDBRANCH  18  25
ENDBRANCH  17  22
ENDBRANCH  16  17
ENDBRANCH  10  16
ENDBRANCH   1  14
BRANCH   7  28
ATOM     28  C   UNL     1      -1.668  12.697  19.826  0.00  0.00    +0.000 C 
BRANCH  28  29
ATOM     29  C   UNL     1      -2.584  12.010  18.833  0.00  0.00    +0.000 A 
ATOM     30  C   UNL     1      -2.018  11.533  17.635  0.00  0.00    +0.000 A 
ATOM     31  C   UNL     1      -2.811  10.963  16.638  0.00  0.00    +0.000 A 
ATOM     32  C   UNL     1      -4.186  10.848  16.822  0.00  0.00    +0.000 A 
ATOM     33  C   UNL     1      -4.770  11.292  18.013  0.00  0.00    +0.000 A 
ATOM     34  C   UNL     1      -3.974  11.886  19.005  0.00  0.00    +0.000 A 
BRANCH  33  35
ATOM     35  C   UNL     1      -6.245  11.173  18.153  0.00  0.00    +0.000 C 
ATOM     36  O   UNL     1      -7.018  12.009  17.719  0.00  0.00    +0.000 OA
BRANCH  35  37
ATOM     37  O   UNL     1      -6.651  10.046  18.775  0.00  0.00    +0.000 OA
ATOM     38  H   UNL     1      -7.604   9.998  18.978  0.00  0.00    +0.000 HD
ENDBRANCH  35  37
ENDBRANCH  33  35
ENDBRANCH  28  29
ENDBRANCH   7  28
TORSDOF 10
ENDMDL
MODEL 2
REMARK VINA RESULT:      -9.5      3.508     10.700
REMARK  Name = 
REMARK  10 active torsions:
REMARK  status: ('A' for Active; 'I' for Inactive)
REMARK    1  A    between atoms: C_2  and  O_3
REMARK    2  A    between atoms: C_2  and  C_4
REMARK    3  A    between atoms: C_8  and  C_9
REMARK    4  A    between atoms: C_9  and  O_10
REMARK    5  A    between atoms: O_10  and  C_11
REMARK    6  A    between atoms: C_15  and  C_16
REMARK    7  A    between atoms: N_22  and  C_23
REMARK    8  A    between atoms: C_23  and  C_24
REMARK    9  A    between atoms: C_28  and  C_29
REMARK   10  A    between atoms: C_29  and  O_31
REMARK                            x       y       z     vdW  Elec       q    Type
REMARK                         _______ _______ _______ _____ _____    ______ ____
ROOT
ATOM      1  C   UNL     1       2.001   6.295  19.972  0.00  0.00    +0.000 A 
ATOM      2  C   UNL     1       1.912   5.569  21.170  0.00  0.00    +0.000 A 
ATOM      3  C   UNL     1       2.257   4.210  21.246  0.00  0.00    +0.000 A 
ATOM      4  C   UNL     1       2.728   3.553  20.098  0.00  0.00    +0.000 A 
ATOM      5  C   UNL     1       3.170   2.232  19.821  0.00  0.00    +0.000 A 
ATOM      6  C   UNL     1       3.525   2.175  18.491  0.00  0.00    +0.000 A 
ATOM      7  N   UNL     1       3.315   3.416  17.945  0.00  0.00    +0.000 N 
ATOM      8  C   UNL     1       2.815   4.271  18.905  0.00  0.00    +0.000 A 
ATOM      9  C   UNL     1       2.444   5.620  18.821  0.00  0.00    +0.000 A 
ENDROOT
BRANCH   1  14
ATOM     10  C   UNL     1       0.980   9.808  21.018  0.00  0.00    +0.000 A 
ATOM     11  C   UNL     1       0.969  10.471  19.791  0.00  0.00    +0.000 A 
ATOM     12  C   UNL     1       1.341   9.793  18.633  0.00  0.00    +0.000 A 
ATOM     13  C   UNL     1       1.696   8.446  18.695  0.00  0.00    +0.000 A 
ATOM     14  C   UNL     1       1.651   7.733  19.904  0.00  0.00    +0.000 A 
ATOM     15  C   UNL     1       1.276   8.447  21.059  0.00  0.00    +0.000 A 
BRANCH  10  16
ATOM     16  O   UNL     1       0.725  10.394  22.231  0.00  0.00    +0.000 OA
BRANCH  16  17
ATOM     17  C   UNL     1      -0.621  10.266  22.686  0.00  0.00    +0.000 C 
BRANCH  17  22
ATOM     18  C   UNL     1      -3.107  13.050  23.479  0.00  0.00    +0.000 A 
ATOM     19  C   UNL     1      -2.423  14.177  23.004  0.00  0.00    +0.000 A 
ATOM     20  C   UNL     1      -1.167  14.028  22.417  0.00  0.00    +0.000 A 
ATOM     21  C   UNL     1      -0.586  12.764  22.321  0.00  0.00    +0.000 A 
ATOM     22  C   UNL     1      -1.252  11.631  22.813  0.00  0.00    +0.000 A 
ATOM     23  C   UNL     1      -2.514  11.784  23.401  0.00  0.00    +0.000 A 
BRANCH  18  25
ATOM     24  O   UNL     1      -5.279  12.268  24.057  0.00  0.00    +0.000 OA
ATOM     25  C   UNL     1      -4.450  13.159  24.097  0.00  0.00    +0.000 C 
BRANCH  25  26
ATOM     26  O   UNL     1      -4.683  14.365  24.661  0.00  0.00    +0.000 OA
ATOM     27  H   UNL     1      -3.943  14.995  24.598  0.00  0.00    +0.000 HD
ENDBRANCH  25  26
ENDBRANCH  18  25
ENDBRANCH  17  22
ENDBRANCH  16  17
ENDBRANCH  10  16
ENDBRANCH   1  14
BRANCH   7  28
ATOM     28  C   UNL     1       3.535   3.765  16.541  0.00  0.00    +0.000 C 
BRANCH  28  29
ATOM     29  C   UNL     1       4.880   4.396  16.239  0.00  0.00    +0.000 A 
ATOM     30  C   UNL     1       5.545   3.998  15.064  0.00  0.00    +0.000 A 
ATOM     31  C   UNL     1       6.822   4.474  14.759  0.00  0.00    +0.000 A 
ATOM     32  C   UNL     1       7.455   5.368  15.619  0.00  0.00    +0.000 A 
ATOM     33  C   UNL     1       6.805   5.799  16.780  0.00  0.00    +0.000 A 
ATOM     34  C   UNL     1       5.531   5.301  17.096  0.00  0.00    +0.000 A 
BRANCH  33  35
ATOM     35  C   UNL     1       7.531   6.733  17.680  0.00  0.00    +0.000 C 
ATOM     36  O   UNL     1       7.894   6.420  18.801  0.00  0.00    +0.000 OA
BRANCH  35  37
ATOM     37  O   UNL     1       7.778   7.943  17.137  0.00  0.00    +0.000 OA
ATOM     38  H   UNL     1       7.769   8.694  17.759  0.00  0.00    +0.000 HD
ENDBRANCH  35  37
ENDBRANCH  33  35
ENDBRANCH  28  29
ENDBRANCH   7  28
TORSDOF 10
ENDMDL
MODEL 3
REMARK VINA RESULT:      -9.3      1.136      1.585
REMARK  Name = 
REMARK  10 active torsions:
REMARK  status: ('A' for Active; 'I' for Inactive)
REMARK    1  A    between atoms: C_2  and  O_3
REMARK    2  A    between atoms: C_2  and  C_4
REMARK    3  A    between atoms: C_8  and  C_9
REMARK    4  A    between atoms: C_9  and  O_10
REMARK    5  A    between atoms: O_10  and  C_11
REMARK    6  A    between atoms: C_15  and  C_16
REMARK    7  A    between atoms: N_22  and  C_23
REMARK    8  A    between atoms: C_23  and  C_24
REMARK    9  A    between atoms: C_28  and  C_29
REMARK   10  A    between atoms: C_29  and  O_31
REMARK                            x       y       z     vdW  Elec       q    Type
REMARK                         _______ _______ _______ _____ _____    ______ ____
ROOT
ATOM      1  C   UNL     1       0.417   9.457  21.117  0.00  0.00    +0.000 A 
ATOM      2  C   UNL     1       0.359   9.203  22.496  0.00  0.00    +0.000 A 
ATOM      3  C   UNL     1      -0.385  10.009  23.373  0.00  0.00    +0.000 A 
ATOM      4  C   UNL     1      -1.116  11.094  22.860  0.00  0.00    +0.000 A 
ATOM      5  C   UNL     1      -1.965  12.078  23.432  0.00  0.00    +0.000 A 
ATOM      6  C   UNL     1      -2.412  12.893  22.415  0.00  0.00    +0.000 A 
ATOM      7  N   UNL     1      -1.865  12.441  21.241  0.00  0.00    +0.000 N 
ATOM      8  C   UNL     1      -1.058  11.350  21.490  0.00  0.00    +0.000 A 
ATOM      9  C   UNL     1      -0.294  10.563  20.617  0.00  0.00    +0.000 A 
ENDROOT
BRANCH   1  14
ATOM     10  C   UNL     1       2.129   6.401  19.630  0.00  0.00    +0.000 A 
ATOM     11  C   UNL     1       2.673   6.930  18.460  0.00  0.00    +0.000 A 
ATOM     12  C   UNL     1       2.442   8.263  18.127  0.00  0.00    +0.000 A 
ATOM     13  C   UNL     1       1.692   9.076  18.977  0.00  0.00    +0.000 A 
ATOM     14  C   UNL     1       1.189   8.591  20.196  0.00  0.00    +0.000 A 
ATOM     15  C   UNL     1       1.436   7.238  20.503  0.00  0.00    +0.000 A 
BRANCH  10  16
ATOM     16  O   UNL     1       2.211   5.088  20.012  0.00  0.00    +0.000 OA
BRANCH  16  17
ATOM     17  C   UNL     1       3.539   4.591  20.169  0.00  0.00    +0.000 C 
BRANCH  17  22
ATOM     18  C   UNL     1       5.937   4.462  17.204  0.00  0.00    +0.000 A 
ATOM     19  C   UNL     1       5.200   3.706  16.284  0.00  0.00    +0.000 A 
ATOM     20  C   UNL     1       3.925   3.253  16.622  0.00  0.00    +0.000 A 
ATOM     21  C   UNL     1       3.394   3.537  17.880  0.00  0.00    +0.000 A 
ATOM     22  C   UNL     1       4.132   4.275  18.818  0.00  0.00    +0.000 A 
ATOM     23  C   UNL     1       5.412   4.728  18.475  0.00  0.00    +0.000 A 
BRANCH  18  25
ATOM     24  O   UNL     1       7.485   6.039  16.323  0.00  0.00    +0.000 OA
ATOM     25  C   UNL     1       7.290   4.975  16.882  0.00  0.00    +0.000 C 
BRANCH  25  26
ATOM     26  O   UNL     1       8.281   4.121  17.220  0.00  0.00    +0.000 OA
ATOM     27  H   UNL     1       8.186   3.714  18.099  0.00  0.00    +0.000 HD
ENDBRANCH  25  26
ENDBRANCH  18  25
ENDBRANCH  17  22
ENDBRANCH  16  17
ENDBRANCH  10  16
ENDBRANCH   1  14
BRANCH   7  28
ATOM     28  C   UNL     1      -2.063  13.058  19.929  0.00  0.00    +0.000 C 
BRANCH  28  29
ATOM     29  C   UNL     1      -2.864  12.230  18.944  0.00  0.00    +0.000 A 
ATOM     30  C   UNL     1      -2.188  11.689  17.834  0.00  0.00    +0.000 A 
ATOM     31  C   UNL     1      -2.873  10.985  16.842  0.00  0.00    +0.000 A 
ATOM     32  C   UNL     1      -4.249  10.797  16.946  0.00  0.00    +0.000 A 
ATOM     33  C   UNL     1      -4.941  11.303  18.052  0.00  0.00    +0.000 A 
ATOM     34  C   UNL     1      -4.253  12.031  19.036  0.00  0.00    +0.000 A 
BRANCH  33  35
ATOM     35  C   UNL     1      -6.412  11.100  18.105  0.00  0.00    +0.000 C 
ATOM     36  O   UNL     1      -6.931  10.200  18.743  0.00  0.00    +0.000 OA
BRANCH  35  37
ATOM     37  O   UNL     1      -7.121  12.014  17.411  0.00  0.00    +0.000 OA
ATOM     38  H   UNL     1      -6.596  12.624  16.860  0.00  0.00    +0.000 HD
ENDBRANCH  35  37
ENDBRANCH  33  35
ENDBRANCH  28  29
ENDBRANCH   7  28
TORSDOF 10
ENDMDL
MODEL 4
REMARK VINA RESULT:      -9.2      1.818      2.406
REMARK  Name = 
REMARK  10 active torsions:
REMARK  status: ('A' for Active; 'I' for Inactive)
REMARK    1  A    between atoms: C_2  and  O_3
REMARK    2  A    between atoms: C_2  and  C_4
REMARK    3  A    between atoms: C_8  and  C_9
REMARK    4  A    between atoms: C_9  and  O_10
REMARK    5  A    between atoms: O_10  and  C_11
REMARK    6  A    between atoms: C_15  and  C_16
REMARK    7  A    between atoms: N_22  and  C_23
REMARK    8  A    between atoms: C_23  and  C_24
REMARK    9  A    between atoms: C_28  and  C_29
REMARK   10  A    between atoms: C_29  and  O_31
REMARK                            x       y       z     vdW  Elec       q    Type
REMARK                         _______ _______ _______ _____ _____    ______ ____
ROOT
ATOM      1  C   UNL     1       0.970   9.030  20.577  0.00  0.00    +0.000 A 
ATOM      2  C   UNL     1       0.915   8.557  21.898  0.00  0.00    +0.000 A 
ATOM      3  C   UNL     1       0.155   9.198  22.889  0.00  0.00    +0.000 A 
ATOM      4  C   UNL     1      -0.596  10.336  22.554  0.00  0.00    +0.000 A 
ATOM      5  C   UNL     1      -1.463  11.200  23.274  0.00  0.00    +0.000 A 
ATOM      6  C   UNL     1      -1.925  12.160  22.399  0.00  0.00    +0.000 A 
ATOM      7  N   UNL     1      -1.368  11.912  21.170  0.00  0.00    +0.000 N 
ATOM      8  C   UNL     1      -0.541  10.811  21.244  0.00  0.00    +0.000 A 
ATOM      9  C   UNL     1       0.239  10.189  20.259  0.00  0.00    +0.000 A 
ENDROOT
BRANCH   1  14
ATOM     10  C   UNL     1       2.759   6.290  18.636  0.00  0.00    +0.000 A 
ATOM     11  C   UNL     1       3.277   7.007  17.557  0.00  0.00    +0.000 A 
ATOM     12  C   UNL     1       3.004   8.366  17.433  0.00  0.00    +0.000 A 
ATOM     13  C   UNL     1       2.239   9.018  18.400  0.00  0.00    +0.000 A 
ATOM     14  C   UNL     1       1.760   8.338  19.532  0.00  0.00    +0.000 A 
ATOM     15  C   UNL     1       2.048   6.963  19.628  0.00  0.00    +0.000 A 
BRANCH  10  16
ATOM     16  O   UNL     1       2.882   4.936  18.813  0.00  0.00    +0.000 OA
BRANCH  16  17
ATOM     17  C   UNL     1       4.028   4.532  19.561  0.00  0.00    +0.000 C 
BRANCH  17  22
ATOM     18  C   UNL     1       6.627   4.901  16.792  0.00  0.00    +0.000 A 
ATOM     19  C   UNL     1       7.653   5.579  17.463  0.00  0.00    +0.000 A 
ATOM     20  C   UNL     1       7.504   5.901  18.811  0.00  0.00    +0.000 A 
ATOM     21  C   UNL     1       6.330   5.566  19.484  0.00  0.00    +0.000 A 
ATOM     22  C   UNL     1       5.286   4.906  18.817  0.00  0.00    +0.000 A 
ATOM     23  C   UNL     1       5.439   4.583  17.462  0.00  0.00    +0.000 A 
BRANCH  18  25
ATOM     24  O   UNL     1       6.198   3.553  14.878  0.00  0.00    +0.000 OA
ATOM     25  C   UNL     1       6.748   4.526  15.363  0.00  0.00    +0.000 C 
BRANCH  25  26
ATOM     26  O   UNL     1       7.572   5.337  14.665  0.00  0.00    +0.000 OA
ATOM     27  H   UNL     1       7.990   4.924  13.888  0.00  0.00    +0.000 HD
ENDBRANCH  25  26
ENDBRANCH  18  25
ENDBRANCH  17  22
ENDBRANCH  16  17
ENDBRANCH  10  16
ENDBRANCH   1  14
BRANCH   7  28
ATOM     28  C   UNL     1      -1.577  12.729  19.974  0.00  0.00    +0.000 C 
BRANCH  28  29
ATOM     29  C   UNL     1      -2.638  12.215  19.022  0.00  0.00    +0.000 A 
ATOM     30  C   UNL     1      -3.978  12.239  19.453  0.00  0.00    +0.000 A 
ATOM     31  C   UNL     1      -5.002  11.709  18.665  0.00  0.00    +0.000 A 
ATOM     32  C   UNL     1      -4.707  11.153  17.423  0.00  0.00    +0.000 A 
ATOM     33  C   UNL     1      -3.387  11.139  16.960  0.00  0.00    +0.000 A 
ATOM     34  C   UNL     1      -2.357  11.651  17.764  0.00  0.00    +0.000 A 
BRANCH  33  35
ATOM     35  C   UNL     1      -3.118  10.510  15.640  0.00  0.00    +0.000 C 
ATOM     36  O   UNL     1      -3.447  11.026  14.586  0.00  0.00    +0.000 OA
BRANCH  35  37
ATOM     37  O   UNL     1      -2.454   9.338  15.711  0.00  0.00    +0.000 OA
ATOM     38  H   UNL     1      -1.484   9.407  15.774  0.00  0.00    +0.000 HD
ENDBRANCH  35  37
ENDBRANCH  33  35
ENDBRANCH  28  29
ENDBRANCH   7  28
TORSDOF 10
ENDMDL
MODEL 5
REMARK VINA RESULT:      -9.2      2.510      3.707
REMARK  Name = 
REMARK  10 active torsions:
REMARK  status: ('A' for Active; 'I' for Inactive)
REMARK    1  A    between atoms: C_2  and  O_3
REMARK    2  A    between atoms: C_2  and  C_4
REMARK    3  A    between atoms: C_8  and  C_9
REMARK    4  A    between atoms: C_9  and  O_10
REMARK    5  A    between atoms: O_10  and  C_11
REMARK    6  A    between atoms: C_15  and  C_16
REMARK    7  A    between atoms: N_22  and  C_23
REMARK    8  A    between atoms: C_23  and  C_24
REMARK    9  A    between atoms: C_28  and  C_29
REMARK   10  A    between atoms: C_29  and  O_31
REMARK                            x       y       z     vdW  Elec       q    Type
REMARK                         _______ _______ _______ _____ _____    ______ ____
ROOT
ATOM      1  C   UNL     1       1.742   8.696  19.090  0.00  0.00    +0.000 A 
ATOM      2  C   UNL     1       2.256   9.307  17.936  0.00  0.00    +0.000 A 
ATOM      3  C   UNL     1       2.150  10.690  17.714  0.00  0.00    +0.000 A 
ATOM      4  C   UNL     1       1.531  11.498  18.680  0.00  0.00    +0.000 A 
ATOM      5  C   UNL     1       1.271  12.890  18.792  0.00  0.00    +0.000 A 
ATOM      6  C   UNL     1       0.627  13.105  19.990  0.00  0.00    +0.000 A 
ATOM      7  N   UNL     1       0.483  11.892  20.615  0.00  0.00    +0.000 N 
ATOM      8  C   UNL     1       1.016  10.894  19.827  0.00  0.00    +0.000 A 
ATOM      9  C   UNL     1       1.096   9.510  20.038  0.00  0.00    +0.000 A 
ENDROOT
BRANCH   1  14
ATOM     10  C   UNL     1       2.391   4.994  18.497  0.00  0.00    +0.000 A 
ATOM     11  C   UNL     1       2.114   4.458  19.755  0.00  0.00    +0.000 A 
ATOM     12  C   UNL     1       1.767   5.302  20.807  0.00  0.00    +0.000 A 
ATOM     13  C   UNL     1       1.667   6.678  20.597  0.00  0.00    +0.000 A 
ATOM     14  C   UNL     1       1.873   7.239  19.326  0.00  0.00    +0.000 A 
ATOM     15  C   UNL     1       2.227   6.361  18.283  0.00  0.00    +0.000 A 
BRANCH  10  16
ATOM     16  O   UNL     1       2.830   4.276  17.415  0.00  0.00    +0.000 OA
BRANCH  16  17
ATOM     17  C   UNL     1       4.017   3.517  17.642  0.00  0.00    +0.000 C 
BRANCH  17  22
ATOM     18  C   UNL     1       6.924   5.907  17.015  0.00  0.00    +0.000 A 
ATOM     19  C   UNL     1       7.364   5.483  15.754  0.00  0.00    +0.000 A 
ATOM     20  C   UNL     1       6.710   4.436  15.108  0.00  0.00    +0.000 A 
ATOM     21  C   UNL     1       5.632   3.800  15.723  0.00  0.00    +0.000 A 
ATOM     22  C   UNL     1       5.196   4.201  16.995  0.00  0.00    +0.000 A 
ATOM     23  C   UNL     1       5.855   5.254  17.642  0.00  0.00    +0.000 A 
BRANCH  18  25
ATOM     24  O   UNL     1       7.633   8.161  17.295  0.00  0.00    +0.000 OA
ATOM     25  C   UNL     1       7.581   7.025  17.733  0.00  0.00    +0.000 C 
BRANCH  25  26
ATOM     26  O   UNL     1       8.162   6.649  18.893  0.00  0.00    +0.000 OA
ATOM     27  H   UNL     1       8.602   7.368  19.381  0.00  0.00    +0.000 HD
ENDBRANCH  25  26
ENDBRANCH  18  25
ENDBRANCH  17  22
ENDBRANCH  16  17
ENDBRANCH  10  16
ENDBRANCH   1  14
BRANCH   7  28
ATOM     28  C   UNL     1      -0.186  11.683  21.899  0.00  0.00    +0.000 C 
BRANCH  28  29
ATOM     29  C   UNL     1      -1.655  12.054  21.927  0.00  0.00    +0.000 A 
ATOM     30  C   UNL     1      -2.285  12.343  20.702  0.00  0.00    +0.000 A 
ATOM     31  C   UNL     1      -3.614  12.770  20.655  0.00  0.00    +0.000 A 
ATOM     32  C   UNL     1      -4.343  12.908  21.833  0.00  0.00    +0.000 A 
ATOM     33  C   UNL     1      -3.748  12.603  23.062  0.00  0.00    +0.000 A 
ATOM     34  C   UNL     1      -2.405  12.196  23.108  0.00  0.00    +0.000 A 
BRANCH  33  35
ATOM     35  C   UNL     1      -4.558  12.791  24.294  0.00  0.00    +0.000 C 
ATOM     36  O   UNL     1      -5.304  11.931  24.729  0.00  0.00    +0.000 OA
BRANCH  35  37
ATOM     37  O   UNL     1      -4.372  13.981  24.901  0.00  0.00    +0.000 OA
ATOM     38  H   UNL     1      -3.461  14.327  24.880  0.00  0.00    +0.000 HD
ENDBRANCH  35  37
ENDBRANCH  33  35
ENDBRANCH  28  29
ENDBRANCH   7  28
TORSDOF 10
ENDMDL
MODEL 6
REMARK VINA RESULT:      -9.1      1.649      2.305
REMARK  Name = 
REMARK  10 active torsions:
REMARK  status: ('A' for Active; 'I' for Inactive)
REMARK    1  A    between atoms: C_2  and  O_3
REMARK    2  A    between atoms: C_2  and  C_4
REMARK    3  A    between atoms: C_8  and  C_9
REMARK    4  A    between atoms: C_9  and  O_10
REMARK    5  A    between atoms: O_10  and  C_11
REMARK    6  A    between atoms: C_15  and  C_16
REMARK    7  A    between atoms: N_22  and  C_23
REMARK    8  A    between atoms: C_23  and  C_24
REMARK    9  A    between atoms: C_28  and  C_29
REMARK   10  A    between atoms: C_29  and  O_31
REMARK                            x       y       z     vdW  Elec       q    Type
REMARK                         _______ _______ _______ _____ _____    ______ ____
ROOT
ATOM      1  C   UNL     1       1.279   8.427  20.590  0.00  0.00    +0.000 A 
ATOM      2  C   UNL     1       1.220   8.398  21.993  0.00  0.00    +0.000 A 
ATOM      3  C   UNL     1       0.580   9.405  22.733  0.00  0.00    +0.000 A 
ATOM      4  C   UNL     1      -0.043  10.468  22.058  0.00  0.00    +0.000 A 
ATOM      5  C   UNL     1      -0.773  11.613  22.471  0.00  0.00    +0.000 A 
ATOM      6  C   UNL     1      -1.151  12.303  21.340  0.00  0.00    +0.000 A 
ATOM      7  N   UNL     1      -0.677  11.618  20.250  0.00  0.00    +0.000 N 
ATOM      8  C   UNL     1       0.016  10.500  20.665  0.00  0.00    +0.000 A 
ATOM      9  C   UNL     1       0.678   9.511  19.925  0.00  0.00    +0.000 A 
ENDROOT
BRANCH   1  14
ATOM     10  C   UNL     1       3.246   6.632  17.872  0.00  0.00    +0.000 A 
ATOM     11  C   UNL     1       3.193   5.311  18.318  0.00  0.00    +0.000 A 
ATOM     12  C   UNL     1       2.564   5.010  19.523  0.00  0.00    +0.000 A 
ATOM     13  C   UNL     1       1.963   6.023  20.271  0.00  0.00    +0.000 A 
ATOM     14  C   UNL     1       1.940   7.351  19.815  0.00  0.00    +0.000 A 
ATOM     15  C   UNL     1       2.588   7.626  18.595  0.00  0.00    +0.000 A 
BRANCH  10  16
ATOM     16  O   UNL     1       3.913   7.059  16.754  0.00  0.00    +0.000 OA
BRANCH  16  17
ATOM     17  C   UNL     1       5.001   6.229  16.352  0.00  0.00    +0.000 C 
BRANCH  17  22
ATOM     18  C   UNL     1       7.870   7.924  18.210  0.00  0.00    +0.000 A 
ATOM     19  C   UNL     1       8.412   6.848  18.925  0.00  0.00    +0.000 A 
ATOM     20  C   UNL     1       7.855   5.577  18.792  0.00  0.00    +0.000 A 
ATOM     21  C   UNL     1       6.750   5.382  17.964  0.00  0.00    +0.000 A 
ATOM     22  C   UNL     1       6.185   6.457  17.259  0.00  0.00    +0.000 A 
ATOM     23  C   UNL     1       6.748   7.732  17.395  0.00  0.00    +0.000 A 
BRANCH  18  25
ATOM     24  O   UNL     1       8.187  10.178  17.517  0.00  0.00    +0.000 OA
ATOM     25  C   UNL     1       8.439   9.289  18.310  0.00  0.00    +0.000 C 
BRANCH  25  26
ATOM     26  O   UNL     1       9.306   9.434  19.336  0.00  0.00    +0.000 OA
ATOM     27  H   UNL     1       9.198   8.787  20.056  0.00  0.00    +0.000 HD
ENDBRANCH  25  26
ENDBRANCH  18  25
ENDBRANCH  17  22
ENDBRANCH  16  17
ENDBRANCH  10  16
ENDBRANCH   1  14
BRANCH   7  28
ATOM     28  C   UNL     1      -0.833  12.041  18.858  0.00  0.00    +0.000 C 
BRANCH  28  29
ATOM     29  C   UNL     1      -2.038  11.463  18.142  0.00  0.00    +0.000 A 
ATOM     30  C   UNL     1      -1.820  10.419  17.223  0.00  0.00    +0.000 A 
ATOM     31  C   UNL     1      -2.868   9.891  16.467  0.00  0.00    +0.000 A 
ATOM     32  C   UNL     1      -4.159  10.389  16.623  0.00  0.00    +0.000 A 
ATOM     33  C   UNL     1      -4.407  11.409  17.548  0.00  0.00    +0.000 A 
ATOM     34  C   UNL     1      -3.347  11.954  18.290  0.00  0.00    +0.000 A 
BRANCH  33  35
ATOM     35  C   UNL     1      -5.796  11.926  17.659  0.00  0.00    +0.000 C 
ATOM     36  O   UNL     1      -6.747  11.210  17.921  0.00  0.00    +0.000 OA
BRANCH  35  37
ATOM     37  O   UNL     1      -5.906  13.258  17.475  0.00  0.00    +0.000 OA
ATOM     38  H   UNL     1      -5.317  13.639  16.798  0.00  0.00    +0.000 HD
ENDBRANCH  35  37
ENDBRANCH  33  35
ENDBRANCH  28  29
ENDBRANCH   7  28
TORSDOF 10
ENDMDL
MODEL 7
REMARK VINA RESULT:      -9.1      2.978     10.234
REMARK  Name = 
REMARK  10 active torsions:
REMARK  status: ('A' for Active; 'I' for Inactive)
REMARK    1  A    between atoms: C_2  and  O_3
REMARK    2  A    between atoms: C_2  and  C_4
REMARK    3  A    between atoms: C_8  and  C_9
REMARK    4  A    between atoms: C_9  and  O_10
REMARK    5  A    between atoms: O_10  and  C_11
REMARK    6  A    between atoms: C_15  and  C_16
REMARK    7  A    between atoms: N_22  and  C_23
REMARK    8  A    between atoms: C_23  and  C_24
REMARK    9  A    between atoms: C_28  and  C_29
REMARK   10  A    between atoms: C_29  and  O_31
REMARK                            x       y       z     vdW  Elec       q    Type
REMARK                         _______ _______ _______ _____ _____    ______ ____
ROOT
ATOM      1  C   UNL     1       1.768   6.123  20.363  0.00  0.00    +0.000 A 
ATOM      2  C   UNL     1       0.828   5.110  20.609  0.00  0.00    +0.000 A 
ATOM      3  C   UNL     1       1.131   3.751  20.427  0.00  0.00    +0.000 A 
ATOM      4  C   UNL     1       2.420   3.381  20.008  0.00  0.00    +0.000 A 
ATOM      5  C   UNL     1       3.061   2.142  19.747  0.00  0.00    +0.000 A 
ATOM      6  C   UNL     1       4.358   2.409  19.365  0.00  0.00    +0.000 A 
ATOM      7  N   UNL     1       4.531   3.770  19.383  0.00  0.00    +0.000 N 
ATOM      8  C   UNL     1       3.355   4.386  19.760  0.00  0.00    +0.000 A 
ATOM      9  C   UNL     1       3.046   5.745  19.914  0.00  0.00    +0.000 A 
ENDROOT
BRANCH   1  14
ATOM     10  C   UNL     1       1.041   9.793  19.668  0.00  0.00    +0.000 A 
ATOM     11  C   UNL     1       0.847  10.286  20.959  0.00  0.00    +0.000 A 
ATOM     12  C   UNL     1       0.903   9.421  22.048  0.00  0.00    +0.000 A 
ATOM     13  C   UNL     1       1.179   8.067  21.853  0.00  0.00    +0.000 A 
ATOM     14  C   UNL     1       1.446   7.554  20.574  0.00  0.00    +0.000 A 
ATOM     15  C   UNL     1       1.378   8.452  19.491  0.00  0.00    +0.000 A 
BRANCH  10  16
ATOM     16  O   UNL     1       0.919  10.528  18.518  0.00  0.00    +0.000 OA
BRANCH  16  17
ATOM     17  C   UNL     1       0.058  11.661  18.620  0.00  0.00    +0.000 C 
BRANCH  17  22
ATOM     18  C   UNL     1      -3.754  11.536  18.539  0.00  0.00    +0.000 A 
ATOM     19  C   UNL     1      -3.978  10.487  17.638  0.00  0.00    +0.000 A 
ATOM     20  C   UNL     1      -2.895   9.816  17.072  0.00  0.00    +0.000 A 
ATOM     21  C   UNL     1      -1.593  10.202  17.388  0.00  0.00    +0.000 A 
ATOM     22  C   UNL     1      -1.356  11.266  18.272  0.00  0.00    +0.000 A 
ATOM     23  C   UNL     1      -2.446  11.937  18.839  0.00  0.00    +0.000 A 
BRANCH  18  25
ATOM     24  O   UNL     1      -5.960  12.423  18.642  0.00  0.00    +0.000 OA
ATOM     25  C   UNL     1      -4.876  12.267  19.175  0.00  0.00    +0.000 C 
BRANCH  25  26
ATOM     26  O   UNL     1      -4.559  12.790  20.380  0.00  0.00    +0.000 OA
ATOM     27  H   UNL     1      -3.709  12.486  20.746  0.00  0.00    +0.000 HD
ENDBRANCH  25  26
ENDBRANCH  18  25
ENDBRANCH  17  22
ENDBRANCH  16  17
ENDBRANCH  10  16
ENDBRANCH   1  14
BRANCH   7  28
ATOM     28  C   UNL     1       5.761   4.467  19.005  0.00  0.00    +0.000 C 
BRANCH  28  29
ATOM     29  C   UNL     1       5.736   5.118  17.637  0.00  0.00    +0.000 A 
ATOM     30  C   UNL     1       5.029   6.327  17.494  0.00  0.00    +0.000 A 
ATOM     31  C   UNL     1       4.894   6.943  16.249  0.00  0.00    +0.000 A 
ATOM     32  C   UNL     1       5.474   6.368  15.121  0.00  0.00    +0.000 A 
ATOM     33  C   UNL     1       6.203   5.181  15.240  0.00  0.00    +0.000 A 
ATOM     34  C   UNL     1       6.318   4.550  16.489  0.00  0.00    +0.000 A 
BRANCH  33  35
ATOM     35  C   UNL     1       6.781   4.591  14.004  0.00  0.00    +0.000 C 
ATOM     36  O   UNL     1       7.567   5.192  13.292  0.00  0.00    +0.000 OA
BRANCH  35  37
ATOM     37  O   UNL     1       6.382   3.327  13.756  0.00  0.00    +0.000 OA
ATOM     38  H   UNL     1       5.427   3.209  13.600  0.00  0.00    +0.000 HD
ENDBRANCH  35  37
ENDBRANCH  33  35
ENDBRANCH  28  29
ENDBRANCH   7  28
TORSDOF 10
ENDMDL
MODEL 8
REMARK VINA RESULT:      -9.1      2.904     10.606
REMARK  Name = 
REMARK  10 active torsions:
REMARK  status: ('A' for Active; 'I' for Inactive)
REMARK    1  A    between atoms: C_2  and  O_3
REMARK    2  A    between atoms: C_2  and  C_4
REMARK    3  A    between atoms: C_8  and  C_9
REMARK    4  A    between atoms: C_9  and  O_10
REMARK    5  A    between atoms: O_10  and  C_11
REMARK    6  A    between atoms: C_15  and  C_16
REMARK    7  A    between atoms: N_22  and  C_23
REMARK    8  A    between atoms: C_23  and  C_24
REMARK    9  A    between atoms: C_28  and  C_29
REMARK   10  A    between atoms: C_29  and  O_31
REMARK                            x       y       z     vdW  Elec       q    Type
REMARK                         _______ _______ _______ _____ _____    ______ ____
ROOT
ATOM      1  C   UNL     1       2.034   6.555  19.674  0.00  0.00    +0.000 A 
ATOM      2  C   UNL     1       1.892   5.965  20.941  0.00  0.00    +0.000 A 
ATOM      3  C   UNL     1       2.202   4.616  21.174  0.00  0.00    +0.000 A 
ATOM      4  C   UNL     1       2.692   3.828  20.120  0.00  0.00    +0.000 A 
ATOM      5  C   UNL     1       3.110   2.476  20.003  0.00  0.00    +0.000 A 
ATOM      6  C   UNL     1       3.504   2.267  18.699  0.00  0.00    +0.000 A 
ATOM      7  N   UNL     1       3.339   3.445  18.015  0.00  0.00    +0.000 N 
ATOM      8  C   UNL     1       2.831   4.410  18.860  0.00  0.00    +0.000 A 
ATOM      9  C   UNL     1       2.496   5.749  18.618  0.00  0.00    +0.000 A 
ENDROOT
BRANCH   1  14
ATOM     10  C   UNL     1       0.789  10.108  20.224  0.00  0.00    +0.000 A 
ATOM     11  C   UNL     1       1.105  10.704  19.003  0.00  0.00    +0.000 A 
ATOM     12  C   UNL     1       1.766   9.970  18.022  0.00  0.00    +0.000 A 
ATOM     13  C   UNL     1       2.087   8.631  18.248  0.00  0.00    +0.000 A 
ATOM     14  C   UNL     1       1.721   7.983  19.439  0.00  0.00    +0.000 A 
ATOM     15  C   UNL     1       1.058   8.754  20.415  0.00  0.00    +0.000 A 
BRANCH  10  16
ATOM     16  O   UNL     1       0.226  10.754  21.293  0.00  0.00    +0.000 OA
BRANCH  16  17
ATOM     17  C   UNL     1      -0.068  12.133  21.073  0.00  0.00    +0.000 C 
BRANCH  17  22
ATOM     18  C   UNL     1      -3.691  12.689  22.129  0.00  0.00    +0.000 A 
ATOM     19  C   UNL     1      -4.346  12.680  20.890  0.00  0.00    +0.000 A 
ATOM     20  C   UNL     1      -3.614  12.480  19.721  0.00  0.00    +0.000 A 
ATOM     21  C   UNL     1      -2.231  12.309  19.784  0.00  0.00    +0.000 A 
ATOM     22  C   UNL     1      -1.561  12.338  21.017  0.00  0.00    +0.000 A 
ATOM     23  C   UNL     1      -2.301  12.538  22.190  0.00  0.00    +0.000 A 
BRANCH  18  25
ATOM     24  O   UNL     1      -5.483  13.496  23.472  0.00  0.00    +0.000 OA
ATOM     25  C   UNL     1      -4.432  12.884  23.398  0.00  0.00    +0.000 C 
BRANCH  25  26
ATOM     26  O   UNL     1      -3.799  12.364  24.473  0.00  0.00    +0.000 OA
ATOM     27  H   UNL     1      -3.741  11.392  24.481  0.00  0.00    +0.000 HD
ENDBRANCH  25  26
ENDBRANCH  18  25
ENDBRANCH  17  22
ENDBRANCH  16  17
ENDBRANCH  10  16
ENDBRANCH   1  14
BRANCH   7  28
ATOM     28  C   UNL     1       3.610   3.634  16.590  0.00  0.00    +0.000 C 
BRANCH  28  29
ATOM     29  C   UNL     1       4.925   4.316  16.270  0.00  0.00    +0.000 A 
ATOM     30  C   UNL     1       5.575   3.966  15.071  0.00  0.00    +0.000 A 
ATOM     31  C   UNL     1       6.827   4.491  14.747  0.00  0.00    +0.000 A 
ATOM     32  C   UNL     1       7.452   5.387  15.611  0.00  0.00    +0.000 A 
ATOM     33  C   UNL     1       6.816   5.770  16.797  0.00  0.00    +0.000 A 
ATOM     34  C   UNL     1       5.568   5.223  17.132  0.00  0.00    +0.000 A 
BRANCH  33  35
ATOM     35  C   UNL     1       7.534   6.707  17.700  0.00  0.00    +0.000 C 
ATOM     36  O   UNL     1       7.925   6.386  18.809  0.00  0.00    +0.000 OA
BRANCH  35  37
ATOM     37  O   UNL     1       7.738   7.933  17.174  0.00  0.00    +0.000 OA
ATOM     38  H   UNL     1       8.134   7.948  16.283  0.00  0.00    +0.000 HD
ENDBRANCH  35  37
ENDBRANCH  33  35
ENDBRANCH  28  29
ENDBRANCH   7  28
TORSDOF 10
ENDMDL
MODEL 9
REMARK VINA RESULT:      -9.1      2.951     10.726
REMARK  Name = 
REMARK  10 active torsions:
REMARK  status: ('A' for Active; 'I' for Inactive)
REMARK    1  A    between atoms: C_2  and  O_3
REMARK    2  A    between atoms: C_2  and  C_4
REMARK    3  A    between atoms: C_8  and  C_9
REMARK    4  A    between atoms: C_9  and  O_10
REMARK    5  A    between atoms: O_10  and  C_11
REMARK    6  A    between atoms: C_15  and  C_16
REMARK    7  A    between atoms: N_22  and  C_23
REMARK    8  A    between atoms: C_23  and  C_24
REMARK    9  A    between atoms: C_28  and  C_29
REMARK   10  A    between atoms: C_29  and  O_31
REMARK                            x       y       z     vdW  Elec       q    Type
REMARK                         _______ _______ _______ _____ _____    ______ ____
ROOT
ATOM      1  C   UNL     1       1.895   6.228  19.641  0.00  0.00    +0.000 A 
ATOM      2  C   UNL     1       1.472   5.599  20.823  0.00  0.00    +0.000 A 
ATOM      3  C   UNL     1       1.660   4.225  21.045  0.00  0.00    +0.000 A 
ATOM      4  C   UNL     1       2.309   3.451  20.069  0.00  0.00    +0.000 A 
ATOM      5  C   UNL     1       2.673   2.082  19.969  0.00  0.00    +0.000 A 
ATOM      6  C   UNL     1       3.308   1.902  18.759  0.00  0.00    +0.000 A 
ATOM      7  N   UNL     1       3.344   3.114  18.117  0.00  0.00    +0.000 N 
ATOM      8  C   UNL     1       2.727   4.073  18.893  0.00  0.00    +0.000 A 
ATOM      9  C   UNL     1       2.517   5.439  18.657  0.00  0.00    +0.000 A 
ENDROOT
BRANCH   1  14
ATOM     10  C   UNL     1       1.080   9.892  20.269  0.00  0.00    +0.000 A 
ATOM     11  C   UNL     1       1.335  10.451  19.017  0.00  0.00    +0.000 A 
ATOM     12  C   UNL     1       1.819   9.651  17.985  0.00  0.00    +0.000 A 
ATOM     13  C   UNL     1       2.021   8.287  18.193  0.00  0.00    +0.000 A 
ATOM     14  C   UNL     1       1.709   7.682  19.422  0.00  0.00    +0.000 A 
ATOM     15  C   UNL     1       1.226   8.517  20.448  0.00  0.00    +0.000 A 
BRANCH  10  16
ATOM     16  O   UNL     1       0.693  10.594  21.380  0.00  0.00    +0.000 OA
BRANCH  16  17
ATOM     17  C   UNL     1       0.358  11.959  21.140  0.00  0.00    +0.000 C 
BRANCH  17  22
ATOM     18  C   UNL     1      -3.153  13.405  21.514  0.00  0.00    +0.000 A 
ATOM     19  C   UNL     1      -3.571  12.812  22.712  0.00  0.00    +0.000 A 
ATOM     20  C   UNL     1      -2.711  11.958  23.400  0.00  0.00    +0.000 A 
ATOM     21  C   UNL     1      -1.444  11.681  22.886  0.00  0.00    +0.000 A 
ATOM     22  C   UNL     1      -1.022  12.252  21.675  0.00  0.00    +0.000 A 
ATOM     23  C   UNL     1      -1.890  13.110  20.987  0.00  0.00    +0.000 A 
BRANCH  18  25
ATOM     24  O   UNL     1      -4.054  15.533  20.945  0.00  0.00    +0.000 OA
ATOM     25  C   UNL     1      -4.030  14.330  20.756  0.00  0.00    +0.000 C 
BRANCH  25  26
ATOM     26  O   UNL     1      -4.839  13.700  19.876  0.00  0.00    +0.000 OA
ATOM     27  H   UNL     1      -5.791  13.846  20.020  0.00  0.00    +0.000 HD
ENDBRANCH  25  26
ENDBRANCH  18  25
ENDBRANCH  17  22
ENDBRANCH  16  17
ENDBRANCH  10  16
ENDBRANCH   1  14
BRANCH   7  28
ATOM     28  C   UNL     1       3.904   3.342  16.785  0.00  0.00    +0.000 C 
BRANCH  28  29
ATOM     29  C   UNL     1       5.171   4.172  16.753  0.00  0.00    +0.000 A 
ATOM     30  C   UNL     1       5.797   4.373  15.508  0.00  0.00    +0.000 A 
ATOM     31  C   UNL     1       7.010   5.058  15.411  0.00  0.00    +0.000 A 
ATOM     32  C   UNL     1       7.617   5.566  16.556  0.00  0.00    +0.000 A 
ATOM     33  C   UNL     1       7.003   5.402  17.802  0.00  0.00    +0.000 A 
ATOM     34  C   UNL     1       5.795   4.693  17.901  0.00  0.00    +0.000 A 
BRANCH  33  35
ATOM     35  C   UNL     1       7.702   5.939  18.999  0.00  0.00    +0.000 C 
ATOM     36  O   UNL     1       7.701   5.367  20.075  0.00  0.00    +0.000 OA
BRANCH  35  37
ATOM     37  O   UNL     1       8.359   7.097  18.782  0.00  0.00    +0.000 OA
ATOM     38  H   UNL     1       8.457   7.356  17.847  0.00  0.00    +0.000 HD
ENDBRANCH  35  37
ENDBRANCH  33  35
ENDBRANCH  28  29
ENDBRANCH   7  28
TORSDOF 10
ENDMDL
