MODEL 1
REMARK VINA RESULT:      -8.8      0.000      0.000
REMARK  Name = 
REMARK  3 active torsions:
REMARK  status: ('A' for Active; 'I' for Inactive)
REMARK    1  A    between atoms: C_5  and  C_6
REMARK    2  A    between atoms: C_9  and  N_10
REMARK    3  A    between atoms: N_13  and  C_14
REMARK                            x       y       z     vdW  Elec       q    Type
REMARK                         _______ _______ _______ _____ _____    ______ ____
ROOT
ATOM      1  C   UNL     1       9.502  12.560  18.571  0.00  0.00    +0.000 A 
ATOM      2  C   UNL     1       9.978  11.861  19.681  0.00  0.00    +0.000 A 
ATOM      3  C   UNL     1       9.748  10.492  19.819  0.00  0.00    +0.000 A 
ATOM      4  C   UNL     1       8.966   9.792  18.890  0.00  0.00    +0.000 A 
ATOM      5  C   UNL     1       8.411  10.501  17.828  0.00  0.00    +0.000 A 
ATOM      6  C   UNL     1       8.672  11.872  17.672  0.00  0.00    +0.000 A 
ENDROOT
BRANCH   1  11
ATOM      7  N   UNL     1       7.621  14.434  20.195  0.00  0.00    +0.000 N 
ATOM      8  C   UNL     1       7.734  15.128  19.026  0.00  0.00    +0.000 C 
ATOM      9  O   UNL     1       6.857  15.796  18.510  0.00  0.00    +0.000 OA
ATOM     10  N   UNL     1       9.042  15.080  18.492  0.00  0.00    +0.000 N 
ATOM     11  C   UNL     1       9.882  13.964  18.326  0.00  0.00    +0.000 A 
ATOM     12  C   UNL     1      11.102  14.448  17.867  0.00  0.00    +0.000 A 
ATOM     13  C   UNL     1      11.028  15.856  17.760  0.00  0.00    +0.000 A 
ATOM     14  C   UNL     1      11.956  16.855  17.401  0.00  0.00    +0.000 A 
ATOM     15  C   UNL     1      11.572  18.201  17.435  0.00  0.00    +0.000 A 
ATOM     16  C   UNL     1      10.278  18.556  17.803  0.00  0.00    +0.000 A 
ATOM     17  C   UNL     1       9.338  17.582  18.139  0.00  0.00    +0.000 A 
ATOM     18  C   UNL     1       9.736  16.231  18.114  0.00  0.00    +0.000 A 
ATOM     19  H   UNL     1       6.739  14.486  20.686  0.00  0.00    +0.000 HD
ATOM     20  H   UNL     1       8.421  14.043  20.676  0.00  0.00    +0.000 HD
ENDBRANCH   1  11
BRANCH   4  21
ATOM     21  N   UNL     1       8.766   8.396  18.966  0.00  0.00    +0.000 N 
ATOM     22  C   UNL     1       7.969   7.684  18.094  0.00  0.00    +0.000 C 
ATOM     23  O   UNL     1       7.531   8.127  17.038  0.00  0.00    +0.000 OA
ATOM     24  N   UNL     1       7.670   6.407  18.570  0.00  0.00    +0.000 N 
ATOM     25  H   UNL     1       9.408   7.856  19.529  0.00  0.00    +0.000 HD
ATOM     26  H   UNL     1       7.567   6.368  19.574  0.00  0.00    +0.000 HD
BRANCH  24  27
ATOM     27  C   UNL     1       6.802   5.587  17.813  0.00  0.00    +0.000 A 
ATOM     28  C   UNL     1       7.297   4.765  16.794  0.00  0.00    +0.000 A 
ATOM     29  C   UNL     1       6.426   4.114  15.928  0.00  0.00    +0.000 A 
ATOM     30  C   UNL     1       5.051   4.269  16.084  0.00  0.00    +0.000 A 
ATOM     31  C   UNL     1       4.553   5.037  17.139  0.00  0.00    +0.000 A 
ATOM     32  C   UNL     1       5.428   5.676  18.025  0.00  0.00    +0.000 A 
ENDBRANCH  24  27
ENDBRANCH   4  21
TORSDOF 3
ENDMDL
MODEL 2
REMARK VINA RESULT:      -8.4      7.823      8.971
REMARK  Name = 
REMARK  3 active torsions:
REMARK  status: ('A' for Active; 'I' for Inactive)
REMARK    1  A    between atoms: C_5  and  C_6
REMARK    2  A    between atoms: C_9  and  N_10
REMARK    3  A    between atoms: N_13  and  C_14
REMARK                            x       y       z     vdW  Elec       q    Type
REMARK                         _______ _______ _______ _____ _____    ______ ____
ROOT
ATOM      1  C   UNL     1       1.986   7.773  19.580  0.00  0.00    +0.000 A 
ATOM      2  C   UNL     1       2.179   6.454  19.993  0.00  0.00    +0.000 A 
ATOM      3  C   UNL     1       3.084   5.620  19.334  0.00  0.00    +0.000 A 
ATOM      4  C   UNL     1       3.770   6.056  18.192  0.00  0.00    +0.000 A 
ATOM      5  C   UNL     1       3.515   7.340  17.719  0.00  0.00    +0.000 A 
ATOM      6  C   UNL     1       2.629   8.189  18.403  0.00  0.00    +0.000 A 
ENDROOT
BRANCH   1  11
ATOM      7  N   UNL     1       0.506   9.711  17.646  0.00  0.00    +0.000 N 
ATOM      8  C   UNL     1       0.858  10.564  18.652  0.00  0.00    +0.000 C 
ATOM      9  O   UNL     1       1.172  11.732  18.514  0.00  0.00    +0.000 OA
ATOM     10  N   UNL     1       0.727   9.977  19.931  0.00  0.00    +0.000 N 
ATOM     11  C   UNL     1       1.166   8.713  20.366  0.00  0.00    +0.000 A 
ATOM     12  C   UNL     1       0.702   8.556  21.667  0.00  0.00    +0.000 A 
ATOM     13  C   UNL     1      -0.033   9.705  22.037  0.00  0.00    +0.000 A 
ATOM     14  C   UNL     1      -0.755  10.070  23.192  0.00  0.00    +0.000 A 
ATOM     15  C   UNL     1      -1.424  11.299  23.230  0.00  0.00    +0.000 A 
ATOM     16  C   UNL     1      -1.367  12.168  22.145  0.00  0.00    +0.000 A 
ATOM     17  C   UNL     1      -0.639  11.836  21.002  0.00  0.00    +0.000 A 
ATOM     18  C   UNL     1       0.022  10.592  20.967  0.00  0.00    +0.000 A 
ATOM     19  H   UNL     1       0.492  10.079  16.705  0.00  0.00    +0.000 HD
ATOM     20  H   UNL     1       0.081   8.809  17.821  0.00  0.00    +0.000 HD
ENDBRANCH   1  11
BRANCH   4  21
ATOM     21  N   UNL     1       4.738   5.261  17.540  0.00  0.00    +0.000 N 
ATOM     22  C   UNL     1       5.146   5.460  16.238  0.00  0.00    +0.000 C 
ATOM     23  O   UNL     1       4.895   6.462  15.578  0.00  0.00    +0.000 OA
ATOM     24  N   UNL     1       5.843   4.364  15.727  0.00  0.00    +0.000 N 
ATOM     25  H   UNL     1       5.328   4.672  18.109  0.00  0.00    +0.000 HD
ATOM     26  H   UNL     1       5.505   3.478  16.073  0.00  0.00    +0.000 HD
BRANCH  24  27
ATOM     27  C   UNL     1       6.263   4.396  14.377  0.00  0.00    +0.000 A 
ATOM     28  C   UNL     1       5.655   3.578  13.417  0.00  0.00    +0.000 A 
ATOM     29  C   UNL     1       6.196   3.468  12.141  0.00  0.00    +0.000 A 
ATOM     30  C   UNL     1       7.342   4.188  11.811  0.00  0.00    +0.000 A 
ATOM     31  C   UNL     1       7.913   5.054  12.746  0.00  0.00    +0.000 A 
ATOM     32  C   UNL     1       7.357   5.183  14.024  0.00  0.00    +0.000 A 
ENDBRANCH  24  27
ENDBRANCH   4  21
TORSDOF 3
ENDMDL
MODEL 3
REMARK VINA RESULT:      -8.4      0.525      1.033
REMARK  Name = 
REMARK  3 active torsions:
REMARK  status: ('A' for Active; 'I' for Inactive)
REMARK    1  A    between atoms: C_5  and  C_6
REMARK    2  A    between atoms: C_9  and  N_10
REMARK    3  A    between atoms: N_13  and  C_14
REMARK                            x       y       z     vdW  Elec       q    Type
REMARK                         _______ _______ _______ _____ _____    ______ ____
ROOT
ATOM      1  C   UNL     1       9.491  12.543  18.266  0.00  0.00    +0.000 A 
ATOM      2  C   UNL     1       8.450  11.930  17.567  0.00  0.00    +0.000 A 
ATOM      3  C   UNL     1       8.151  10.581  17.763  0.00  0.00    +0.000 A 
ATOM      4  C   UNL     1       8.934   9.781  18.607  0.00  0.00    +0.000 A 
ATOM      5  C   UNL     1      10.030  10.363  19.238  0.00  0.00    +0.000 A 
ATOM      6  C   UNL     1      10.309  11.729  19.066  0.00  0.00    +0.000 A 
ENDROOT
BRANCH   1  11
ATOM      7  N   UNL     1       8.077  13.905  20.682  0.00  0.00    +0.000 N 
ATOM      8  C   UNL     1       7.804  14.795  19.684  0.00  0.00    +0.000 C 
ATOM      9  O   UNL     1       6.781  15.445  19.573  0.00  0.00    +0.000 OA
ATOM     10  N   UNL     1       8.898  14.977  18.806  0.00  0.00    +0.000 N 
ATOM     11  C   UNL     1       9.709  14.000  18.200  0.00  0.00    +0.000 A 
ATOM     12  C   UNL     1      10.712  14.681  17.520  0.00  0.00    +0.000 A 
ATOM     13  C   UNL     1      10.538  16.071  17.712  0.00  0.00    +0.000 A 
ATOM     14  C   UNL     1      11.265  17.209  17.307  0.00  0.00    +0.000 A 
ATOM     15  C   UNL     1      10.839  18.480  17.706  0.00  0.00    +0.000 A 
ATOM     16  C   UNL     1       9.694  18.630  18.483  0.00  0.00    +0.000 A 
ATOM     17  C   UNL     1       8.947  17.519  18.874  0.00  0.00    +0.000 A 
ATOM     18  C   UNL     1       9.390  16.241  18.478  0.00  0.00    +0.000 A 
ATOM     19  H   UNL     1       7.378  13.779  21.400  0.00  0.00    +0.000 HD
ATOM     20  H   UNL     1       9.002  13.525  20.834  0.00  0.00    +0.000 HD
ENDBRANCH   1  11
BRANCH   4  21
ATOM     21  N   UNL     1       8.621   8.431  18.875  0.00  0.00    +0.000 N 
ATOM     22  C   UNL     1       7.909   7.621  18.015  0.00  0.00    +0.000 C 
ATOM     23  O   UNL     1       7.663   7.898  16.846  0.00  0.00    +0.000 OA
ATOM     24  N   UNL     1       7.449   6.460  18.638  0.00  0.00    +0.000 N 
ATOM     25  H   UNL     1       9.131   7.963  19.610  0.00  0.00    +0.000 HD
ATOM     26  H   UNL     1       7.197   6.598  19.606  0.00  0.00    +0.000 HD
BRANCH  24  27
ATOM     27  C   UNL     1       6.641   5.567  17.896  0.00  0.00    +0.000 A 
ATOM     28  C   UNL     1       7.202   4.727  16.927  0.00  0.00    +0.000 A 
ATOM     29  C   UNL     1       6.387   3.998  16.069  0.00  0.00    +0.000 A 
ATOM     30  C   UNL     1       5.002   4.093  16.184  0.00  0.00    +0.000 A 
ATOM     31  C   UNL     1       4.439   4.881  17.190  0.00  0.00    +0.000 A 
ATOM     32  C   UNL     1       5.259   5.599  18.069  0.00  0.00    +0.000 A 
ENDBRANCH  24  27
ENDBRANCH   4  21
TORSDOF 3
ENDMDL
MODEL 4
REMARK VINA RESULT:      -8.4      8.014     11.555
REMARK  Name = 
REMARK  3 active torsions:
REMARK  status: ('A' for Active; 'I' for Inactive)
REMARK    1  A    between atoms: C_5  and  C_6
REMARK    2  A    between atoms: C_9  and  N_10
REMARK    3  A    between atoms: N_13  and  C_14
REMARK                            x       y       z     vdW  Elec       q    Type
REMARK                         _______ _______ _______ _____ _____    ______ ____
ROOT
ATOM      1  C   UNL     1       2.699   6.968  18.861  0.00  0.00    +0.000 A 
ATOM      2  C   UNL     1       2.140   8.223  18.615  0.00  0.00    +0.000 A 
ATOM      3  C   UNL     1       1.390   8.878  19.593  0.00  0.00    +0.000 A 
ATOM      4  C   UNL     1       1.109   8.264  20.822  0.00  0.00    +0.000 A 
ATOM      5  C   UNL     1       1.586   6.974  21.040  0.00  0.00    +0.000 A 
ATOM      6  C   UNL     1       2.370   6.331  20.068  0.00  0.00    +0.000 A 
ENDROOT
BRANCH   1  11
ATOM      7  N   UNL     1       1.340   4.481  17.575  0.00  0.00    +0.000 N 
ATOM      8  C   UNL     1       2.612   4.020  17.755  0.00  0.00    +0.000 C 
ATOM      9  O   UNL     1       2.918   2.876  18.038  0.00  0.00    +0.000 OA
ATOM     10  N   UNL     1       3.589   5.003  17.478  0.00  0.00    +0.000 N 
ATOM     11  C   UNL     1       3.632   6.343  17.906  0.00  0.00    +0.000 A 
ATOM     12  C   UNL     1       4.727   6.926  17.279  0.00  0.00    +0.000 A 
ATOM     13  C   UNL     1       5.355   5.963  16.455  0.00  0.00    +0.000 A 
ATOM     14  C   UNL     1       6.453   6.004  15.572  0.00  0.00    +0.000 A 
ATOM     15  C   UNL     1       6.806   4.855  14.854  0.00  0.00    +0.000 A 
ATOM     16  C   UNL     1       6.094   3.671  15.020  0.00  0.00    +0.000 A 
ATOM     17  C   UNL     1       5.020   3.603  15.908  0.00  0.00    +0.000 A 
ATOM     18  C   UNL     1       4.662   4.767  16.617  0.00  0.00    +0.000 A 
ATOM     19  H   UNL     1       0.584   3.817  17.672  0.00  0.00    +0.000 HD
ATOM     20  H   UNL     1       1.142   5.386  17.167  0.00  0.00    +0.000 HD
ENDBRANCH   1  11
BRANCH   4  21
ATOM     21  N   UNL     1       0.408   8.923  21.855  0.00  0.00    +0.000 N 
ATOM     22  C   UNL     1      -0.340  10.067  21.668  0.00  0.00    +0.000 C 
ATOM     23  O   UNL     1      -0.665  10.512  20.573  0.00  0.00    +0.000 OA
ATOM     24  N   UNL     1      -0.650  10.701  22.872  0.00  0.00    +0.000 N 
ATOM     25  H   UNL     1       0.248   8.420  22.715  0.00  0.00    +0.000 HD
ATOM     26  H   UNL     1       0.080  10.623  23.566  0.00  0.00    +0.000 HD
BRANCH  24  27
ATOM     27  C   UNL     1      -1.353  11.927  22.832  0.00  0.00    +0.000 A 
ATOM     28  C   UNL     1      -0.701  13.118  22.489  0.00  0.00    +0.000 A 
ATOM     29  C   UNL     1      -1.342  14.342  22.640  0.00  0.00    +0.000 A 
ATOM     30  C   UNL     1      -2.648  14.383  23.123  0.00  0.00    +0.000 A 
ATOM     31  C   UNL     1      -3.323  13.194  23.406  0.00  0.00    +0.000 A 
ATOM     32  C   UNL     1      -2.686  11.959  23.234  0.00  0.00    +0.000 A 
ENDBRANCH  24  27
ENDBRANCH   4  21
TORSDOF 3
ENDMDL
MODEL 5
REMARK VINA RESULT:      -8.3      1.465      2.369
REMARK  Name = 
REMARK  3 active torsions:
REMARK  status: ('A' for Active; 'I' for Inactive)
REMARK    1  A    between atoms: C_5  and  C_6
REMARK    2  A    between atoms: C_9  and  N_10
REMARK    3  A    between atoms: N_13  and  C_14
REMARK                            x       y       z     vdW  Elec       q    Type
REMARK                         _______ _______ _______ _____ _____    ______ ____
ROOT
ATOM      1  C   UNL     1       8.915  12.334  18.312  0.00  0.00    +0.000 A 
ATOM      2  C   UNL     1       8.043  11.619  17.490  0.00  0.00    +0.000 A 
ATOM      3  C   UNL     1       7.913  10.235  17.615  0.00  0.00    +0.000 A 
ATOM      4  C   UNL     1       8.709   9.511  18.512  0.00  0.00    +0.000 A 
ATOM      5  C   UNL     1       9.647  10.206  19.271  0.00  0.00    +0.000 A 
ATOM      6  C   UNL     1       9.752  11.603  19.169  0.00  0.00    +0.000 A 
ENDROOT
BRANCH   1  11
ATOM      7  N   UNL     1      11.158  13.327  16.396  0.00  0.00    +0.000 N 
ATOM      8  C   UNL     1      11.287  14.210  17.428  0.00  0.00    +0.000 C 
ATOM      9  O   UNL     1      12.332  14.691  17.824  0.00  0.00    +0.000 OA
ATOM     10  N   UNL     1      10.038  14.610  17.958  0.00  0.00    +0.000 N 
ATOM     11  C   UNL     1       8.937  13.809  18.311  0.00  0.00    +0.000 A 
ATOM     12  C   UNL     1       7.914  14.676  18.675  0.00  0.00    +0.000 A 
ATOM     13  C   UNL     1       8.367  16.008  18.539  0.00  0.00    +0.000 A 
ATOM     14  C   UNL     1       7.759  17.267  18.718  0.00  0.00    +0.000 A 
ATOM     15  C   UNL     1       8.489  18.432  18.454  0.00  0.00    +0.000 A 
ATOM     16  C   UNL     1       9.813  18.356  18.035  0.00  0.00    +0.000 A 
ATOM     17  C   UNL     1      10.441  17.121  17.875  0.00  0.00    +0.000 A 
ATOM     18  C   UNL     1       9.696  15.952  18.130  0.00  0.00    +0.000 A 
ATOM     19  H   UNL     1      11.999  13.055  15.907  0.00  0.00    +0.000 HD
ATOM     20  H   UNL     1      10.262  13.095  15.987  0.00  0.00    +0.000 HD
ENDBRANCH   1  11
BRANCH   4  21
ATOM     21  N   UNL     1       8.559   8.121  18.707  0.00  0.00    +0.000 N 
ATOM     22  C   UNL     1       7.741   7.320  17.936  0.00  0.00    +0.000 C 
ATOM     23  O   UNL     1       7.234   7.666  16.875  0.00  0.00    +0.000 OA
ATOM     24  N   UNL     1       7.508   6.077  18.525  0.00  0.00    +0.000 N 
ATOM     25  H   UNL     1       9.245   7.644  19.274  0.00  0.00    +0.000 HD
ATOM     26  H   UNL     1       7.458   6.114  19.533  0.00  0.00    +0.000 HD
BRANCH  24  27
ATOM     27  C   UNL     1       6.628   5.176  17.882  0.00  0.00    +0.000 A 
ATOM     28  C   UNL     1       6.999   4.536  16.692  0.00  0.00    +0.000 A 
ATOM     29  C   UNL     1       6.065   3.809  15.964  0.00  0.00    +0.000 A 
ATOM     30  C   UNL     1       4.756   3.705  16.426  0.00  0.00    +0.000 A 
ATOM     31  C   UNL     1       4.399   4.288  17.644  0.00  0.00    +0.000 A 
ATOM     32  C   UNL     1       5.343   5.002  18.390  0.00  0.00    +0.000 A 
ENDBRANCH  24  27
ENDBRANCH   4  21
TORSDOF 3
ENDMDL
MODEL 6
REMARK VINA RESULT:      -8.3      1.451      2.524
REMARK  Name = 
REMARK  3 active torsions:
REMARK  status: ('A' for Active; 'I' for Inactive)
REMARK    1  A    between atoms: C_5  and  C_6
REMARK    2  A    between atoms: C_9  and  N_10
REMARK    3  A    between atoms: N_13  and  C_14
REMARK                            x       y       z     vdW  Elec       q    Type
REMARK                         _______ _______ _______ _____ _____    ______ ____
ROOT
ATOM      1  C   UNL     1       9.167  12.578  18.914  0.00  0.00    +0.000 A 
ATOM      2  C   UNL     1       8.700  11.941  17.764  0.00  0.00    +0.000 A 
ATOM      3  C   UNL     1       8.547  10.554  17.724  0.00  0.00    +0.000 A 
ATOM      4  C   UNL     1       8.932   9.752  18.808  0.00  0.00    +0.000 A 
ATOM      5  C   UNL     1       9.486  10.373  19.924  0.00  0.00    +0.000 A 
ATOM      6  C   UNL     1       9.606  11.771  19.976  0.00  0.00    +0.000 A 
ENDROOT
BRANCH   1  11
ATOM      7  N   UNL     1      10.848  13.791  16.591  0.00  0.00    +0.000 N 
ATOM      8  C   UNL     1      11.220  14.594  17.630  0.00  0.00    +0.000 C 
ATOM      9  O   UNL     1      12.326  15.076  17.793  0.00  0.00    +0.000 OA
ATOM     10  N   UNL     1      10.139  14.910  18.485  0.00  0.00    +0.000 N 
ATOM     11  C   UNL     1       9.171  14.048  19.031  0.00  0.00    +0.000 A 
ATOM     12  C   UNL     1       8.261  14.851  19.709  0.00  0.00    +0.000 A 
ATOM     13  C   UNL     1       8.649  16.204  19.577  0.00  0.00    +0.000 A 
ATOM     14  C   UNL     1       8.089  17.424  20.006  0.00  0.00    +0.000 A 
ATOM     15  C   UNL     1       8.716  18.629  19.667  0.00  0.00    +0.000 A 
ATOM     16  C   UNL     1       9.894  18.629  18.927  0.00  0.00    +0.000 A 
ATOM     17  C   UNL     1      10.478  17.431  18.514  0.00  0.00    +0.000 A 
ATOM     18  C   UNL     1       9.834  16.223  18.848  0.00  0.00    +0.000 A 
ATOM     19  H   UNL     1      11.543  13.585  15.888  0.00  0.00    +0.000 HD
ATOM     20  H   UNL     1       9.881  13.561  16.400  0.00  0.00    +0.000 HD
ENDBRANCH   1  11
BRANCH   4  21
ATOM     21  N   UNL     1       8.734   8.354  18.823  0.00  0.00    +0.000 N 
ATOM     22  C   UNL     1       7.854   7.693  17.992  0.00  0.00    +0.000 C 
ATOM     23  O   UNL     1       7.318   8.195  17.010  0.00  0.00    +0.000 OA
ATOM     24  N   UNL     1       7.595   6.391  18.421  0.00  0.00    +0.000 N 
ATOM     25  H   UNL     1       9.423   7.783  19.290  0.00  0.00    +0.000 HD
ATOM     26  H   UNL     1       7.588   6.294  19.426  0.00  0.00    +0.000 HD
BRANCH  24  27
ATOM     27  C   UNL     1       6.654   5.615  17.705  0.00  0.00    +0.000 A 
ATOM     28  C   UNL     1       5.308   5.584  18.090  0.00  0.00    +0.000 A 
ATOM     29  C   UNL     1       4.430   4.675  17.511  0.00  0.00    +0.000 A 
ATOM     30  C   UNL     1       4.889   3.799  16.531  0.00  0.00    +0.000 A 
ATOM     31  C   UNL     1       6.216   3.871  16.099  0.00  0.00    +0.000 A 
ATOM     32  C   UNL     1       7.096   4.800  16.666  0.00  0.00    +0.000 A 
ENDBRANCH  24  27
ENDBRANCH   4  21
TORSDOF 3
ENDMDL
MODEL 7
REMARK VINA RESULT:      -8.2      2.911     10.975
REMARK  Name = 
REMARK  3 active torsions:
REMARK  status: ('A' for Active; 'I' for Inactive)
REMARK    1  A    between atoms: C_5  and  C_6
REMARK    2  A    between atoms: C_9  and  N_10
REMARK    3  A    between atoms: N_13  and  C_14
REMARK                            x       y       z     vdW  Elec       q    Type
REMARK                         _______ _______ _______ _____ _____    ______ ____
ROOT
ATOM      1  C   UNL     1       5.663   6.053  18.343  0.00  0.00    +0.000 A 
ATOM      2  C   UNL     1       6.934   5.908  18.901  0.00  0.00    +0.000 A 
ATOM      3  C   UNL     1       7.944   6.835  18.636  0.00  0.00    +0.000 A 
ATOM      4  C   UNL     1       7.737   7.894  17.741  0.00  0.00    +0.000 A 
ATOM      5  C   UNL     1       6.501   7.993  17.109  0.00  0.00    +0.000 A 
ATOM      6  C   UNL     1       5.475   7.080  17.404  0.00  0.00    +0.000 A 
ENDROOT
BRANCH   1  11
ATOM      7  N   UNL     1       5.726   3.440  16.654  0.00  0.00    +0.000 N 
ATOM      8  C   UNL     1       4.385   3.690  16.699  0.00  0.00    +0.000 C 
ATOM      9  O   UNL     1       3.590   3.458  15.807  0.00  0.00    +0.000 OA
ATOM     10  N   UNL     1       3.965   4.173  17.960  0.00  0.00    +0.000 N 
ATOM     11  C   UNL     1       4.542   5.185  18.748  0.00  0.00    +0.000 A 
ATOM     12  C   UNL     1       3.833   5.211  19.943  0.00  0.00    +0.000 A 
ATOM     13  C   UNL     1       2.830   4.215  19.908  0.00  0.00    +0.000 A 
ATOM     14  C   UNL     1       1.869   3.766  20.837  0.00  0.00    +0.000 A 
ATOM     15  C   UNL     1       1.026   2.702  20.499  0.00  0.00    +0.000 A 
ATOM     16  C   UNL     1       1.117   2.096  19.250  0.00  0.00    +0.000 A 
ATOM     17  C   UNL     1       2.045   2.541  18.308  0.00  0.00    +0.000 A 
ATOM     18  C   UNL     1       2.899   3.605  18.659  0.00  0.00    +0.000 A 
ATOM     19  H   UNL     1       6.094   3.014  15.815  0.00  0.00    +0.000 HD
ATOM     20  H   UNL     1       6.314   3.481  17.476  0.00  0.00    +0.000 HD
ENDBRANCH   1  11
BRANCH   4  21
ATOM     21  N   UNL     1       8.716   8.882  17.499  0.00  0.00    +0.000 N 
ATOM     22  C   UNL     1       9.087   9.839  18.420  0.00  0.00    +0.000 C 
ATOM     23  O   UNL     1       8.785   9.811  19.608  0.00  0.00    +0.000 OA
ATOM     24  N   UNL     1       9.809  10.883  17.840  0.00  0.00    +0.000 N 
ATOM     25  H   UNL     1       9.340   8.749  16.716  0.00  0.00    +0.000 HD
ATOM     26  H   UNL     1       9.510  11.103  16.900  0.00  0.00    +0.000 HD
BRANCH  24  27
ATOM     27  C   UNL     1      10.195  11.975  18.652  0.00  0.00    +0.000 A 
ATOM     28  C   UNL     1       9.371  13.100  18.780  0.00  0.00    +0.000 A 
ATOM     29  C   UNL     1       9.837  14.245  19.416  0.00  0.00    +0.000 A 
ATOM     30  C   UNL     1      11.127  14.268  19.941  0.00  0.00    +0.000 A 
ATOM     31  C   UNL     1      11.928  13.126  19.870  0.00  0.00    +0.000 A 
ATOM     32  C   UNL     1      11.452  11.965  19.250  0.00  0.00    +0.000 A 
ENDBRANCH  24  27
ENDBRANCH   4  21
TORSDOF 3
ENDMDL
MODEL 8
REMARK VINA RESULT:      -8.2      8.849     10.739
REMARK  Name = 
REMARK  3 active torsions:
REMARK  status: ('A' for Active; 'I' for Inactive)
REMARK    1  A    between atoms: C_5  and  C_6
REMARK    2  A    between atoms: C_9  and  N_10
REMARK    3  A    between atoms: N_13  and  C_14
REMARK                            x       y       z     vdW  Elec       q    Type
REMARK                         _______ _______ _______ _____ _____    ______ ____
ROOT
ATOM      1  C   UNL     1      -1.139  11.489  22.076  0.00  0.00    +0.000 A 
ATOM      2  C   UNL     1      -0.386  11.367  20.908  0.00  0.00    +0.000 A 
ATOM      3  C   UNL     1       0.489  10.294  20.727  0.00  0.00    +0.000 A 
ATOM      4  C   UNL     1       0.697   9.351  21.743  0.00  0.00    +0.000 A 
ATOM      5  C   UNL     1       0.018   9.517  22.947  0.00  0.00    +0.000 A 
ATOM      6  C   UNL     1      -0.888  10.577  23.114  0.00  0.00    +0.000 A 
ENDROOT
BRANCH   1  11
ATOM      7  N   UNL     1       0.190  14.288  22.368  0.00  0.00    +0.000 N 
ATOM      8  C   UNL     1      -0.836  14.392  23.261  0.00  0.00    +0.000 C 
ATOM      9  O   UNL     1      -0.801  15.003  24.313  0.00  0.00    +0.000 OA
ATOM     10  N   UNL     1      -2.024  13.784  22.796  0.00  0.00    +0.000 N 
ATOM     11  C   UNL     1      -2.190  12.515  22.210  0.00  0.00    +0.000 A 
ATOM     12  C   UNL     1      -3.521  12.427  21.822  0.00  0.00    +0.000 A 
ATOM     13  C   UNL     1      -4.179  13.634  22.150  0.00  0.00    +0.000 A 
ATOM     14  C   UNL     1      -5.490  14.114  21.952  0.00  0.00    +0.000 A 
ATOM     15  C   UNL     1      -5.824  15.408  22.370  0.00  0.00    +0.000 A 
ATOM     16  C   UNL     1      -4.877  16.214  22.994  0.00  0.00    +0.000 A 
ATOM     17  C   UNL     1      -3.581  15.750  23.221  0.00  0.00    +0.000 A 
ATOM     18  C   UNL     1      -3.250  14.451  22.786  0.00  0.00    +0.000 A 
ATOM     19  H   UNL     1       1.052  14.768  22.587  0.00  0.00    +0.000 HD
ATOM     20  H   UNL     1       0.062  13.926  21.432  0.00  0.00    +0.000 HD
ENDBRANCH   1  11
BRANCH   4  21
ATOM     21  N   UNL     1       1.526   8.221  21.569  0.00  0.00    +0.000 N 
ATOM     22  C   UNL     1       1.861   7.695  20.339  0.00  0.00    +0.000 C 
ATOM     23  O   UNL     1       1.672   8.261  19.268  0.00  0.00    +0.000 OA
ATOM     24  N   UNL     1       2.399   6.411  20.440  0.00  0.00    +0.000 N 
ATOM     25  H   UNL     1       2.089   7.922  22.352  0.00  0.00    +0.000 HD
ATOM     26  H   UNL     1       1.994   5.864  21.186  0.00  0.00    +0.000 HD
BRANCH  24  27
ATOM     27  C   UNL     1       2.724   5.717  19.252  0.00  0.00    +0.000 A 
ATOM     28  C   UNL     1       1.840   4.779  18.704  0.00  0.00    +0.000 A 
ATOM     29  C   UNL     1       2.241   3.961  17.655  0.00  0.00    +0.000 A 
ATOM     30  C   UNL     1       3.527   4.085  17.135  0.00  0.00    +0.000 A 
ATOM     31  C   UNL     1       4.390   5.063  17.635  0.00  0.00    +0.000 A 
ATOM     32  C   UNL     1       3.979   5.902  18.678  0.00  0.00    +0.000 A 
ENDBRANCH  24  27
ENDBRANCH   4  21
TORSDOF 3
ENDMDL
MODEL 9
REMARK VINA RESULT:      -8.1      6.344      7.705
REMARK  Name = 
REMARK  3 active torsions:
REMARK  status: ('A' for Active; 'I' for Inactive)
REMARK    1  A    between atoms: C_5  and  C_6
REMARK    2  A    between atoms: C_9  and  N_10
REMARK    3  A    between atoms: N_13  and  C_14
REMARK                            x       y       z     vdW  Elec       q    Type
REMARK                         _______ _______ _______ _____ _____    ______ ____
ROOT
ATOM      1  C   UNL     1       0.635  12.165  19.670  0.00  0.00    +0.000 A 
ATOM      2  C   UNL     1       0.941  11.797  20.981  0.00  0.00    +0.000 A 
ATOM      3  C   UNL     1       1.162  10.460  21.318  0.00  0.00    +0.000 A 
ATOM      4  C   UNL     1       1.006   9.439  20.369  0.00  0.00    +0.000 A 
ATOM      5  C   UNL     1       0.611   9.790  19.081  0.00  0.00    +0.000 A 
ATOM      6  C   UNL     1       0.423  11.139  18.735  0.00  0.00    +0.000 A 
ENDROOT
BRANCH   1  11
ATOM      7  N   UNL     1       3.068  12.825  17.844  0.00  0.00    +0.000 N 
ATOM      8  C   UNL     1       2.994  13.958  18.600  0.00  0.00    +0.000 C 
ATOM      9  O   UNL     1       3.942  14.625  18.973  0.00  0.00    +0.000 OA
ATOM     10  N   UNL     1       1.661  14.362  18.842  0.00  0.00    +0.000 N 
ATOM     11  C   UNL     1       0.570  13.581  19.265  0.00  0.00    +0.000 A 
ATOM     12  C   UNL     1      -0.544  14.411  19.248  0.00  0.00    +0.000 A 
ATOM     13  C   UNL     1      -0.156  15.697  18.805  0.00  0.00    +0.000 A 
ATOM     14  C   UNL     1      -0.857  16.894  18.554  0.00  0.00    +0.000 A 
ATOM     15  C   UNL     1      -0.167  18.011  18.070  0.00  0.00    +0.000 A 
ATOM     16  C   UNL     1       1.206  17.954  17.853  0.00  0.00    +0.000 A 
ATOM     17  C   UNL     1       1.923  16.787  18.119  0.00  0.00    +0.000 A 
ATOM     18  C   UNL     1       1.219  15.663  18.594  0.00  0.00    +0.000 A 
ATOM     19  H   UNL     1       3.985  12.514  17.556  0.00  0.00    +0.000 HD
ATOM     20  H   UNL     1       2.256  12.407  17.409  0.00  0.00    +0.000 HD
ENDBRANCH   1  11
BRANCH   4  21
ATOM     21  N   UNL     1       1.281   8.086  20.661  0.00  0.00    +0.000 N 
ATOM     22  C   UNL     1       2.010   7.254  19.837  0.00  0.00    +0.000 C 
ATOM     23  O   UNL     1       2.682   7.637  18.885  0.00  0.00    +0.000 OA
ATOM     24  N   UNL     1       1.860   5.908  20.174  0.00  0.00    +0.000 N 
ATOM     25  H   UNL     1       1.148   7.769  21.611  0.00  0.00    +0.000 HD
ATOM     26  H   UNL     1       0.937   5.681  20.515  0.00  0.00    +0.000 HD
BRANCH  24  27
ATOM     27  C   UNL     1       2.493   4.933  19.369  0.00  0.00    +0.000 A 
ATOM     28  C   UNL     1       3.837   4.595  19.573  0.00  0.00    +0.000 A 
ATOM     29  C   UNL     1       4.506   3.787  18.663  0.00  0.00    +0.000 A 
ATOM     30  C   UNL     1       3.832   3.297  17.547  0.00  0.00    +0.000 A 
ATOM     31  C   UNL     1       2.475   3.579  17.373  0.00  0.00    +0.000 A 
ATOM     32  C   UNL     1       1.793   4.376  18.301  0.00  0.00    +0.000 A 
ENDBRANCH  24  27
ENDBRANCH   4  21
TORSDOF 3
ENDMDL
