MODEL 1
REMARK VINA RESULT:      -8.1      0.000      0.000
REMARK  Name = 
REMARK  8 active torsions:
REMARK  status: ('A' for Active; 'I' for Inactive)
REMARK    1  A    between atoms: C_2  and  C_3
REMARK    2  A    between atoms: C_5  and  C_6
REMARK    3  A    between atoms: C_9  and  C_10
REMARK    4  A    between atoms: C_10  and  O_11
REMARK    5  A    between atoms: O_11  and  C_12
REMARK    6  A    between atoms: C_20  and  N_21
REMARK    7  A    between atoms: N_21  and  C_22
REMARK    8  A    between atoms: C_22  and  C_23
REMARK                            x       y       z     vdW  Elec       q    Type
REMARK                         _______ _______ _______ _____ _____    ______ ____
ROOT
ATOM      1  C   UNL     1       4.950   5.974  16.938  0.00  0.00    +0.000 A 
ATOM      2  N   UNL     1       4.437   7.208  17.283  0.00  0.00    +0.000 NA
ATOM      3  C   UNL     1       3.300   6.923  17.900  0.00  0.00    +0.000 A 
ATOM      4  O   UNL     1       3.037   5.574  17.960  0.00  0.00    +0.000 OA
ATOM      5  C   UNL     1       4.080   4.971  17.313  0.00  0.00    +0.000 A 
ENDROOT
BRANCH   3   6
ATOM      6  C   UNL     1       2.430   7.928  18.452  0.00  0.00    +0.000 A 
ATOM      7  C   UNL     1       1.957   9.073  17.836  0.00  0.00    +0.000 A 
ATOM      8  C   UNL     1       1.163   9.769  18.781  0.00  0.00    +0.000 A 
ATOM      9  C   UNL     1       1.204   9.027  19.942  0.00  0.00    +0.000 A 
ATOM     10  O   UNL     1       1.946   7.896  19.741  0.00  0.00    +0.000 OA
BRANCH   9  11
ATOM     11  C   UNL     1       0.688   9.268  21.318  0.00  0.00    +0.000 C 
BRANCH  11  12
ATOM     12  O   UNL     1       0.777  10.669  21.586  0.00  0.00    +0.000 OA
BRANCH  12  13
ATOM     13  C   UNL     1      -0.428  11.318  21.702  0.00  0.00    +0.000 A 
ATOM     14  C   UNL     1      -1.042  11.233  22.955  0.00  0.00    +0.000 A 
ATOM     15  C   UNL     1      -2.276  11.845  23.187  0.00  0.00    +0.000 A 
ATOM     16  C   UNL     1      -2.897  12.565  22.169  0.00  0.00    +0.000 A 
ATOM     17  C   UNL     1      -2.279  12.681  20.927  0.00  0.00    +0.000 A 
ATOM     18  C   UNL     1      -1.046  12.062  20.694  0.00  0.00    +0.000 A 
ENDBRANCH  12  13
ENDBRANCH  11  12
ENDBRANCH   9  11
ENDBRANCH   3   6
BRANCH   1  20
ATOM     19  N   UNL     1       7.284   5.783  15.834  0.00  0.00    +0.000 NA
ATOM     20  C   UNL     1       6.232   5.854  16.321  0.00  0.00    +0.000 C 
ENDBRANCH   1  20
BRANCH   5  21
ATOM     21  N   UNL     1       3.991   3.625  17.233  0.00  0.00    +0.000 N 
ATOM     22  H   UNL     1       4.851   3.101  17.382  0.00  0.00    +0.000 HD
BRANCH  21  23
ATOM     23  C   UNL     1       2.784   2.881  17.556  0.00  0.00    +0.000 C 
BRANCH  23  24
ATOM     24  C   UNL     1       2.469   2.827  19.030  0.00  0.00    +0.000 A 
ATOM     25  C   UNL     1       1.209   3.058  19.592  0.00  0.00    +0.000 A 
ATOM     26  C   UNL     1       1.037   2.987  20.975  0.00  0.00    +0.000 A 
ATOM     27  C   UNL     1       2.135   2.689  21.762  0.00  0.00    +0.000 A 
ATOM     28  N   UNL     1       3.368   2.464  21.266  0.00  0.00    +0.000 NA
ATOM     29  C   UNL     1       3.504   2.536  19.920  0.00  0.00    +0.000 A 
ENDBRANCH  23  24
ENDBRANCH  21  23
ENDBRANCH   5  21
TORSDOF 8
ENDMDL
MODEL 2
REMARK VINA RESULT:      -8.1      0.818      1.225
REMARK  Name = 
REMARK  8 active torsions:
REMARK  status: ('A' for Active; 'I' for Inactive)
REMARK    1  A    between atoms: C_2  and  C_3
REMARK    2  A    between atoms: C_5  and  C_6
REMARK    3  A    between atoms: C_9  and  C_10
REMARK    4  A    between atoms: C_10  and  O_11
REMARK    5  A    between atoms: O_11  and  C_12
REMARK    6  A    between atoms: C_20  and  N_21
REMARK    7  A    between atoms: N_21  and  C_22
REMARK    8  A    between atoms: C_22  and  C_23
REMARK                            x       y       z     vdW  Elec       q    Type
REMARK                         _______ _______ _______ _____ _____    ______ ____
ROOT
ATOM      1  C   UNL     1       5.225   5.437  16.661  0.00  0.00    +0.000 A 
ATOM      2  N   UNL     1       4.637   6.667  16.873  0.00  0.00    +0.000 NA
ATOM      3  C   UNL     1       3.684   6.421  17.759  0.00  0.00    +0.000 A 
ATOM      4  O   UNL     1       3.608   5.096  18.122  0.00  0.00    +0.000 OA
ATOM      5  C   UNL     1       4.575   4.463  17.391  0.00  0.00    +0.000 A 
ENDROOT
BRANCH   3   6
ATOM      6  C   UNL     1       2.817   7.441  18.287  0.00  0.00    +0.000 A 
ATOM      7  C   UNL     1       2.334   8.564  17.640  0.00  0.00    +0.000 A 
ATOM      8  C   UNL     1       1.549   9.289  18.570  0.00  0.00    +0.000 A 
ATOM      9  C   UNL     1       1.605   8.585  19.754  0.00  0.00    +0.000 A 
ATOM     10  O   UNL     1       2.349   7.450  19.582  0.00  0.00    +0.000 OA
BRANCH   9  11
ATOM     11  C   UNL     1       1.103   8.870  21.128  0.00  0.00    +0.000 C 
BRANCH  11  12
ATOM     12  O   UNL     1      -0.302   9.116  21.044  0.00  0.00    +0.000 OA
BRANCH  12  13
ATOM     13  C   UNL     1      -0.696  10.377  21.423  0.00  0.00    +0.000 A 
ATOM     14  C   UNL     1      -0.951  11.269  20.379  0.00  0.00    +0.000 A 
ATOM     15  C   UNL     1      -1.348  12.582  20.644  0.00  0.00    +0.000 A 
ATOM     16  C   UNL     1      -1.510  13.006  21.961  0.00  0.00    +0.000 A 
ATOM     17  C   UNL     1      -1.288  12.116  23.007  0.00  0.00    +0.000 A 
ATOM     18  C   UNL     1      -0.883  10.803  22.741  0.00  0.00    +0.000 A 
ENDBRANCH  12  13
ENDBRANCH  11  12
ENDBRANCH   9  11
ENDBRANCH   3   6
BRANCH   1  20
ATOM     19  N   UNL     1       7.282   5.192  15.108  0.00  0.00    +0.000 NA
ATOM     20  C   UNL     1       6.370   5.300  15.819  0.00  0.00    +0.000 C 
ENDBRANCH   1  20
BRANCH   5  21
ATOM     21  N   UNL     1       4.641   3.127  17.582  0.00  0.00    +0.000 N 
ATOM     22  H   UNL     1       5.486   2.769  18.022  0.00  0.00    +0.000 HD
BRANCH  21  23
ATOM     23  C   UNL     1       3.471   2.287  17.786  0.00  0.00    +0.000 C 
BRANCH  23  24
ATOM     24  C   UNL     1       2.810   2.468  19.130  0.00  0.00    +0.000 A 
ATOM     25  C   UNL     1       1.454   2.751  19.328  0.00  0.00    +0.000 A 
ATOM     26  C   UNL     1       0.954   2.904  20.622  0.00  0.00    +0.000 A 
ATOM     27  C   UNL     1       1.827   2.771  21.687  0.00  0.00    +0.000 A 
ATOM     28  N   UNL     1       3.141   2.504  21.544  0.00  0.00    +0.000 NA
ATOM     29  C   UNL     1       3.597   2.357  20.278  0.00  0.00    +0.000 A 
ENDBRANCH  23  24
ENDBRANCH  21  23
ENDBRANCH   5  21
TORSDOF 8
ENDMDL
MODEL 3
REMARK VINA RESULT:      -8.0      0.778      1.040
REMARK  Name = 
REMARK  8 active torsions:
REMARK  status: ('A' for Active; 'I' for Inactive)
REMARK    1  A    between atoms: C_2  and  C_3
REMARK    2  A    between atoms: C_5  and  C_6
REMARK    3  A    between atoms: C_9  and  C_10
REMARK    4  A    between atoms: C_10  and  O_11
REMARK    5  A    between atoms: O_11  and  C_12
REMARK    6  A    between atoms: C_20  and  N_21
REMARK    7  A    between atoms: N_21  and  C_22
REMARK    8  A    between atoms: C_22  and  C_23
REMARK                            x       y       z     vdW  Elec       q    Type
REMARK                         _______ _______ _______ _____ _____    ______ ____
ROOT
ATOM      1  C   UNL     1       5.293   5.723  16.848  0.00  0.00    +0.000 A 
ATOM      2  N   UNL     1       4.640   6.922  17.046  0.00  0.00    +0.000 NA
ATOM      3  C   UNL     1       3.674   6.625  17.904  0.00  0.00    +0.000 A 
ATOM      4  O   UNL     1       3.654   5.296  18.259  0.00  0.00    +0.000 OA
ATOM      5  C   UNL     1       4.672   4.715  17.556  0.00  0.00    +0.000 A 
ENDROOT
BRANCH   3   6
ATOM      6  C   UNL     1       2.743   7.598  18.410  0.00  0.00    +0.000 A 
ATOM      7  C   UNL     1       2.225   8.700  17.753  0.00  0.00    +0.000 A 
ATOM      8  C   UNL     1       1.378   9.380  18.662  0.00  0.00    +0.000 A 
ATOM      9  C   UNL     1       1.433   8.673  19.844  0.00  0.00    +0.000 A 
ATOM     10  O   UNL     1       2.236   7.577  19.689  0.00  0.00    +0.000 OA
BRANCH   9  11
ATOM     11  C   UNL     1       0.876   8.925  21.203  0.00  0.00    +0.000 C 
BRANCH  11  12
ATOM     12  O   UNL     1       1.053  10.310  21.504  0.00  0.00    +0.000 OA
BRANCH  12  13
ATOM     13  C   UNL     1      -0.110  11.031  21.634  0.00  0.00    +0.000 A 
ATOM     14  C   UNL     1      -0.746  10.932  22.875  0.00  0.00    +0.000 A 
ATOM     15  C   UNL     1      -1.942  11.613  23.119  0.00  0.00    +0.000 A 
ATOM     16  C   UNL     1      -2.501  12.414  22.125  0.00  0.00    +0.000 A 
ATOM     17  C   UNL     1      -1.858  12.542  20.897  0.00  0.00    +0.000 A 
ATOM     18  C   UNL     1      -0.665  11.854  20.651  0.00  0.00    +0.000 A 
ENDBRANCH  12  13
ENDBRANCH  11  12
ENDBRANCH   9  11
ENDBRANCH   3   6
BRANCH   1  20
ATOM     19  N   UNL     1       7.419   5.552  15.379  0.00  0.00    +0.000 NA
ATOM     20  C   UNL     1       6.468   5.646  16.039  0.00  0.00    +0.000 C 
ENDBRANCH   1  20
BRANCH   5  21
ATOM     21  N   UNL     1       4.798   3.382  17.743  0.00  0.00    +0.000 N 
ATOM     22  H   UNL     1       5.619   3.069  18.258  0.00  0.00    +0.000 HD
BRANCH  21  23
ATOM     23  C   UNL     1       3.665   2.474  17.834  0.00  0.00    +0.000 C 
BRANCH  23  24
ATOM     24  C   UNL     1       2.866   2.611  19.107  0.00  0.00    +0.000 A 
ATOM     25  C   UNL     1       3.400   2.574  20.399  0.00  0.00    +0.000 A 
ATOM     26  C   UNL     1       2.560   2.705  21.506  0.00  0.00    +0.000 A 
ATOM     27  C   UNL     1       1.203   2.868  21.289  0.00  0.00    +0.000 A 
ATOM     28  N   UNL     1       0.644   2.905  20.063  0.00  0.00    +0.000 NA
ATOM     29  C   UNL     1       1.484   2.779  19.008  0.00  0.00    +0.000 A 
ENDBRANCH  23  24
ENDBRANCH  21  23
ENDBRANCH   5  21
TORSDOF 8
ENDMDL
MODEL 4
REMARK VINA RESULT:      -8.0      3.301      8.311
REMARK  Name = 
REMARK  8 active torsions:
REMARK  status: ('A' for Active; 'I' for Inactive)
REMARK    1  A    between atoms: C_2  and  C_3
REMARK    2  A    between atoms: C_5  and  C_6
REMARK    3  A    between atoms: C_9  and  C_10
REMARK    4  A    between atoms: C_10  and  O_11
REMARK    5  A    between atoms: O_11  and  C_12
REMARK    6  A    between atoms: C_20  and  N_21
REMARK    7  A    between atoms: N_21  and  C_22
REMARK    8  A    between atoms: C_22  and  C_23
REMARK                            x       y       z     vdW  Elec       q    Type
REMARK                         _______ _______ _______ _____ _____    ______ ____
ROOT
ATOM      1  C   UNL     1       1.163   8.886  20.394  0.00  0.00    +0.000 A 
ATOM      2  N   UNL     1       1.966   7.794  20.137  0.00  0.00    +0.000 NA
ATOM      3  C   UNL     1       2.232   7.887  18.843  0.00  0.00    +0.000 A 
ATOM      4  O   UNL     1       1.632   8.968  18.241  0.00  0.00    +0.000 OA
ATOM      5  C   UNL     1       0.921   9.587  19.231  0.00  0.00    +0.000 A 
ENDROOT
BRANCH   3   6
ATOM      6  C   UNL     1       3.067   6.947  18.141  0.00  0.00    +0.000 A 
ATOM      7  C   UNL     1       4.230   7.205  17.437  0.00  0.00    +0.000 A 
ATOM      8  C   UNL     1       4.679   5.977  16.891  0.00  0.00    +0.000 A 
ATOM      9  C   UNL     1       3.756   5.025  17.269  0.00  0.00    +0.000 A 
ATOM     10  O   UNL     1       2.792   5.601  18.050  0.00  0.00    +0.000 OA
BRANCH   9  11
ATOM     11  C   UNL     1       3.586   3.586  16.926  0.00  0.00    +0.000 C 
BRANCH  11  12
ATOM     12  O   UNL     1       3.936   2.811  18.074  0.00  0.00    +0.000 OA
BRANCH  12  13
ATOM     13  C   UNL     1       2.988   2.783  19.069  0.00  0.00    +0.000 A 
ATOM     14  C   UNL     1       3.478   2.893  20.373  0.00  0.00    +0.000 A 
ATOM     15  C   UNL     1       2.608   2.866  21.466  0.00  0.00    +0.000 A 
ATOM     16  C   UNL     1       1.235   2.747  21.259  0.00  0.00    +0.000 A 
ATOM     17  C   UNL     1       0.736   2.667  19.962  0.00  0.00    +0.000 A 
ATOM     18  C   UNL     1       1.609   2.687  18.869  0.00  0.00    +0.000 A 
ENDBRANCH  12  13
ENDBRANCH  11  12
ENDBRANCH   9  11
ENDBRANCH   3   6
BRANCH   1  20
ATOM     19  N   UNL     1       0.379   9.404  22.807  0.00  0.00    +0.000 NA
ATOM     20  C   UNL     1       0.729   9.190  21.720  0.00  0.00    +0.000 C 
ENDBRANCH   1  20
BRANCH   5  21
ATOM     21  N   UNL     1       0.220  10.671  18.828  0.00  0.00    +0.000 N 
ATOM     22  H   UNL     1       0.515  11.108  17.957  0.00  0.00    +0.000 HD
BRANCH  21  23
ATOM     23  C   UNL     1      -1.184  10.881  19.144  0.00  0.00    +0.000 C 
BRANCH  23  24
ATOM     24  C   UNL     1      -2.108  10.758  17.958  0.00  0.00    +0.000 A 
ATOM     25  C   UNL     1      -1.902   9.915  16.861  0.00  0.00    +0.000 A 
ATOM     26  C   UNL     1      -2.825   9.890  15.815  0.00  0.00    +0.000 A 
ATOM     27  C   UNL     1      -3.934  10.715  15.894  0.00  0.00    +0.000 A 
ATOM     28  N   UNL     1      -4.171  11.546  16.928  0.00  0.00    +0.000 NA
ATOM     29  C   UNL     1      -3.261  11.546  17.930  0.00  0.00    +0.000 A 
ENDBRANCH  23  24
ENDBRANCH  21  23
ENDBRANCH   5  21
TORSDOF 8
ENDMDL
MODEL 5
REMARK VINA RESULT:      -8.0      2.127      2.822
REMARK  Name = 
REMARK  8 active torsions:
REMARK  status: ('A' for Active; 'I' for Inactive)
REMARK    1  A    between atoms: C_2  and  C_3
REMARK    2  A    between atoms: C_5  and  C_6
REMARK    3  A    between atoms: C_9  and  C_10
REMARK    4  A    between atoms: C_10  and  O_11
REMARK    5  A    between atoms: O_11  and  C_12
REMARK    6  A    between atoms: C_20  and  N_21
REMARK    7  A    between atoms: N_21  and  C_22
REMARK    8  A    between atoms: C_22  and  C_23
REMARK                            x       y       z     vdW  Elec       q    Type
REMARK                         _______ _______ _______ _____ _____    ______ ____
ROOT
ATOM      1  C   UNL     1       4.795   5.963  17.040  0.00  0.00    +0.000 A 
ATOM      2  N   UNL     1       4.353   7.151  17.584  0.00  0.00    +0.000 NA
ATOM      3  C   UNL     1       3.175   6.847  18.109  0.00  0.00    +0.000 A 
ATOM      4  O   UNL     1       2.821   5.531  17.921  0.00  0.00    +0.000 OA
ATOM      5  C   UNL     1       3.846   4.976  17.208  0.00  0.00    +0.000 A 
ENDROOT
BRANCH   3   6
ATOM      6  C   UNL     1       2.354   7.801  18.806  0.00  0.00    +0.000 A 
ATOM      7  C   UNL     1       1.868   7.720  20.099  0.00  0.00    +0.000 A 
ATOM      8  C   UNL     1       1.081   8.874  20.333  0.00  0.00    +0.000 A 
ATOM      9  C   UNL     1       1.103   9.600  19.161  0.00  0.00    +0.000 A 
ATOM     10  O   UNL     1       1.895   8.970  18.242  0.00  0.00    +0.000 OA
BRANCH   9  11
ATOM     11  C   UNL     1       0.389  10.830  18.717  0.00  0.00    +0.000 C 
BRANCH  11  12
ATOM     12  O   UNL     1      -0.960  10.752  19.181  0.00  0.00    +0.000 OA
BRANCH  12  13
ATOM     13  C   UNL     1      -1.914  10.699  18.193  0.00  0.00    +0.000 A 
ATOM     14  C   UNL     1      -3.008  11.552  18.364  0.00  0.00    +0.000 A 
ATOM     15  C   UNL     1      -4.045  11.577  17.427  0.00  0.00    +0.000 A 
ATOM     16  C   UNL     1      -3.984  10.759  16.301  0.00  0.00    +0.000 A 
ATOM     17  C   UNL     1      -2.884   9.929  16.108  0.00  0.00    +0.000 A 
ATOM     18  C   UNL     1      -1.849   9.899  17.049  0.00  0.00    +0.000 A 
ENDBRANCH  12  13
ENDBRANCH  11  12
ENDBRANCH   9  11
ENDBRANCH   3   6
BRANCH   1  20
ATOM     19  N   UNL     1       7.149   5.804  15.973  0.00  0.00    +0.000 NA
ATOM     20  C   UNL     1       6.090   5.858  16.448  0.00  0.00    +0.000 C 
ENDBRANCH   1  20
BRANCH   5  21
ATOM     21  N   UNL     1       3.669   3.675  16.887  0.00  0.00    +0.000 N 
ATOM     22  H   UNL     1       3.831   3.418  15.915  0.00  0.00    +0.000 HD
BRANCH  21  23
ATOM     23  C   UNL     1       3.873   2.582  17.825  0.00  0.00    +0.000 C 
BRANCH  23  24
ATOM     24  C   UNL     1       3.014   2.664  19.062  0.00  0.00    +0.000 A 
ATOM     25  C   UNL     1       3.497   2.785  20.370  0.00  0.00    +0.000 A 
ATOM     26  C   UNL     1       2.605   2.845  21.441  0.00  0.00    +0.000 A 
ATOM     27  C   UNL     1       1.249   2.780  21.175  0.00  0.00    +0.000 A 
ATOM     28  N   UNL     1       0.738   2.659  19.933  0.00  0.00    +0.000 NA
ATOM     29  C   UNL     1       1.627   2.607  18.913  0.00  0.00    +0.000 A 
ENDBRANCH  23  24
ENDBRANCH  21  23
ENDBRANCH   5  21
TORSDOF 8
ENDMDL
MODEL 6
REMARK VINA RESULT:      -8.0      3.459      8.524
REMARK  Name = 
REMARK  8 active torsions:
REMARK  status: ('A' for Active; 'I' for Inactive)
REMARK    1  A    between atoms: C_2  and  C_3
REMARK    2  A    between atoms: C_5  and  C_6
REMARK    3  A    between atoms: C_9  and  C_10
REMARK    4  A    between atoms: C_10  and  O_11
REMARK    5  A    between atoms: O_11  and  C_12
REMARK    6  A    between atoms: C_20  and  N_21
REMARK    7  A    between atoms: N_21  and  C_22
REMARK    8  A    between atoms: C_22  and  C_23
REMARK                            x       y       z     vdW  Elec       q    Type
REMARK                         _______ _______ _______ _____ _____    ______ ____
ROOT
ATOM      1  C   UNL     1       0.733   8.839  21.462  0.00  0.00    +0.000 A 
ATOM      2  N   UNL     1       1.044   7.508  21.652  0.00  0.00    +0.000 NA
ATOM      3  C   UNL     1       1.600   7.140  20.507  0.00  0.00    +0.000 A 
ATOM      4  O   UNL     1       1.651   8.152  19.578  0.00  0.00    +0.000 OA
ATOM      5  C   UNL     1       1.065   9.230  20.181  0.00  0.00    +0.000 A 
ENDROOT
BRANCH   3   6
ATOM      6  C   UNL     1       2.098   5.812  20.265  0.00  0.00    +0.000 A 
ATOM      7  C   UNL     1       1.679   4.627  20.845  0.00  0.00    +0.000 A 
ATOM      8  C   UNL     1       2.484   3.587  20.322  0.00  0.00    +0.000 A 
ATOM      9  C   UNL     1       3.377   4.186  19.459  0.00  0.00    +0.000 A 
ATOM     10  O   UNL     1       3.131   5.529  19.399  0.00  0.00    +0.000 OA
BRANCH   9  11
ATOM     11  C   UNL     1       4.549   3.672  18.695  0.00  0.00    +0.000 C 
BRANCH  11  12
ATOM     12  O   UNL     1       5.735   4.186  19.304  0.00  0.00    +0.000 OA
BRANCH  12  13
ATOM     13  C   UNL     1       6.299   5.262  18.663  0.00  0.00    +0.000 A 
ATOM     14  C   UNL     1       7.470   5.762  19.240  0.00  0.00    +0.000 A 
ATOM     15  C   UNL     1       8.126   6.862  18.681  0.00  0.00    +0.000 A 
ATOM     16  C   UNL     1       7.623   7.459  17.527  0.00  0.00    +0.000 A 
ATOM     17  C   UNL     1       6.474   6.948  16.929  0.00  0.00    +0.000 A 
ATOM     18  C   UNL     1       5.814   5.852  17.493  0.00  0.00    +0.000 A 
ENDBRANCH  12  13
ENDBRANCH  11  12
ENDBRANCH   9  11
ENDBRANCH   3   6
BRANCH   1  20
ATOM     19  N   UNL     1      -0.227  10.271  23.393  0.00  0.00    +0.000 NA
ATOM     20  C   UNL     1       0.187   9.629  22.518  0.00  0.00    +0.000 C 
ENDBRANCH   1  20
BRANCH   5  21
ATOM     21  N   UNL     1       0.985  10.335  19.406  0.00  0.00    +0.000 N 
ATOM     22  H   UNL     1       1.683  11.058  19.568  0.00  0.00    +0.000 HD
BRANCH  21  23
ATOM     23  C   UNL     1       0.446  10.330  18.055  0.00  0.00    +0.000 C 
BRANCH  23  24
ATOM     24  C   UNL     1      -1.047  10.534  17.986  0.00  0.00    +0.000 A 
ATOM     25  C   UNL     1      -1.915   9.841  17.137  0.00  0.00    +0.000 A 
ATOM     26  C   UNL     1      -3.283  10.120  17.155  0.00  0.00    +0.000 A 
ATOM     27  C   UNL     1      -3.746  11.091  18.026  0.00  0.00    +0.000 A 
ATOM     28  N   UNL     1      -2.947  11.787  18.858  0.00  0.00    +0.000 NA
ATOM     29  C   UNL     1      -1.626  11.492  18.821  0.00  0.00    +0.000 A 
ENDBRANCH  23  24
ENDBRANCH  21  23
ENDBRANCH   5  21
TORSDOF 8
ENDMDL
MODEL 7
REMARK VINA RESULT:      -7.9      2.024      2.623
REMARK  Name = 
REMARK  8 active torsions:
REMARK  status: ('A' for Active; 'I' for Inactive)
REMARK    1  A    between atoms: C_2  and  C_3
REMARK    2  A    between atoms: C_5  and  C_6
REMARK    3  A    between atoms: C_9  and  C_10
REMARK    4  A    between atoms: C_10  and  O_11
REMARK    5  A    between atoms: O_11  and  C_12
REMARK    6  A    between atoms: C_20  and  N_21
REMARK    7  A    between atoms: N_21  and  C_22
REMARK    8  A    between atoms: C_22  and  C_23
REMARK                            x       y       z     vdW  Elec       q    Type
REMARK                         _______ _______ _______ _____ _____    ______ ____
ROOT
ATOM      1  C   UNL     1       5.399   4.922  17.694  0.00  0.00    +0.000 A 
ATOM      2  N   UNL     1       4.967   6.164  18.111  0.00  0.00    +0.000 NA
ATOM      3  C   UNL     1       3.672   5.997  18.336  0.00  0.00    +0.000 A 
ATOM      4  O   UNL     1       3.236   4.720  18.070  0.00  0.00    +0.000 OA
ATOM      5  C   UNL     1       4.338   4.043  17.627  0.00  0.00    +0.000 A 
ENDROOT
BRANCH   3   6
ATOM      6  C   UNL     1       2.812   7.049  18.810  0.00  0.00    +0.000 A 
ATOM      7  C   UNL     1       2.179   7.141  20.037  0.00  0.00    +0.000 A 
ATOM      8  C   UNL     1       1.415   8.333  20.034  0.00  0.00    +0.000 A 
ATOM      9  C   UNL     1       1.597   8.907  18.794  0.00  0.00    +0.000 A 
ATOM     10  O   UNL     1       2.465   8.149  18.058  0.00  0.00    +0.000 OA
BRANCH   9  11
ATOM     11  C   UNL     1       0.986  10.089  18.124  0.00  0.00    +0.000 C 
BRANCH  11  12
ATOM     12  O   UNL     1      -0.123  10.522  18.914  0.00  0.00    +0.000 OA
BRANCH  12  13
ATOM     13  C   UNL     1      -1.329  10.553  18.258  0.00  0.00    +0.000 A 
ATOM     14  C   UNL     1      -2.264  11.465  18.755  0.00  0.00    +0.000 A 
ATOM     15  C   UNL     1      -3.530  11.577  18.173  0.00  0.00    +0.000 A 
ATOM     16  C   UNL     1      -3.863  10.786  17.075  0.00  0.00    +0.000 A 
ATOM     17  C   UNL     1      -2.927   9.896  16.555  0.00  0.00    +0.000 A 
ATOM     18  C   UNL     1      -1.663   9.780  17.142  0.00  0.00    +0.000 A 
ENDBRANCH  12  13
ENDBRANCH  11  12
ENDBRANCH   9  11
ENDBRANCH   3   6
BRANCH   1  20
ATOM     19  N   UNL     1       7.897   4.431  17.222  0.00  0.00    +0.000 NA
ATOM     20  C   UNL     1       6.780   4.669  17.433  0.00  0.00    +0.000 C 
ENDBRANCH   1  20
BRANCH   5  21
ATOM     21  N   UNL     1       4.107   2.758  17.276  0.00  0.00    +0.000 N 
ATOM     22  H   UNL     1       4.568   2.426  16.431  0.00  0.00    +0.000 HD
BRANCH  21  23
ATOM     23  C   UNL     1       3.808   1.706  18.234  0.00  0.00    +0.000 C 
BRANCH  23  24
ATOM     24  C   UNL     1       2.938   2.149  19.384  0.00  0.00    +0.000 A 
ATOM     25  C   UNL     1       1.573   2.438  19.296  0.00  0.00    +0.000 A 
ATOM     26  C   UNL     1       0.869   2.847  20.429  0.00  0.00    +0.000 A 
ATOM     27  C   UNL     1       1.555   2.958  21.626  0.00  0.00    +0.000 A 
ATOM     28  N   UNL     1       2.870   2.695  21.758  0.00  0.00    +0.000 NA
ATOM     29  C   UNL     1       3.526   2.297  20.643  0.00  0.00    +0.000 A 
ENDBRANCH  23  24
ENDBRANCH  21  23
ENDBRANCH   5  21
TORSDOF 8
ENDMDL
MODEL 8
REMARK VINA RESULT:      -7.9      2.417      4.776
REMARK  Name = 
REMARK  8 active torsions:
REMARK  status: ('A' for Active; 'I' for Inactive)
REMARK    1  A    between atoms: C_2  and  C_3
REMARK    2  A    between atoms: C_5  and  C_6
REMARK    3  A    between atoms: C_9  and  C_10
REMARK    4  A    between atoms: C_10  and  O_11
REMARK    5  A    between atoms: O_11  and  C_12
REMARK    6  A    between atoms: C_20  and  N_21
REMARK    7  A    between atoms: N_21  and  C_22
REMARK    8  A    between atoms: C_22  and  C_23
REMARK                            x       y       z     vdW  Elec       q    Type
REMARK                         _______ _______ _______ _____ _____    ______ ____
ROOT
ATOM      1  C   UNL     1       2.524   4.760  20.586  0.00  0.00    +0.000 A 
ATOM      2  N   UNL     1       1.786   5.926  20.635  0.00  0.00    +0.000 NA
ATOM      3  C   UNL     1       2.334   6.693  19.704  0.00  0.00    +0.000 A 
ATOM      4  O   UNL     1       3.397   6.098  19.066  0.00  0.00    +0.000 OA
ATOM      5  C   UNL     1       3.537   4.872  19.656  0.00  0.00    +0.000 A 
ENDROOT
BRANCH   3   6
ATOM      6  C   UNL     1       1.861   8.016  19.396  0.00  0.00    +0.000 A 
ATOM      7  C   UNL     1       1.991   8.709  18.205  0.00  0.00    +0.000 A 
ATOM      8  C   UNL     1       1.399   9.984  18.386  0.00  0.00    +0.000 A 
ATOM      9  C   UNL     1       0.952  10.021  19.690  0.00  0.00    +0.000 A 
ATOM     10  O   UNL     1       1.203   8.822  20.298  0.00  0.00    +0.000 OA
BRANCH   9  11
ATOM     11  C   UNL     1       0.359  11.101  20.528  0.00  0.00    +0.000 C 
BRANCH  11  12
ATOM     12  O   UNL     1       1.407  11.996  20.904  0.00  0.00    +0.000 OA
BRANCH  12  13
ATOM     13  C   UNL     1       1.437  13.182  20.213  0.00  0.00    +0.000 A 
ATOM     14  C   UNL     1       2.632  13.463  19.545  0.00  0.00    +0.000 A 
ATOM     15  C   UNL     1       2.781  14.646  18.817  0.00  0.00    +0.000 A 
ATOM     16  C   UNL     1       1.724  15.551  18.737  0.00  0.00    +0.000 A 
ATOM     17  C   UNL     1       0.520  15.265  19.374  0.00  0.00    +0.000 A 
ATOM     18  C   UNL     1       0.374  14.084  20.108  0.00  0.00    +0.000 A 
ENDBRANCH  12  13
ENDBRANCH  11  12
ENDBRANCH   9  11
ENDBRANCH   3   6
BRANCH   1  20
ATOM     19  N   UNL     1       1.878   2.708  22.027  0.00  0.00    +0.000 NA
ATOM     20  C   UNL     1       2.180   3.633  21.393  0.00  0.00    +0.000 C 
ENDBRANCH   1  20
BRANCH   5  21
ATOM     21  N   UNL     1       4.566   4.134  19.186  0.00  0.00    +0.000 N 
ATOM     22  H   UNL     1       4.325   3.286  18.677  0.00  0.00    +0.000 HD
BRANCH  21  23
ATOM     23  C   UNL     1       5.853   4.699  18.809  0.00  0.00    +0.000 C 
BRANCH  23  24
ATOM     24  C   UNL     1       6.112   4.705  17.323  0.00  0.00    +0.000 A 
ATOM     25  C   UNL     1       5.392   3.968  16.378  0.00  0.00    +0.000 A 
ATOM     26  C   UNL     1       5.727   4.048  15.026  0.00  0.00    +0.000 A 
ATOM     27  C   UNL     1       6.781   4.864  14.654  0.00  0.00    +0.000 A 
ATOM     28  N   UNL     1       7.506   5.589  15.530  0.00  0.00    +0.000 NA
ATOM     29  C   UNL     1       7.155   5.494  16.834  0.00  0.00    +0.000 A 
ENDBRANCH  23  24
ENDBRANCH  21  23
ENDBRANCH   5  21
TORSDOF 8
ENDMDL
MODEL 9
REMARK VINA RESULT:      -7.9      5.065      7.288
REMARK  Name = 
REMARK  8 active torsions:
REMARK  status: ('A' for Active; 'I' for Inactive)
REMARK    1  A    between atoms: C_2  and  C_3
REMARK    2  A    between atoms: C_5  and  C_6
REMARK    3  A    between atoms: C_9  and  C_10
REMARK    4  A    between atoms: C_10  and  O_11
REMARK    5  A    between atoms: O_11  and  C_12
REMARK    6  A    between atoms: C_20  and  N_21
REMARK    7  A    between atoms: N_21  and  C_22
REMARK    8  A    between atoms: C_22  and  C_23
REMARK                            x       y       z     vdW  Elec       q    Type
REMARK                         _______ _______ _______ _____ _____    ______ ____
ROOT
ATOM      1  C   UNL     1       6.193   4.592  15.343  0.00  0.00    +0.000 A 
ATOM      2  N   UNL     1       6.985   5.699  15.575  0.00  0.00    +0.000 NA
ATOM      3  C   UNL     1       6.862   5.916  16.876  0.00  0.00    +0.000 A 
ATOM      4  O   UNL     1       6.021   5.023  17.499  0.00  0.00    +0.000 OA
ATOM      5  C   UNL     1       5.569   4.197  16.508  0.00  0.00    +0.000 A 
ENDROOT
BRANCH   3   6
ATOM      6  C   UNL     1       7.542   6.981  17.564  0.00  0.00    +0.000 A 
ATOM      7  C   UNL     1       8.222   6.918  18.767  0.00  0.00    +0.000 A 
ATOM      8  C   UNL     1       8.695   8.220  19.060  0.00  0.00    +0.000 A 
ATOM      9  C   UNL     1       8.264   9.028  18.029  0.00  0.00    +0.000 A 
ATOM     10  O   UNL     1       7.589   8.279  17.106  0.00  0.00    +0.000 OA
BRANCH   9  11
ATOM     11  C   UNL     1       8.324  10.500  17.802  0.00  0.00    +0.000 C 
BRANCH  11  12
ATOM     12  O   UNL     1       9.693  10.903  17.865  0.00  0.00    +0.000 OA
BRANCH  12  13
ATOM     13  C   UNL     1       9.904  12.260  17.802  0.00  0.00    +0.000 A 
ATOM     14  C   UNL     1      11.174  12.654  17.374  0.00  0.00    +0.000 A 
ATOM     15  C   UNL     1      11.507  14.008  17.281  0.00  0.00    +0.000 A 
ATOM     16  C   UNL     1      10.560  14.979  17.600  0.00  0.00    +0.000 A 
ATOM     17  C   UNL     1       9.283  14.596  17.998  0.00  0.00    +0.000 A 
ATOM     18  C   UNL     1       8.953  13.240  18.097  0.00  0.00    +0.000 A 
ENDBRANCH  12  13
ENDBRANCH  11  12
ENDBRANCH   9  11
ENDBRANCH   3   6
BRANCH   1  20
ATOM     19  N   UNL     1       6.098   3.516  12.990  0.00  0.00    +0.000 NA
ATOM     20  C   UNL     1       6.130   3.985  14.052  0.00  0.00    +0.000 C 
ENDBRANCH   1  20
BRANCH   5  21
ATOM     21  N   UNL     1       4.689   3.256  16.917  0.00  0.00    +0.000 N 
ATOM     22  H   UNL     1       5.044   2.544  17.552  0.00  0.00    +0.000 HD
BRANCH  21  23
ATOM     23  C   UNL     1       3.260   3.494  17.042  0.00  0.00    +0.000 C 
BRANCH  23  24
ATOM     24  C   UNL     1       2.843   4.060  18.377  0.00  0.00    +0.000 A 
ATOM     25  C   UNL     1       2.639   5.417  18.648  0.00  0.00    +0.000 A 
ATOM     26  C   UNL     1       2.260   5.825  19.927  0.00  0.00    +0.000 A 
ATOM     27  C   UNL     1       2.096   4.861  20.906  0.00  0.00    +0.000 A 
ATOM     28  N   UNL     1       2.285   3.544  20.692  0.00  0.00    +0.000 NA
ATOM     29  C   UNL     1       2.649   3.176  19.441  0.00  0.00    +0.000 A 
ENDBRANCH  23  24
ENDBRANCH  21  23
ENDBRANCH   5  21
TORSDOF 8
ENDMDL
