MODEL 1
REMARK VINA RESULT:      -8.2      0.000      0.000
REMARK  Name = 
REMARK  5 active torsions:
REMARK  status: ('A' for Active; 'I' for Inactive)
REMARK    1  A    between atoms: C_2  and  C_11
REMARK    2  A    between atoms: N_3  and  C_4
REMARK    3  A    between atoms: C_14  and  S_15
REMARK    4  A    between atoms: S_15  and  C_16
REMARK    5  A    between atoms: C_16  and  C_17
REMARK                            x       y       z     vdW  Elec       q    Type
REMARK                         _______ _______ _______ _____ _____    ______ ____
ROOT
ATOM      1  C   UNL     1       2.459   7.933  18.570  0.00  0.00    +0.000 A 
ATOM      2  C   UNL     1       3.389   7.740  17.545  0.00  0.00    +0.000 A 
ATOM      3  C   UNL     1       4.234   6.633  17.586  0.00  0.00    +0.000 A 
ATOM      4  C   UNL     1       4.111   5.739  18.641  0.00  0.00    +0.000 A 
ATOM      5  N   UNL     1       3.207   5.894  19.637  0.00  0.00    +0.000 NA
ATOM      6  C   UNL     1       2.397   6.982  19.575  0.00  0.00    +0.000 A 
ENDROOT
BRANCH   1   8
ATOM      7  O   UNL     1       1.677   9.860  17.562  0.00  0.00    +0.000 OA
ATOM      8  C   UNL     1       1.542   9.090  18.509  0.00  0.00    +0.000 C 
ATOM      9  N   UNL     1       0.656   9.233  19.566  0.00  0.00    +0.000 N 
ATOM     10  H   UNL     1       0.800   8.654  20.384  0.00  0.00    +0.000 HD
BRANCH   9  11
ATOM     11  C   UNL     1      -0.295  10.271  19.700  0.00  0.00    +0.000 A 
ATOM     12  C   UNL     1      -1.308  10.508  18.763  0.00  0.00    +0.000 A 
ATOM     13  C   UNL     1      -2.187  11.582  18.919  0.00  0.00    +0.000 A 
ATOM     14  C   UNL     1      -2.061  12.416  20.019  0.00  0.00    +0.000 A 
ATOM     15  F   UNL     1      -2.889  13.459  20.157  0.00  0.00    +0.000 F 
ATOM     16  C   UNL     1      -1.084  12.181  20.979  0.00  0.00    +0.000 A 
ATOM     17  C   UNL     1      -0.208  11.101  20.826  0.00  0.00    +0.000 A 
ENDBRANCH   9  11
ENDBRANCH   1   8
BRANCH   4  18
ATOM     18  S   UNL     1       5.219   4.354  18.747  0.00  0.00    +0.000 S 
BRANCH  18  19
ATOM     19  C   UNL     1       6.670   5.076  17.915  0.00  0.00    +0.000 C 
BRANCH  19  20
ATOM     20  C   UNL     1       6.673   4.815  16.436  0.00  0.00    +0.000 A 
ATOM     21  N   UNL     1       7.479   5.401  15.574  0.00  0.00    +0.000 NA
ATOM     22  C   UNL     1       7.235   4.930  14.295  0.00  0.00    +0.000 A 
ATOM     23  C   UNL     1       7.896   5.347  13.122  0.00  0.00    +0.000 A 
ATOM     24  C   UNL     1       7.555   4.778  11.891  0.00  0.00    +0.000 A 
ATOM     25  C   UNL     1       6.568   3.798  11.818  0.00  0.00    +0.000 A 
ATOM     26  C   UNL     1       5.896   3.370  12.966  0.00  0.00    +0.000 A 
ATOM     27  C   UNL     1       6.243   3.953  14.197  0.00  0.00    +0.000 A 
ATOM     28  S   UNL     1       5.599   3.651  15.765  0.00  0.00    +0.000 S 
ENDBRANCH  19  20
ENDBRANCH  18  19
ENDBRANCH   4  18
TORSDOF 5
ENDMDL
MODEL 2
REMARK VINA RESULT:      -8.2      6.009      8.415
REMARK  Name = 
REMARK  5 active torsions:
REMARK  status: ('A' for Active; 'I' for Inactive)
REMARK    1  A    between atoms: C_2  and  C_11
REMARK    2  A    between atoms: N_3  and  C_4
REMARK    3  A    between atoms: C_14  and  S_15
REMARK    4  A    between atoms: S_15  and  C_16
REMARK    5  A    between atoms: C_16  and  C_17
REMARK                            x       y       z     vdW  Elec       q    Type
REMARK                         _______ _______ _______ _____ _____    ______ ____
ROOT
ATOM      1  C   UNL     1       8.323   8.804  18.380  0.00  0.00    +0.000 A 
ATOM      2  C   UNL     1       8.598   7.656  19.129  0.00  0.00    +0.000 A 
ATOM      3  C   UNL     1       8.090   6.428  18.710  0.00  0.00    +0.000 A 
ATOM      4  C   UNL     1       7.339   6.378  17.543  0.00  0.00    +0.000 A 
ATOM      5  N   UNL     1       7.074   7.473  16.791  0.00  0.00    +0.000 NA
ATOM      6  C   UNL     1       7.578   8.658  17.221  0.00  0.00    +0.000 A 
ENDROOT
BRANCH   1   8
ATOM      7  O   UNL     1       9.251  10.193  19.976  0.00  0.00    +0.000 OA
ATOM      8  C   UNL     1       8.888  10.101  18.807  0.00  0.00    +0.000 C 
ATOM      9  N   UNL     1       8.894  11.114  17.861  0.00  0.00    +0.000 N 
ATOM     10  H   UNL     1       8.366  10.967  17.009  0.00  0.00    +0.000 HD
BRANCH   9  11
ATOM     11  C   UNL     1       9.382  12.425  18.070  0.00  0.00    +0.000 A 
ATOM     12  C   UNL     1       8.808  13.320  18.981  0.00  0.00    +0.000 A 
ATOM     13  C   UNL     1       9.299  14.621  19.109  0.00  0.00    +0.000 A 
ATOM     14  C   UNL     1      10.371  15.028  18.331  0.00  0.00    +0.000 A 
ATOM     15  F   UNL     1      10.827  16.282  18.435  0.00  0.00    +0.000 F 
ATOM     16  C   UNL     1      10.978  14.147  17.442  0.00  0.00    +0.000 A 
ATOM     17  C   UNL     1      10.491  12.842  17.321  0.00  0.00    +0.000 A 
ENDBRANCH   9  11
ENDBRANCH   1   8
BRANCH   4  18
ATOM     18  S   UNL     1       6.630   4.835  17.024  0.00  0.00    +0.000 S 
BRANCH  18  19
ATOM     19  C   UNL     1       4.890   5.351  16.864  0.00  0.00    +0.000 C 
BRANCH  19  20
ATOM     20  C   UNL     1       4.017   4.769  17.939  0.00  0.00    +0.000 A 
ATOM     21  N   UNL     1       4.418   3.888  18.832  0.00  0.00    +0.000 NA
ATOM     22  C   UNL     1       3.377   3.567  19.687  0.00  0.00    +0.000 A 
ATOM     23  C   UNL     1       3.436   2.644  20.751  0.00  0.00    +0.000 A 
ATOM     24  C   UNL     1       2.307   2.422  21.545  0.00  0.00    +0.000 A 
ATOM     25  C   UNL     1       1.123   3.110  21.292  0.00  0.00    +0.000 A 
ATOM     26  C   UNL     1       1.037   4.027  20.240  0.00  0.00    +0.000 A 
ATOM     27  C   UNL     1       2.177   4.238  19.446  0.00  0.00    +0.000 A 
ATOM     28  S   UNL     1       2.382   5.279  18.090  0.00  0.00    +0.000 S 
ENDBRANCH  19  20
ENDBRANCH  18  19
ENDBRANCH   4  18
TORSDOF 5
ENDMDL
MODEL 3
REMARK VINA RESULT:      -8.1      5.820      8.309
REMARK  Name = 
REMARK  5 active torsions:
REMARK  status: ('A' for Active; 'I' for Inactive)
REMARK    1  A    between atoms: C_2  and  C_11
REMARK    2  A    between atoms: N_3  and  C_4
REMARK    3  A    between atoms: C_14  and  S_15
REMARK    4  A    between atoms: S_15  and  C_16
REMARK    5  A    between atoms: C_16  and  C_17
REMARK                            x       y       z     vdW  Elec       q    Type
REMARK                         _______ _______ _______ _____ _____    ______ ____
ROOT
ATOM      1  C   UNL     1       8.375   8.426  18.307  0.00  0.00    +0.000 A 
ATOM      2  C   UNL     1       8.501   7.326  19.160  0.00  0.00    +0.000 A 
ATOM      3  C   UNL     1       8.057   6.075  18.734  0.00  0.00    +0.000 A 
ATOM      4  C   UNL     1       7.518   5.956  17.460  0.00  0.00    +0.000 A 
ATOM      5  N   UNL     1       7.401   7.003  16.609  0.00  0.00    +0.000 NA
ATOM      6  C   UNL     1       7.838   8.211  17.048  0.00  0.00    +0.000 A 
ENDROOT
BRANCH   1   8
ATOM      7  O   UNL     1       9.042   9.904  19.953  0.00  0.00    +0.000 OA
ATOM      8  C   UNL     1       8.875   9.745  18.747  0.00  0.00    +0.000 C 
ATOM      9  N   UNL     1       9.045  10.702  17.759  0.00  0.00    +0.000 N 
ATOM     10  H   UNL     1       8.663  10.507  16.841  0.00  0.00    +0.000 HD
BRANCH   9  11
ATOM     11  C   UNL     1       9.505  12.023  17.971  0.00  0.00    +0.000 A 
ATOM     12  C   UNL     1       8.663  13.141  17.943  0.00  0.00    +0.000 A 
ATOM     13  C   UNL     1       9.180  14.428  18.105  0.00  0.00    +0.000 A 
ATOM     14  C   UNL     1      10.541  14.599  18.307  0.00  0.00    +0.000 A 
ATOM     15  F   UNL     1      11.040  15.834  18.440  0.00  0.00    +0.000 F 
ATOM     16  C   UNL     1      11.392  13.502  18.371  0.00  0.00    +0.000 A 
ATOM     17  C   UNL     1      10.872  12.212  18.216  0.00  0.00    +0.000 A 
ENDBRANCH   9  11
ENDBRANCH   1   8
BRANCH   4  18
ATOM     18  S   UNL     1       6.889   4.386  16.919  0.00  0.00    +0.000 S 
BRANCH  18  19
ATOM     19  C   UNL     1       5.264   4.921  16.293  0.00  0.00    +0.000 C 
BRANCH  19  20
ATOM     20  C   UNL     1       4.151   4.628  17.258  0.00  0.00    +0.000 A 
ATOM     21  N   UNL     1       3.347   3.588  17.177  0.00  0.00    +0.000 NA
ATOM     22  C   UNL     1       2.441   3.602  18.225  0.00  0.00    +0.000 A 
ATOM     23  C   UNL     1       1.421   2.655  18.448  0.00  0.00    +0.000 A 
ATOM     24  C   UNL     1       0.579   2.787  19.557  0.00  0.00    +0.000 A 
ATOM     25  C   UNL     1       0.745   3.845  20.445  0.00  0.00    +0.000 A 
ATOM     26  C   UNL     1       1.747   4.799  20.244  0.00  0.00    +0.000 A 
ATOM     27  C   UNL     1       2.584   4.661  19.123  0.00  0.00    +0.000 A 
ATOM     28  S   UNL     1       3.883   5.663  18.604  0.00  0.00    +0.000 S 
ENDBRANCH  19  20
ENDBRANCH  18  19
ENDBRANCH   4  18
TORSDOF 5
ENDMDL
MODEL 4
REMARK VINA RESULT:      -7.8      5.587     11.431
REMARK  Name = 
REMARK  5 active torsions:
REMARK  status: ('A' for Active; 'I' for Inactive)
REMARK    1  A    between atoms: C_2  and  C_11
REMARK    2  A    between atoms: N_3  and  C_4
REMARK    3  A    between atoms: C_14  and  S_15
REMARK    4  A    between atoms: S_15  and  C_16
REMARK    5  A    between atoms: C_16  and  C_17
REMARK                            x       y       z     vdW  Elec       q    Type
REMARK                         _______ _______ _______ _____ _____    ______ ____
ROOT
ATOM      1  C   UNL     1       1.995   8.328  18.928  0.00  0.00    +0.000 A 
ATOM      2  C   UNL     1       1.436   8.503  20.196  0.00  0.00    +0.000 A 
ATOM      3  C   UNL     1       0.840   9.720  20.520  0.00  0.00    +0.000 A 
ATOM      4  C   UNL     1       0.802  10.721  19.559  0.00  0.00    +0.000 A 
ATOM      5  N   UNL     1       1.321  10.570  18.317  0.00  0.00    +0.000 NA
ATOM      6  C   UNL     1       1.898   9.376  18.027  0.00  0.00    +0.000 A 
ENDROOT
BRANCH   1   8
ATOM      7  O   UNL     1       3.416   7.021  17.658  0.00  0.00    +0.000 OA
ATOM      8  C   UNL     1       2.598   7.026  18.574  0.00  0.00    +0.000 C 
ATOM      9  N   UNL     1       2.133   5.920  19.268  0.00  0.00    +0.000 N 
ATOM     10  H   UNL     1       1.305   6.036  19.840  0.00  0.00    +0.000 HD
BRANCH   9  11
ATOM     11  C   UNL     1       2.574   4.590  19.077  0.00  0.00    +0.000 A 
ATOM     12  C   UNL     1       3.589   4.002  19.841  0.00  0.00    +0.000 A 
ATOM     13  C   UNL     1       4.022   2.702  19.573  0.00  0.00    +0.000 A 
ATOM     14  C   UNL     1       3.433   1.983  18.545  0.00  0.00    +0.000 A 
ATOM     15  F   UNL     1       3.864   0.745  18.272  0.00  0.00    +0.000 F 
ATOM     16  C   UNL     1       2.402   2.534  17.793  0.00  0.00    +0.000 A 
ATOM     17  C   UNL     1       1.964   3.833  18.067  0.00  0.00    +0.000 A 
ENDBRANCH   9  11
ENDBRANCH   1   8
BRANCH   4  18
ATOM     18  S   UNL     1       0.103  12.302  19.969  0.00  0.00    +0.000 S 
BRANCH  18  19
ATOM     19  C   UNL     1      -0.213  12.031  21.743  0.00  0.00    +0.000 C 
BRANCH  19  20
ATOM     20  C   UNL     1      -1.656  12.233  22.107  0.00  0.00    +0.000 A 
ATOM     21  N   UNL     1      -2.137  12.151  23.330  0.00  0.00    +0.000 NA
ATOM     22  C   UNL     1      -3.499  12.404  23.327  0.00  0.00    +0.000 A 
ATOM     23  C   UNL     1      -4.346  12.385  24.453  0.00  0.00    +0.000 A 
ATOM     24  C   UNL     1      -5.707  12.670  24.306  0.00  0.00    +0.000 A 
ATOM     25  C   UNL     1      -6.230  12.976  23.054  0.00  0.00    +0.000 A 
ATOM     26  C   UNL     1      -5.412  12.999  21.920  0.00  0.00    +0.000 A 
ATOM     27  C   UNL     1      -4.046  12.705  22.078  0.00  0.00    +0.000 A 
ATOM     28  S   UNL     1      -2.802  12.642  20.891  0.00  0.00    +0.000 S 
ENDBRANCH  19  20
ENDBRANCH  18  19
ENDBRANCH   4  18
TORSDOF 5
ENDMDL
MODEL 5
REMARK VINA RESULT:      -7.8      5.165     11.888
REMARK  Name = 
REMARK  5 active torsions:
REMARK  status: ('A' for Active; 'I' for Inactive)
REMARK    1  A    between atoms: C_2  and  C_11
REMARK    2  A    between atoms: N_3  and  C_4
REMARK    3  A    between atoms: C_14  and  S_15
REMARK    4  A    between atoms: S_15  and  C_16
REMARK    5  A    between atoms: C_16  and  C_17
REMARK                            x       y       z     vdW  Elec       q    Type
REMARK                         _______ _______ _______ _____ _____    ______ ____
ROOT
ATOM      1  C   UNL     1       1.359   8.955  19.571  0.00  0.00    +0.000 A 
ATOM      2  C   UNL     1       1.286   8.360  20.833  0.00  0.00    +0.000 A 
ATOM      3  C   UNL     1       0.546   8.977  21.840  0.00  0.00    +0.000 A 
ATOM      4  C   UNL     1      -0.117  10.161  21.551  0.00  0.00    +0.000 A 
ATOM      5  N   UNL     1      -0.077  10.749  20.331  0.00  0.00    +0.000 NA
ATOM      6  C   UNL     1       0.653  10.130  19.368  0.00  0.00    +0.000 A 
ENDROOT
BRANCH   1   8
ATOM      7  O   UNL     1       2.076   8.798  17.381  0.00  0.00    +0.000 OA
ATOM      8  C   UNL     1       2.117   8.284  18.495  0.00  0.00    +0.000 C 
ATOM      9  N   UNL     1       2.750   7.098  18.832  0.00  0.00    +0.000 N 
ATOM     10  H   UNL     1       2.521   6.677  19.725  0.00  0.00    +0.000 HD
BRANCH   9  11
ATOM     11  C   UNL     1       3.518   6.302  17.950  0.00  0.00    +0.000 A 
ATOM     12  C   UNL     1       4.559   6.814  17.166  0.00  0.00    +0.000 A 
ATOM     13  C   UNL     1       5.248   5.992  16.271  0.00  0.00    +0.000 A 
ATOM     14  C   UNL     1       4.905   4.654  16.167  0.00  0.00    +0.000 A 
ATOM     15  F   UNL     1       5.550   3.871  15.293  0.00  0.00    +0.000 F 
ATOM     16  C   UNL     1       3.897   4.116  16.958  0.00  0.00    +0.000 A 
ATOM     17  C   UNL     1       3.211   4.937  17.860  0.00  0.00    +0.000 A 
ENDBRANCH   9  11
ENDBRANCH   1   8
BRANCH   4  18
ATOM     18  S   UNL     1      -1.015  10.998  22.835  0.00  0.00    +0.000 S 
BRANCH  18  19
ATOM     19  C   UNL     1      -1.753  12.340  21.849  0.00  0.00    +0.000 C 
BRANCH  19  20
ATOM     20  C   UNL     1      -3.203  12.562  22.175  0.00  0.00    +0.000 A 
ATOM     21  N   UNL     1      -4.164  12.659  21.280  0.00  0.00    +0.000 NA
ATOM     22  C   UNL     1      -5.384  12.847  21.907  0.00  0.00    +0.000 A 
ATOM     23  C   UNL     1      -6.628  13.010  21.264  0.00  0.00    +0.000 A 
ATOM     24  C   UNL     1      -7.788  13.183  22.024  0.00  0.00    +0.000 A 
ATOM     25  C   UNL     1      -7.723  13.193  23.415  0.00  0.00    +0.000 A 
ATOM     26  C   UNL     1      -6.502  13.037  24.077  0.00  0.00    +0.000 A 
ATOM     27  C   UNL     1      -5.341  12.869  23.302  0.00  0.00    +0.000 A 
ATOM     28  S   UNL     1      -3.710  12.667  23.814  0.00  0.00    +0.000 S 
ENDBRANCH  19  20
ENDBRANCH  18  19
ENDBRANCH   4  18
TORSDOF 5
ENDMDL
MODEL 6
REMARK VINA RESULT:      -7.7      0.724      1.376
REMARK  Name = 
REMARK  5 active torsions:
REMARK  status: ('A' for Active; 'I' for Inactive)
REMARK    1  A    between atoms: C_2  and  C_11
REMARK    2  A    between atoms: N_3  and  C_4
REMARK    3  A    between atoms: C_14  and  S_15
REMARK    4  A    between atoms: S_15  and  C_16
REMARK    5  A    between atoms: C_16  and  C_17
REMARK                            x       y       z     vdW  Elec       q    Type
REMARK                         _______ _______ _______ _____ _____    ______ ____
ROOT
ATOM      1  C   UNL     1       2.409   7.799  18.640  0.00  0.00    +0.000 A 
ATOM      2  C   UNL     1       2.309   6.864  19.674  0.00  0.00    +0.000 A 
ATOM      3  C   UNL     1       3.196   5.790  19.713  0.00  0.00    +0.000 A 
ATOM      4  C   UNL     1       4.170   5.692  18.728  0.00  0.00    +0.000 A 
ATOM      5  N   UNL     1       4.298   6.594  17.726  0.00  0.00    +0.000 NA
ATOM      6  C   UNL     1       3.420   7.630  17.709  0.00  0.00    +0.000 A 
ENDROOT
BRANCH   1   8
ATOM      7  O   UNL     1       1.111   9.346  17.516  0.00  0.00    +0.000 OA
ATOM      8  C   UNL     1       1.489   8.956  18.618  0.00  0.00    +0.000 C 
ATOM      9  N   UNL     1       1.192   9.533  19.842  0.00  0.00    +0.000 N 
ATOM     10  H   UNL     1       1.743   9.251  20.644  0.00  0.00    +0.000 HD
BRANCH   9  11
ATOM     11  C   UNL     1       0.342  10.648  20.035  0.00  0.00    +0.000 A 
ATOM     12  C   UNL     1       0.698  11.757  20.812  0.00  0.00    +0.000 A 
ATOM     13  C   UNL     1      -0.201  12.806  21.013  0.00  0.00    +0.000 A 
ATOM     14  C   UNL     1      -1.457  12.752  20.429  0.00  0.00    +0.000 A 
ATOM     15  F   UNL     1      -2.329  13.746  20.640  0.00  0.00    +0.000 F 
ATOM     16  C   UNL     1      -1.822  11.676  19.628  0.00  0.00    +0.000 A 
ATOM     17  C   UNL     1      -0.918  10.629  19.421  0.00  0.00    +0.000 A 
ENDBRANCH   9  11
ENDBRANCH   1   8
BRANCH   4  18
ATOM     18  S   UNL     1       5.271   4.298  18.722  0.00  0.00    +0.000 S 
BRANCH  18  19
ATOM     19  C   UNL     1       6.694   5.053  17.870  0.00  0.00    +0.000 C 
BRANCH  19  20
ATOM     20  C   UNL     1       6.682   4.793  16.391  0.00  0.00    +0.000 A 
ATOM     21  N   UNL     1       7.511   5.343  15.528  0.00  0.00    +0.000 NA
ATOM     22  C   UNL     1       7.245   4.884  14.249  0.00  0.00    +0.000 A 
ATOM     23  C   UNL     1       7.920   5.272  13.074  0.00  0.00    +0.000 A 
ATOM     24  C   UNL     1       7.552   4.720  11.844  0.00  0.00    +0.000 A 
ATOM     25  C   UNL     1       6.523   3.785  11.772  0.00  0.00    +0.000 A 
ATOM     26  C   UNL     1       5.835   3.386  12.922  0.00  0.00    +0.000 A 
ATOM     27  C   UNL     1       6.210   3.952  14.153  0.00  0.00    +0.000 A 
ATOM     28  S   UNL     1       5.556   3.678  15.721  0.00  0.00    +0.000 S 
ENDBRANCH  19  20
ENDBRANCH  18  19
ENDBRANCH   4  18
TORSDOF 5
ENDMDL
MODEL 7
REMARK VINA RESULT:      -7.7      5.613     10.354
REMARK  Name = 
REMARK  5 active torsions:
REMARK  status: ('A' for Active; 'I' for Inactive)
REMARK    1  A    between atoms: C_2  and  C_11
REMARK    2  A    between atoms: N_3  and  C_4
REMARK    3  A    between atoms: C_14  and  S_15
REMARK    4  A    between atoms: S_15  and  C_16
REMARK    5  A    between atoms: C_16  and  C_17
REMARK                            x       y       z     vdW  Elec       q    Type
REMARK                         _______ _______ _______ _____ _____    ______ ____
ROOT
ATOM      1  C   UNL     1       1.876   8.180  19.121  0.00  0.00    +0.000 A 
ATOM      2  C   UNL     1       1.617   9.149  18.148  0.00  0.00    +0.000 A 
ATOM      3  C   UNL     1       0.980  10.333  18.513  0.00  0.00    +0.000 A 
ATOM      4  C   UNL     1       0.637  10.523  19.845  0.00  0.00    +0.000 A 
ATOM      5  N   UNL     1       0.892   9.607  20.810  0.00  0.00    +0.000 NA
ATOM      6  C   UNL     1       1.512   8.461  20.428  0.00  0.00    +0.000 A 
ENDROOT
BRANCH   1   8
ATOM      7  O   UNL     1       3.601   7.061  18.066  0.00  0.00    +0.000 OA
ATOM      8  C   UNL     1       2.581   6.939  18.739  0.00  0.00    +0.000 C 
ATOM      9  N   UNL     1       1.985   5.747  19.121  0.00  0.00    +0.000 N 
ATOM     10  H   UNL     1       1.038   5.786  19.479  0.00  0.00    +0.000 HD
BRANCH   9  11
ATOM     11  C   UNL     1       2.493   4.455  18.849  0.00  0.00    +0.000 A 
ATOM     12  C   UNL     1       1.974   3.623  17.850  0.00  0.00    +0.000 A 
ATOM     13  C   UNL     1       2.479   2.335  17.660  0.00  0.00    +0.000 A 
ATOM     14  C   UNL     1       3.512   1.880  18.464  0.00  0.00    +0.000 A 
ATOM     15  F   UNL     1       3.981   0.637  18.298  0.00  0.00    +0.000 F 
ATOM     16  C   UNL     1       4.065   2.699  19.441  0.00  0.00    +0.000 A 
ATOM     17  C   UNL     1       3.564   3.992  19.626  0.00  0.00    +0.000 A 
ENDBRANCH   9  11
ENDBRANCH   1   8
BRANCH   4  18
ATOM     18  S   UNL     1      -0.232  11.997  20.324  0.00  0.00    +0.000 S 
BRANCH  18  19
ATOM     19  C   UNL     1       1.192  13.103  20.588  0.00  0.00    +0.000 C 
BRANCH  19  20
ATOM     20  C   UNL     1       1.127  14.336  19.734  0.00  0.00    +0.000 A 
ATOM     21  N   UNL     1       0.024  15.005  19.467  0.00  0.00    +0.000 NA
ATOM     22  C   UNL     1       0.309  16.097  18.665  0.00  0.00    +0.000 A 
ATOM     23  C   UNL     1      -0.629  17.025  18.169  0.00  0.00    +0.000 A 
ATOM     24  C   UNL     1      -0.200  18.091  17.373  0.00  0.00    +0.000 A 
ATOM     25  C   UNL     1       1.150  18.246  17.072  0.00  0.00    +0.000 A 
ATOM     26  C   UNL     1       2.100  17.338  17.549  0.00  0.00    +0.000 A 
ATOM     27  C   UNL     1       1.657  16.266  18.343  0.00  0.00    +0.000 A 
ATOM     28  S   UNL     1       2.567  14.993  19.060  0.00  0.00    +0.000 S 
ENDBRANCH  19  20
ENDBRANCH  18  19
ENDBRANCH   4  18
TORSDOF 5
ENDMDL
MODEL 8
REMARK VINA RESULT:      -7.7      5.753     12.263
REMARK  Name = 
REMARK  5 active torsions:
REMARK  status: ('A' for Active; 'I' for Inactive)
REMARK    1  A    between atoms: C_2  and  C_11
REMARK    2  A    between atoms: N_3  and  C_4
REMARK    3  A    between atoms: C_14  and  S_15
REMARK    4  A    between atoms: S_15  and  C_16
REMARK    5  A    between atoms: C_16  and  C_17
REMARK                            x       y       z     vdW  Elec       q    Type
REMARK                         _______ _______ _______ _____ _____    ______ ____
ROOT
ATOM      1  C   UNL     1       1.437   8.552  20.211  0.00  0.00    +0.000 A 
ATOM      2  C   UNL     1       1.196   8.624  21.585  0.00  0.00    +0.000 A 
ATOM      3  C   UNL     1       0.604   9.767  22.118  0.00  0.00    +0.000 A 
ATOM      4  C   UNL     1       0.251  10.799  21.258  0.00  0.00    +0.000 A 
ATOM      5  N   UNL     1       0.459  10.747  19.921  0.00  0.00    +0.000 NA
ATOM      6  C   UNL     1       1.039   9.623  19.427  0.00  0.00    +0.000 A 
ENDROOT
BRANCH   1   8
ATOM      7  O   UNL     1       2.420   7.382  18.477  0.00  0.00    +0.000 OA
ATOM      8  C   UNL     1       2.036   7.327  19.643  0.00  0.00    +0.000 C 
ATOM      9  N   UNL     1       2.048   6.208  20.461  0.00  0.00    +0.000 N 
ATOM     10  H   UNL     1       1.503   6.241  21.314  0.00  0.00    +0.000 HD
BRANCH   9  11
ATOM     11  C   UNL     1       2.567   4.941  20.105  0.00  0.00    +0.000 A 
ATOM     12  C   UNL     1       3.907   4.732  19.757  0.00  0.00    +0.000 A 
ATOM     13  C   UNL     1       4.353   3.470  19.362  0.00  0.00    +0.000 A 
ATOM     14  C   UNL     1       3.461   2.410  19.324  0.00  0.00    +0.000 A 
ATOM     15  F   UNL     1       3.884   1.204  18.923  0.00  0.00    +0.000 F 
ATOM     16  C   UNL     1       2.134   2.585  19.696  0.00  0.00    +0.000 A 
ATOM     17  C   UNL     1       1.689   3.848  20.099  0.00  0.00    +0.000 A 
ENDBRANCH   9  11
ENDBRANCH   1   8
BRANCH   4  18
ATOM     18  S   UNL     1      -0.448  12.291  21.922  0.00  0.00    +0.000 S 
BRANCH  18  19
ATOM     19  C   UNL     1      -1.660  11.561  23.070  0.00  0.00    +0.000 C 
BRANCH  19  20
ATOM     20  C   UNL     1      -2.869  12.432  23.259  0.00  0.00    +0.000 A 
ATOM     21  N   UNL     1      -4.077  11.984  23.535  0.00  0.00    +0.000 NA
ATOM     22  C   UNL     1      -4.962  13.042  23.660  0.00  0.00    +0.000 A 
ATOM     23  C   UNL     1      -6.341  12.939  23.933  0.00  0.00    +0.000 A 
ATOM     24  C   UNL     1      -7.118  14.095  24.042  0.00  0.00    +0.000 A 
ATOM     25  C   UNL     1      -6.537  15.351  23.887  0.00  0.00    +0.000 A 
ATOM     26  C   UNL     1      -5.173  15.481  23.612  0.00  0.00    +0.000 A 
ATOM     27  C   UNL     1      -4.402  14.311  23.498  0.00  0.00    +0.000 A 
ATOM     28  S   UNL     1      -2.723  14.142  23.159  0.00  0.00    +0.000 S 
ENDBRANCH  19  20
ENDBRANCH  18  19
ENDBRANCH   4  18
TORSDOF 5
ENDMDL
MODEL 9
REMARK VINA RESULT:      -7.7      5.730     10.961
REMARK  Name = 
REMARK  5 active torsions:
REMARK  status: ('A' for Active; 'I' for Inactive)
REMARK    1  A    between atoms: C_2  and  C_11
REMARK    2  A    between atoms: N_3  and  C_4
REMARK    3  A    between atoms: C_14  and  S_15
REMARK    4  A    between atoms: S_15  and  C_16
REMARK    5  A    between atoms: C_16  and  C_17
REMARK                            x       y       z     vdW  Elec       q    Type
REMARK                         _______ _______ _______ _____ _____    ______ ____
ROOT
ATOM      1  C   UNL     1       1.218   8.748  20.442  0.00  0.00    +0.000 A 
ATOM      2  C   UNL     1       0.747   9.737  19.575  0.00  0.00    +0.000 A 
ATOM      3  C   UNL     1       0.124  10.868  20.100  0.00  0.00    +0.000 A 
ATOM      4  C   UNL     1       0.008  10.987  21.478  0.00  0.00    +0.000 A 
ATOM      5  N   UNL     1       0.471  10.050  22.340  0.00  0.00    +0.000 NA
ATOM      6  C   UNL     1       1.071   8.957  21.804  0.00  0.00    +0.000 A 
ENDROOT
BRANCH   1   8
ATOM      7  O   UNL     1       2.317   7.649  18.733  0.00  0.00    +0.000 OA
ATOM      8  C   UNL     1       1.906   7.564  19.887  0.00  0.00    +0.000 C 
ATOM      9  N   UNL     1       1.965   6.444  20.701  0.00  0.00    +0.000 N 
ATOM     10  H   UNL     1       1.397   6.440  21.540  0.00  0.00    +0.000 HD
BRANCH   9  11
ATOM     11  C   UNL     1       2.571   5.213  20.356  0.00  0.00    +0.000 A 
ATOM     12  C   UNL     1       3.815   5.124  19.721  0.00  0.00    +0.000 A 
ATOM     13  C   UNL     1       4.342   3.884  19.355  0.00  0.00    +0.000 A 
ATOM     14  C   UNL     1       3.629   2.728  19.632  0.00  0.00    +0.000 A 
ATOM     15  F   UNL     1       4.122   1.541  19.261  0.00  0.00    +0.000 F 
ATOM     16  C   UNL     1       2.406   2.790  20.291  0.00  0.00    +0.000 A 
ATOM     17  C   UNL     1       1.883   4.032  20.664  0.00  0.00    +0.000 A 
ENDBRANCH   9  11
ENDBRANCH   1   8
BRANCH   4  18
ATOM     18  S   UNL     1      -0.838  12.389  22.167  0.00  0.00    +0.000 S 
BRANCH  18  19
ATOM     19  C   UNL     1      -1.437  13.155  20.627  0.00  0.00    +0.000 C 
BRANCH  19  20
ATOM     20  C   UNL     1      -2.855  12.777  20.310  0.00  0.00    +0.000 A 
ATOM     21  N   UNL     1      -3.241  12.184  19.199  0.00  0.00    +0.000 NA
ATOM     22  C   UNL     1      -4.608  11.962  19.225  0.00  0.00    +0.000 A 
ATOM     23  C   UNL     1      -5.368  11.366  18.199  0.00  0.00    +0.000 A 
ATOM     24  C   UNL     1      -6.745  11.193  18.363  0.00  0.00    +0.000 A 
ATOM     25  C   UNL     1      -7.372  11.604  19.536  0.00  0.00    +0.000 A 
ATOM     26  C   UNL     1      -6.641  12.201  20.567  0.00  0.00    +0.000 A 
ATOM     27  C   UNL     1      -5.257  12.375  20.390  0.00  0.00    +0.000 A 
ATOM     28  S   UNL     1      -4.103  13.077  21.455  0.00  0.00    +0.000 S 
ENDBRANCH  19  20
ENDBRANCH  18  19
ENDBRANCH   4  18
TORSDOF 5
ENDMDL
