MODEL 1
REMARK VINA RESULT:      -7.7      0.000      0.000
REMARK  Name = 
REMARK  3 active torsions:
REMARK  status: ('A' for Active; 'I' for Inactive)
REMARK    1  A    between atoms: C_1  and  C_2
REMARK    2  A    between atoms: C_4  and  C_5
REMARK    3  A    between atoms: C_9  and  C_10
REMARK                            x       y       z     vdW  Elec       q    Type
REMARK                         _______ _______ _______ _____ _____    ______ ____
ROOT
ATOM      1  C   UNL     1       6.532   5.680  16.599  0.00  0.00    +0.000 C 
ATOM      2  C   UNL     1       5.144   5.379  17.083  0.00  0.00    +0.000 A 
ATOM      3  C   UNL     1       4.528   4.156  16.825  0.00  0.00    +0.000 A 
ATOM      4  C   UNL     1       3.243   3.929  17.312  0.00  0.00    +0.000 A 
ATOM      5  C   UNL     1       2.542   2.628  17.061  0.00  0.00    +0.000 C 
ATOM      6  N   UNL     1       2.564   4.845  18.044  0.00  0.00    +0.000 NA
ATOM      7  C   UNL     1       3.155   6.044  18.263  0.00  0.00    +0.000 A 
ATOM      8  N   UNL     1       2.452   7.023  19.002  0.00  0.00    +0.000 N 
ATOM      9  C   UNL     1       1.999   6.777  20.284  0.00  0.00    +0.000 A 
ATOM     10  C   UNL     1       2.326   5.476  20.991  0.00  0.00    +0.000 C 
ATOM     11  N   UNL     1       1.327   7.644  20.981  0.00  0.00    +0.000 NA
ATOM     12  C   UNL     1       0.981   8.864  20.393  0.00  0.00    +0.000 A 
ATOM     13  C   UNL     1       0.193   9.762  21.115  0.00  0.00    +0.000 A 
ATOM     14  C   UNL     1      -0.247  10.946  20.521  0.00  0.00    +0.000 A 
ATOM     15 CL   UNL     1      -1.261  12.020  21.402  0.00  0.00    +0.000 Cl
ATOM     16  C   UNL     1       0.109  11.256  19.208  0.00  0.00    +0.000 A 
ATOM     17  C   UNL     1       0.930  10.384  18.495  0.00  0.00    +0.000 A 
ATOM     18  C   UNL     1       1.359   9.193  19.095  0.00  0.00    +0.000 A 
ATOM     19  C   UNL     1       2.193   8.232  18.358  0.00  0.00    +0.000 A 
ATOM     20  O   UNL     1       2.580   8.545  17.229  0.00  0.00    +0.000 OA
ATOM     21  C   UNL     1       4.440   6.338  17.807  0.00  0.00    +0.000 A 
ENDROOT
TORSDOF 0
ENDMDL
MODEL 2
REMARK VINA RESULT:      -7.4      2.911      6.774
REMARK  Name = 
REMARK  3 active torsions:
REMARK  status: ('A' for Active; 'I' for Inactive)
REMARK    1  A    between atoms: C_1  and  C_2
REMARK    2  A    between atoms: C_4  and  C_5
REMARK    3  A    between atoms: C_9  and  C_10
REMARK                            x       y       z     vdW  Elec       q    Type
REMARK                         _______ _______ _______ _____ _____    ______ ____
ROOT
ATOM      1  C   UNL     1      -2.428  11.731  17.494  0.00  0.00    +0.000 C 
ATOM      2  C   UNL     1      -1.343  11.549  18.514  0.00  0.00    +0.000 A 
ATOM      3  C   UNL     1      -1.055  12.530  19.460  0.00  0.00    +0.000 A 
ATOM      4  C   UNL     1      -0.045  12.297  20.391  0.00  0.00    +0.000 A 
ATOM      5  C   UNL     1       0.298  13.324  21.428  0.00  0.00    +0.000 C 
ATOM      6  N   UNL     1       0.665  11.144  20.429  0.00  0.00    +0.000 NA
ATOM      7  C   UNL     1       0.402  10.208  19.487  0.00  0.00    +0.000 A 
ATOM      8  N   UNL     1       1.151   9.008  19.494  0.00  0.00    +0.000 N 
ATOM      9  C   UNL     1       1.189   8.184  20.602  0.00  0.00    +0.000 A 
ATOM     10  C   UNL     1       0.346   8.482  21.826  0.00  0.00    +0.000 C 
ATOM     11  N   UNL     1       1.888   7.089  20.651  0.00  0.00    +0.000 NA
ATOM     12  C   UNL     1       2.697   6.752  19.562  0.00  0.00    +0.000 A 
ATOM     13  C   UNL     1       3.505   5.617  19.648  0.00  0.00    +0.000 A 
ATOM     14  C   UNL     1       4.393   5.307  18.617  0.00  0.00    +0.000 A 
ATOM     15 CL   UNL     1       5.423   3.937  18.756  0.00  0.00    +0.000 Cl
ATOM     16  C   UNL     1       4.470   6.114  17.481  0.00  0.00    +0.000 A 
ATOM     17  C   UNL     1       3.637   7.225  17.369  0.00  0.00    +0.000 A 
ATOM     18  C   UNL     1       2.756   7.535  18.413  0.00  0.00    +0.000 A 
ATOM     19  C   UNL     1       1.889   8.722  18.346  0.00  0.00    +0.000 A 
ATOM     20  O   UNL     1       1.894   9.385  17.307  0.00  0.00    +0.000 OA
ATOM     21  C   UNL     1      -0.595  10.373  18.527  0.00  0.00    +0.000 A 
ENDROOT
TORSDOF 0
ENDMDL
MODEL 3
REMARK VINA RESULT:      -7.1      1.666      3.009
REMARK  Name = 
REMARK  3 active torsions:
REMARK  status: ('A' for Active; 'I' for Inactive)
REMARK    1  A    between atoms: C_1  and  C_2
REMARK    2  A    between atoms: C_4  and  C_5
REMARK    3  A    between atoms: C_9  and  C_10
REMARK                            x       y       z     vdW  Elec       q    Type
REMARK                         _______ _______ _______ _____ _____    ______ ____
ROOT
ATOM      1  C   UNL     1       2.224   2.218  17.940  0.00  0.00    +0.000 C 
ATOM      2  C   UNL     1       2.987   3.484  18.198  0.00  0.00    +0.000 A 
ATOM      3  C   UNL     1       4.370   3.548  18.050  0.00  0.00    +0.000 A 
ATOM      4  C   UNL     1       5.021   4.757  18.291  0.00  0.00    +0.000 A 
ATOM      5  C   UNL     1       6.508   4.873  18.142  0.00  0.00    +0.000 C 
ATOM      6  N   UNL     1       4.363   5.885  18.651  0.00  0.00    +0.000 NA
ATOM      7  C   UNL     1       3.022   5.806  18.825  0.00  0.00    +0.000 A 
ATOM      8  N   UNL     1       2.321   6.967  19.227  0.00  0.00    +0.000 N 
ATOM      9  C   UNL     1       2.368   8.134  18.488  0.00  0.00    +0.000 A 
ATOM     10  C   UNL     1       3.095   8.188  17.159  0.00  0.00    +0.000 C 
ATOM     11  N   UNL     1       1.757   9.226  18.842  0.00  0.00    +0.000 NA
ATOM     12  C   UNL     1       1.072   9.254  20.060  0.00  0.00    +0.000 A 
ATOM     13  C   UNL     1       0.482  10.450  20.475  0.00  0.00    +0.000 A 
ATOM     14  C   UNL     1      -0.127  10.535  21.728  0.00  0.00    +0.000 A 
ATOM     15 CL   UNL     1      -0.803  12.028  22.251  0.00  0.00    +0.000 Cl
ATOM     16  C   UNL     1      -0.173   9.425  22.572  0.00  0.00    +0.000 A 
ATOM     17  C   UNL     1       0.376   8.216  22.148  0.00  0.00    +0.000 A 
ATOM     18  C   UNL     1       0.995   8.142  20.893  0.00  0.00    +0.000 A 
ATOM     19  C   UNL     1       1.620   6.893  20.429  0.00  0.00    +0.000 A 
ATOM     20  O   UNL     1       1.503   5.889  21.137  0.00  0.00    +0.000 OA
ATOM     21  C   UNL     1       2.307   4.632  18.599  0.00  0.00    +0.000 A 
ENDROOT
TORSDOF 0
ENDMDL
MODEL 4
REMARK VINA RESULT:      -6.6      2.101      3.349
REMARK  Name = 
REMARK  3 active torsions:
REMARK  status: ('A' for Active; 'I' for Inactive)
REMARK    1  A    between atoms: C_1  and  C_2
REMARK    2  A    between atoms: C_4  and  C_5
REMARK    3  A    between atoms: C_9  and  C_10
REMARK                            x       y       z     vdW  Elec       q    Type
REMARK                         _______ _______ _______ _____ _____    ______ ____
ROOT
ATOM      1  C   UNL     1       1.175   2.913  20.346  0.00  0.00    +0.000 C 
ATOM      2  C   UNL     1       2.097   4.056  20.037  0.00  0.00    +0.000 A 
ATOM      3  C   UNL     1       3.464   3.864  19.848  0.00  0.00    +0.000 A 
ATOM      4  C   UNL     1       4.267   4.962  19.550  0.00  0.00    +0.000 A 
ATOM      5  C   UNL     1       5.742   4.802  19.336  0.00  0.00    +0.000 C 
ATOM      6  N   UNL     1       3.774   6.218  19.421  0.00  0.00    +0.000 NA
ATOM      7  C   UNL     1       2.450   6.402  19.638  0.00  0.00    +0.000 A 
ATOM      8  N   UNL     1       1.920   7.710  19.534  0.00  0.00    +0.000 N 
ATOM      9  C   UNL     1       2.047   8.452  18.375  0.00  0.00    +0.000 A 
ATOM     10  C   UNL     1       2.674   7.856  17.130  0.00  0.00    +0.000 C 
ATOM     11  N   UNL     1       1.596   9.665  18.254  0.00  0.00    +0.000 NA
ATOM     12  C   UNL     1       1.013  10.285  19.363  0.00  0.00    +0.000 A 
ATOM     13  C   UNL     1       0.599  11.614  19.254  0.00  0.00    +0.000 A 
ATOM     14  C   UNL     1       0.100  12.289  20.369  0.00  0.00    +0.000 A 
ATOM     15 CL   UNL     1      -0.356  13.942  20.236  0.00  0.00    +0.000 Cl
ATOM     16  C   UNL     1      -0.011  11.640  21.599  0.00  0.00    +0.000 A 
ATOM     17  C   UNL     1       0.360  10.301  21.707  0.00  0.00    +0.000 A 
ATOM     18  C   UNL     1       0.870   9.634  20.585  0.00  0.00    +0.000 A 
ATOM     19  C   UNL     1       1.308   8.233  20.672  0.00  0.00    +0.000 A 
ATOM     20  O   UNL     1       1.130   7.634  21.735  0.00  0.00    +0.000 OA
ATOM     21  C   UNL     1       1.587   5.349  19.937  0.00  0.00    +0.000 A 
ENDROOT
TORSDOF 0
ENDMDL
MODEL 5
REMARK VINA RESULT:      -6.6      7.027      9.763
REMARK  Name = 
REMARK  3 active torsions:
REMARK  status: ('A' for Active; 'I' for Inactive)
REMARK    1  A    between atoms: C_1  and  C_2
REMARK    2  A    between atoms: C_4  and  C_5
REMARK    3  A    between atoms: C_9  and  C_10
REMARK                            x       y       z     vdW  Elec       q    Type
REMARK                         _______ _______ _______ _____ _____    ______ ____
ROOT
ATOM      1  C   UNL     1      -1.311  15.252  23.692  0.00  0.00    +0.000 C 
ATOM      2  C   UNL     1      -2.386  14.263  23.346  0.00  0.00    +0.000 A 
ATOM      3  C   UNL     1      -3.213  13.709  24.321  0.00  0.00    +0.000 A 
ATOM      4  C   UNL     1      -4.202  12.807  23.936  0.00  0.00    +0.000 A 
ATOM      5  C   UNL     1      -5.116  12.187  24.951  0.00  0.00    +0.000 C 
ATOM      6  N   UNL     1      -4.408  12.450  22.645  0.00  0.00    +0.000 NA
ATOM      7  C   UNL     1      -3.579  12.967  21.707  0.00  0.00    +0.000 A 
ATOM      8  N   UNL     1      -3.762  12.587  20.357  0.00  0.00    +0.000 N 
ATOM      9  C   UNL     1      -4.964  12.784  19.705  0.00  0.00    +0.000 A 
ATOM     10  C   UNL     1      -6.111  13.509  20.382  0.00  0.00    +0.000 C 
ATOM     11  N   UNL     1      -5.174  12.422  18.474  0.00  0.00    +0.000 NA
ATOM     12  C   UNL     1      -4.165  11.741  17.787  0.00  0.00    +0.000 A 
ATOM     13  C   UNL     1      -4.420  11.286  16.491  0.00  0.00    +0.000 A 
ATOM     14  C   UNL     1      -3.468  10.521  15.815  0.00  0.00    +0.000 A 
ATOM     15 CL   UNL     1      -3.813   9.920  14.242  0.00  0.00    +0.000 Cl
ATOM     16  C   UNL     1      -2.244  10.220  16.415  0.00  0.00    +0.000 A 
ATOM     17  C   UNL     1      -1.966  10.706  17.691  0.00  0.00    +0.000 A 
ATOM     18  C   UNL     1      -2.931  11.463  18.367  0.00  0.00    +0.000 A 
ATOM     19  C   UNL     1      -2.687  11.959  19.730  0.00  0.00    +0.000 A 
ATOM     20  O   UNL     1      -1.574  11.768  20.226  0.00  0.00    +0.000 OA
ATOM     21  C   UNL     1      -2.571  13.877  22.020  0.00  0.00    +0.000 A 
ENDROOT
TORSDOF 0
ENDMDL
MODEL 6
REMARK VINA RESULT:      -6.6      3.304      7.785
REMARK  Name = 
REMARK  3 active torsions:
REMARK  status: ('A' for Active; 'I' for Inactive)
REMARK    1  A    between atoms: C_1  and  C_2
REMARK    2  A    between atoms: C_4  and  C_5
REMARK    3  A    between atoms: C_9  and  C_10
REMARK                            x       y       z     vdW  Elec       q    Type
REMARK                         _______ _______ _______ _____ _____    ______ ____
ROOT
ATOM      1  C   UNL     1      -4.431  13.033  20.070  0.00  0.00    +0.000 C 
ATOM      2  C   UNL     1      -3.104  12.865  20.747  0.00  0.00    +0.000 A 
ATOM      3  C   UNL     1      -2.638  13.783  21.686  0.00  0.00    +0.000 A 
ATOM      4  C   UNL     1      -1.403  13.565  22.292  0.00  0.00    +0.000 A 
ATOM      5  C   UNL     1      -0.864  14.526  23.309  0.00  0.00    +0.000 C 
ATOM      6  N   UNL     1      -0.633  12.485  22.018  0.00  0.00    +0.000 NA
ATOM      7  C   UNL     1      -1.075  11.614  21.081  0.00  0.00    +0.000 A 
ATOM      8  N   UNL     1      -0.273  10.493  20.763  0.00  0.00    +0.000 N 
ATOM      9  C   UNL     1       0.115   9.583  21.727  0.00  0.00    +0.000 A 
ATOM     10  C   UNL     1      -0.387   9.693  23.153  0.00  0.00    +0.000 C 
ATOM     11  N   UNL     1       0.873   8.558  21.474  0.00  0.00    +0.000 NA
ATOM     12  C   UNL     1       1.382   8.393  20.182  0.00  0.00    +0.000 A 
ATOM     13  C   UNL     1       2.258   7.336  19.931  0.00  0.00    +0.000 A 
ATOM     14  C   UNL     1       2.856   7.201  18.677  0.00  0.00    +0.000 A 
ATOM     15 CL   UNL     1       3.975   5.926  18.395  0.00  0.00    +0.000 Cl
ATOM     16  C   UNL     1       2.571   8.107  17.655  0.00  0.00    +0.000 A 
ATOM     17  C   UNL     1       1.665   9.140  17.885  0.00  0.00    +0.000 A 
ATOM     18  C   UNL     1       1.078   9.275  19.149  0.00  0.00    +0.000 A 
ATOM     19  C   UNL     1       0.148  10.377  19.439  0.00  0.00    +0.000 A 
ATOM     20  O   UNL     1      -0.171  11.126  18.512  0.00  0.00    +0.000 OA
ATOM     21  C   UNL     1      -2.303  11.768  20.438  0.00  0.00    +0.000 A 
ENDROOT
TORSDOF 0
ENDMDL
MODEL 7
REMARK VINA RESULT:      -6.5      6.505      9.398
REMARK  Name = 
REMARK  3 active torsions:
REMARK  status: ('A' for Active; 'I' for Inactive)
REMARK    1  A    between atoms: C_1  and  C_2
REMARK    2  A    between atoms: C_4  and  C_5
REMARK    3  A    between atoms: C_9  and  C_10
REMARK                            x       y       z     vdW  Elec       q    Type
REMARK                         _______ _______ _______ _____ _____    ______ ____
ROOT
ATOM      1  C   UNL     1      -4.509  12.540  24.997  0.00  0.00    +0.000 C 
ATOM      2  C   UNL     1      -3.519  13.034  23.985  0.00  0.00    +0.000 A 
ATOM      3  C   UNL     1      -2.678  14.112  24.248  0.00  0.00    +0.000 A 
ATOM      4  C   UNL     1      -1.769  14.516  23.272  0.00  0.00    +0.000 A 
ATOM      5  C   UNL     1      -0.843  15.670  23.513  0.00  0.00    +0.000 C 
ATOM      6  N   UNL     1      -1.654  13.894  22.074  0.00  0.00    +0.000 NA
ATOM      7  C   UNL     1      -2.497  12.867  21.812  0.00  0.00    +0.000 A 
ATOM      8  N   UNL     1      -2.411  12.221  20.557  0.00  0.00    +0.000 N 
ATOM      9  C   UNL     1      -1.235  11.642  20.119  0.00  0.00    +0.000 A 
ATOM     10  C   UNL     1      -0.011  11.588  21.012  0.00  0.00    +0.000 C 
ATOM     11  N   UNL     1      -1.114  11.065  18.961  0.00  0.00    +0.000 NA
ATOM     12  C   UNL     1      -2.198  11.081  18.079  0.00  0.00    +0.000 A 
ATOM     13  C   UNL     1      -2.042  10.528  16.806  0.00  0.00    +0.000 A 
ATOM     14  C   UNL     1      -3.074  10.614  15.871  0.00  0.00    +0.000 A 
ATOM     15 CL   UNL     1      -2.851   9.977  14.289  0.00  0.00    +0.000 Cl
ATOM     16  C   UNL     1      -4.280  11.233  16.201  0.00  0.00    +0.000 A 
ATOM     17  C   UNL     1      -4.460  11.750  17.482  0.00  0.00    +0.000 A 
ATOM     18  C   UNL     1      -3.415  11.670  18.412  0.00  0.00    +0.000 A 
ATOM     19  C   UNL     1      -3.555  12.239  19.761  0.00  0.00    +0.000 A 
ATOM     20  O   UNL     1      -4.650  12.708  20.081  0.00  0.00    +0.000 OA
ATOM     21  C   UNL     1      -3.429  12.408  22.743  0.00  0.00    +0.000 A 
ENDROOT
TORSDOF 0
ENDMDL
MODEL 8
REMARK VINA RESULT:      -6.5      3.166      7.062
REMARK  Name = 
REMARK  3 active torsions:
REMARK  status: ('A' for Active; 'I' for Inactive)
REMARK    1  A    between atoms: C_1  and  C_2
REMARK    2  A    between atoms: C_4  and  C_5
REMARK    3  A    between atoms: C_9  and  C_10
REMARK                            x       y       z     vdW  Elec       q    Type
REMARK                         _______ _______ _______ _____ _____    ______ ____
ROOT
ATOM      1  C   UNL     1      -0.836  12.464  22.710  0.00  0.00    +0.000 C 
ATOM      2  C   UNL     1      -0.857  11.731  21.401  0.00  0.00    +0.000 A 
ATOM      3  C   UNL     1      -1.765  12.055  20.395  0.00  0.00    +0.000 A 
ATOM      4  C   UNL     1      -1.726  11.348  19.195  0.00  0.00    +0.000 A 
ATOM      5  C   UNL     1      -2.682  11.663  18.084  0.00  0.00    +0.000 C 
ATOM      6  N   UNL     1      -0.829  10.361  18.954  0.00  0.00    +0.000 NA
ATOM      7  C   UNL     1       0.028  10.029  19.948  0.00  0.00    +0.000 A 
ATOM      8  N   UNL     1       0.955   8.984  19.726  0.00  0.00    +0.000 N 
ATOM      9  C   UNL     1       1.855   9.024  18.678  0.00  0.00    +0.000 A 
ATOM     10  C   UNL     1       1.955  10.242  17.781  0.00  0.00    +0.000 C 
ATOM     11  N   UNL     1       2.701   8.069  18.430  0.00  0.00    +0.000 NA
ATOM     12  C   UNL     1       2.663   6.910  19.210  0.00  0.00    +0.000 A 
ATOM     13  C   UNL     1       3.520   5.855  18.893  0.00  0.00    +0.000 A 
ATOM     14  C   UNL     1       3.441   4.650  19.593  0.00  0.00    +0.000 A 
ATOM     15 CL   UNL     1       4.464   3.338  19.159  0.00  0.00    +0.000 Cl
ATOM     16  C   UNL     1       2.521   4.492  20.631  0.00  0.00    +0.000 A 
ATOM     17  C   UNL     1       1.691   5.555  20.981  0.00  0.00    +0.000 A 
ATOM     18  C   UNL     1       1.770   6.757  20.266  0.00  0.00    +0.000 A 
ATOM     19  C   UNL     1       0.883   7.887  20.583  0.00  0.00    +0.000 A 
ATOM     20  O   UNL     1       0.131   7.779  21.555  0.00  0.00    +0.000 OA
ATOM     21  C   UNL     1       0.047  10.696  21.173  0.00  0.00    +0.000 A 
ENDROOT
TORSDOF 0
ENDMDL
MODEL 9
REMARK VINA RESULT:      -6.5      4.565      9.163
REMARK  Name = 
REMARK  3 active torsions:
REMARK  status: ('A' for Active; 'I' for Inactive)
REMARK    1  A    between atoms: C_1  and  C_2
REMARK    2  A    between atoms: C_4  and  C_5
REMARK    3  A    between atoms: C_9  and  C_10
REMARK                            x       y       z     vdW  Elec       q    Type
REMARK                         _______ _______ _______ _____ _____    ______ ____
ROOT
ATOM      1  C   UNL     1      -2.141  15.098  25.348  0.00  0.00    +0.000 C 
ATOM      2  C   UNL     1      -2.751  14.153  24.356  0.00  0.00    +0.000 A 
ATOM      3  C   UNL     1      -4.128  13.962  24.276  0.00  0.00    +0.000 A 
ATOM      4  C   UNL     1      -4.636  13.081  23.324  0.00  0.00    +0.000 A 
ATOM      5  C   UNL     1      -6.112  12.846  23.202  0.00  0.00    +0.000 C 
ATOM      6  N   UNL     1      -3.846  12.406  22.455  0.00  0.00    +0.000 NA
ATOM      7  C   UNL     1      -2.506  12.571  22.559  0.00  0.00    +0.000 A 
ATOM      8  N   UNL     1      -1.663  11.855  21.677  0.00  0.00    +0.000 N 
ATOM      9  C   UNL     1      -1.782  11.972  20.306  0.00  0.00    +0.000 A 
ATOM     10  C   UNL     1      -2.759  12.954  19.688  0.00  0.00    +0.000 C 
ATOM     11  N   UNL     1      -1.043  11.309  19.468  0.00  0.00    +0.000 NA
ATOM     12  C   UNL     1      -0.124  10.379  19.963  0.00  0.00    +0.000 A 
ATOM     13  C   UNL     1       0.614   9.612  19.060  0.00  0.00    +0.000 A 
ATOM     14  C   UNL     1       1.469   8.610  19.522  0.00  0.00    +0.000 A 
ATOM     15 CL   UNL     1       2.333   7.636  18.399  0.00  0.00    +0.000 Cl
ATOM     16  C   UNL     1       1.612   8.376  20.891  0.00  0.00    +0.000 A 
ATOM     17  C   UNL     1       0.910   9.165  21.800  0.00  0.00    +0.000 A 
ATOM     18  C   UNL     1       0.046  10.161  21.327  0.00  0.00    +0.000 A 
ATOM     19  C   UNL     1      -0.740  10.986  22.257  0.00  0.00    +0.000 A 
ATOM     20  O   UNL     1      -0.549  10.839  23.467  0.00  0.00    +0.000 OA
ATOM     21  C   UNL     1      -1.930  13.438  23.486  0.00  0.00    +0.000 A 
ENDROOT
TORSDOF 0
ENDMDL
