MODEL 1
REMARK VINA RESULT:      -7.3      0.000      0.000
REMARK  Name = 
REMARK  6 active torsions:
REMARK  status: ('A' for Active; 'I' for Inactive)
REMARK    1  A    between atoms: C_2  and  C_3
REMARK    2  A    between atoms: C_3  and  C_4
REMARK    3  A    between atoms: C_7  and  O_8
REMARK    4  A    between atoms: C_9  and  O_10
REMARK    5  A    between atoms: N_12  and  C_13
REMARK    6  A    between atoms: C_13  and  C_14
REMARK                            x       y       z     vdW  Elec       q    Type
REMARK                         _______ _______ _______ _____ _____    ______ ____
ROOT
ATOM      1  O   UNL     1       1.951   7.322  20.259  0.00  0.00    +0.000 OA
ATOM      2  C   UNL     1       2.113   7.806  19.141  0.00  0.00    +0.000 C 
ATOM      3  N   UNL     1       1.614   9.032  18.765  0.00  0.00    +0.000 N 
ATOM      4  H   UNL     1       1.868   9.416  17.863  0.00  0.00    +0.000 HD
ENDROOT
BRANCH   2   5
ATOM      5  C   UNL     1       2.880   7.080  18.049  0.00  0.00    +0.000 C 
BRANCH   5   6
ATOM      6  C   UNL     1       2.888   5.579  18.205  0.00  0.00    +0.000 A 
ATOM      7  C   UNL     1       1.776   4.811  17.813  0.00  0.00    +0.000 A 
ATOM      8  C   UNL     1       1.788   3.417  17.930  0.00  0.00    +0.000 A 
ATOM      9  C   UNL     1       2.919   2.789  18.440  0.00  0.00    +0.000 A 
ATOM     10  C   UNL     1       4.024   3.541  18.824  0.00  0.00    +0.000 A 
ATOM     11  C   UNL     1       4.021   4.925  18.711  0.00  0.00    +0.000 A 
BRANCH   9  12
ATOM     12  O   UNL     1       2.993   1.431  18.576  0.00  0.00    +0.000 OA
ATOM     13  H   UNL     1       3.906   1.202  18.821  0.00  0.00    +0.000 HD
ENDBRANCH   9  12
BRANCH  10  14
ATOM     14  O   UNL     1       5.135   2.918  19.315  0.00  0.00    +0.000 OA
ATOM     15  H   UNL     1       4.836   2.007  19.510  0.00  0.00    +0.000 HD
ENDBRANCH  10  14
ENDBRANCH   5   6
ENDBRANCH   2   5
BRANCH   3  16
ATOM     16  C   UNL     1       0.834   9.866  19.655  0.00  0.00    +0.000 C 
BRANCH  16  17
ATOM     17  C   UNL     1      -0.460  10.275  18.996  0.00  0.00    +0.000 A 
ATOM     18  C   UNL     1      -0.783   9.719  17.744  0.00  0.00    +0.000 A 
ATOM     19  C   UNL     1      -1.938  10.111  17.062  0.00  0.00    +0.000 A 
ATOM     20  C   UNL     1      -2.780  11.067  17.623  0.00  0.00    +0.000 A 
ATOM     21 CL   UNL     1      -4.185  11.574  16.768  0.00  0.00    +0.000 Cl
ATOM     22  C   UNL     1      -2.485  11.625  18.864  0.00  0.00    +0.000 A 
ATOM     23  C   UNL     1      -1.330  11.232  19.546  0.00  0.00    +0.000 A 
ATOM     24 CL   UNL     1      -1.010  11.984  21.068  0.00  0.00    +0.000 Cl
ENDBRANCH  16  17
ENDBRANCH   3  16
TORSDOF 6
ENDMDL
MODEL 2
REMARK VINA RESULT:      -7.3      2.713      3.269
REMARK  Name = 
REMARK  6 active torsions:
REMARK  status: ('A' for Active; 'I' for Inactive)
REMARK    1  A    between atoms: C_2  and  C_3
REMARK    2  A    between atoms: C_3  and  C_4
REMARK    3  A    between atoms: C_7  and  O_8
REMARK    4  A    between atoms: C_9  and  O_10
REMARK    5  A    between atoms: N_12  and  C_13
REMARK    6  A    between atoms: C_13  and  C_14
REMARK                            x       y       z     vdW  Elec       q    Type
REMARK                         _______ _______ _______ _____ _____    ______ ____
ROOT
ATOM      1  O   UNL     1       2.588   6.419  19.154  0.00  0.00    +0.000 OA
ATOM      2  C   UNL     1       1.898   6.275  20.161  0.00  0.00    +0.000 C 
ATOM      3  N   UNL     1       1.445   7.324  20.927  0.00  0.00    +0.000 N 
ATOM      4  H   UNL     1       0.799   7.143  21.685  0.00  0.00    +0.000 HD
ENDROOT
BRANCH   2   5
ATOM      5  C   UNL     1       1.485   4.904  20.670  0.00  0.00    +0.000 C 
BRANCH   5   6
ATOM      6  C   UNL     1       2.164   3.760  19.956  0.00  0.00    +0.000 A 
ATOM      7  C   UNL     1       1.604   3.210  18.788  0.00  0.00    +0.000 A 
ATOM      8  C   UNL     1       2.242   2.168  18.107  0.00  0.00    +0.000 A 
ATOM      9  C   UNL     1       3.447   1.677  18.595  0.00  0.00    +0.000 A 
ATOM     10  C   UNL     1       4.010   2.219  19.745  0.00  0.00    +0.000 A 
ATOM     11  C   UNL     1       3.384   3.254  20.428  0.00  0.00    +0.000 A 
BRANCH   9  12
ATOM     12  O   UNL     1       4.121   0.662  17.973  0.00  0.00    +0.000 OA
ATOM     13  H   UNL     1       4.626   0.178  18.648  0.00  0.00    +0.000 HD
ENDBRANCH   9  12
BRANCH  10  14
ATOM     14  O   UNL     1       5.198   1.738  20.215  0.00  0.00    +0.000 OA
ATOM     15  H   UNL     1       5.346   2.226  21.049  0.00  0.00    +0.000 HD
ENDBRANCH  10  14
ENDBRANCH   5   6
ENDBRANCH   2   5
BRANCH   3  16
ATOM     16  C   UNL     1       1.752   8.706  20.622  0.00  0.00    +0.000 C 
BRANCH  16  17
ATOM     17  C   UNL     1       0.776   9.628  21.310  0.00  0.00    +0.000 A 
ATOM     18  C   UNL     1       0.205   9.217  22.529  0.00  0.00    +0.000 A 
ATOM     19  C   UNL     1      -0.751  10.005  23.175  0.00  0.00    +0.000 A 
ATOM     20  C   UNL     1      -1.152  11.209  22.606  0.00  0.00    +0.000 A 
ATOM     21 CL   UNL     1      -2.354  12.163  23.384  0.00  0.00    +0.000 Cl
ATOM     22  C   UNL     1      -0.597  11.641  21.404  0.00  0.00    +0.000 A 
ATOM     23  C   UNL     1       0.361  10.853  20.759  0.00  0.00    +0.000 A 
ATOM     24 CL   UNL     1       0.989  11.434  19.258  0.00  0.00    +0.000 Cl
ENDBRANCH  16  17
ENDBRANCH   3  16
TORSDOF 6
ENDMDL
MODEL 3
REMARK VINA RESULT:      -7.0      6.182      8.419
REMARK  Name = 
REMARK  6 active torsions:
REMARK  status: ('A' for Active; 'I' for Inactive)
REMARK    1  A    between atoms: C_2  and  C_3
REMARK    2  A    between atoms: C_3  and  C_4
REMARK    3  A    between atoms: C_7  and  O_8
REMARK    4  A    between atoms: C_9  and  O_10
REMARK    5  A    between atoms: N_12  and  C_13
REMARK    6  A    between atoms: C_13  and  C_14
REMARK                            x       y       z     vdW  Elec       q    Type
REMARK                         _______ _______ _______ _____ _____    ______ ____
ROOT
ATOM      1  O   UNL     1       8.199   4.211  17.806  0.00  0.00    +0.000 OA
ATOM      2  C   UNL     1       7.129   4.818  17.815  0.00  0.00    +0.000 C 
ATOM      3  N   UNL     1       6.696   5.606  16.773  0.00  0.00    +0.000 N 
ATOM      4  H   UNL     1       5.763   5.998  16.803  0.00  0.00    +0.000 HD
ENDROOT
BRANCH   2   5
ATOM      5  C   UNL     1       6.178   4.764  18.998  0.00  0.00    +0.000 C 
BRANCH   5   6
ATOM      6  C   UNL     1       4.737   4.541  18.610  0.00  0.00    +0.000 A 
ATOM      7  C   UNL     1       3.844   5.624  18.513  0.00  0.00    +0.000 A 
ATOM      8  C   UNL     1       2.513   5.427  18.128  0.00  0.00    +0.000 A 
ATOM      9  C   UNL     1       2.076   4.140  17.836  0.00  0.00    +0.000 A 
ATOM     10  C   UNL     1       2.954   3.065  17.924  0.00  0.00    +0.000 A 
ATOM     11  C   UNL     1       4.276   3.252  18.305  0.00  0.00    +0.000 A 
BRANCH   9  12
ATOM     12  O   UNL     1       0.789   3.883  17.451  0.00  0.00    +0.000 OA
ATOM     13  H   UNL     1       0.281   3.637  18.243  0.00  0.00    +0.000 HD
ENDBRANCH   9  12
BRANCH  10  14
ATOM     14  O   UNL     1       2.520   1.805  17.628  0.00  0.00    +0.000 OA
ATOM     15  H   UNL     1       2.438   1.799  16.654  0.00  0.00    +0.000 HD
ENDBRANCH  10  14
ENDBRANCH   5   6
ENDBRANCH   2   5
BRANCH   3  16
ATOM     16  C   UNL     1       7.472   5.806  15.567  0.00  0.00    +0.000 C 
BRANCH  16  17
ATOM     17  C   UNL     1       6.907   4.985  14.435  0.00  0.00    +0.000 A 
ATOM     18  C   UNL     1       5.772   4.188  14.680  0.00  0.00    +0.000 A 
ATOM     19  C   UNL     1       5.247   3.362  13.684  0.00  0.00    +0.000 A 
ATOM     20  C   UNL     1       5.853   3.318  12.432  0.00  0.00    +0.000 A 
ATOM     21 CL   UNL     1       5.227   2.275  11.216  0.00  0.00    +0.000 Cl
ATOM     22  C   UNL     1       6.972   4.102  12.163  0.00  0.00    +0.000 A 
ATOM     23  C   UNL     1       7.497   4.930  13.160  0.00  0.00    +0.000 A 
ATOM     24 CL   UNL     1       8.902   5.855  12.768  0.00  0.00    +0.000 Cl
ENDBRANCH  16  17
ENDBRANCH   3  16
TORSDOF 6
ENDMDL
MODEL 4
REMARK VINA RESULT:      -7.0      4.339      8.385
REMARK  Name = 
REMARK  6 active torsions:
REMARK  status: ('A' for Active; 'I' for Inactive)
REMARK    1  A    between atoms: C_2  and  C_3
REMARK    2  A    between atoms: C_3  and  C_4
REMARK    3  A    between atoms: C_7  and  O_8
REMARK    4  A    between atoms: C_9  and  O_10
REMARK    5  A    between atoms: N_12  and  C_13
REMARK    6  A    between atoms: C_13  and  C_14
REMARK                            x       y       z     vdW  Elec       q    Type
REMARK                         _______ _______ _______ _____ _____    ______ ____
ROOT
ATOM      1  O   UNL     1       1.979   9.985  17.441  0.00  0.00    +0.000 OA
ATOM      2  C   UNL     1       1.689   9.242  18.377  0.00  0.00    +0.000 C 
ATOM      3  N   UNL     1       2.302   8.031  18.601  0.00  0.00    +0.000 N 
ATOM      4  H   UNL     1       2.085   7.514  19.445  0.00  0.00    +0.000 HD
ENDROOT
BRANCH   2   5
ATOM      5  C   UNL     1       0.603   9.591  19.380  0.00  0.00    +0.000 C 
BRANCH   5   6
ATOM      6  C   UNL     1      -0.608  10.247  18.762  0.00  0.00    +0.000 A 
ATOM      7  C   UNL     1      -1.142   9.771  17.550  0.00  0.00    +0.000 A 
ATOM      8  C   UNL     1      -2.280  10.358  16.986  0.00  0.00    +0.000 A 
ATOM      9  C   UNL     1      -2.888  11.424  17.641  0.00  0.00    +0.000 A 
ATOM     10  C   UNL     1      -2.369  11.895  18.842  0.00  0.00    +0.000 A 
ATOM     11  C   UNL     1      -1.241  11.319  19.408  0.00  0.00    +0.000 A 
BRANCH   9  12
ATOM     12  O   UNL     1      -4.004  12.037  17.143  0.00  0.00    +0.000 OA
ATOM     13  H   UNL     1      -4.640  11.346  16.890  0.00  0.00    +0.000 HD
ENDBRANCH   9  12
BRANCH  10  14
ATOM     14  O   UNL     1      -2.977  12.936  19.484  0.00  0.00    +0.000 OA
ATOM     15  H   UNL     1      -2.241  13.424  19.904  0.00  0.00    +0.000 HD
ENDBRANCH  10  14
ENDBRANCH   5   6
ENDBRANCH   2   5
BRANCH   3  16
ATOM     16  C   UNL     1       3.344   7.509  17.742  0.00  0.00    +0.000 C 
BRANCH  16  17
ATOM     17  C   UNL     1       3.369   6.001  17.800  0.00  0.00    +0.000 A 
ATOM     18  C   UNL     1       2.527   5.348  18.719  0.00  0.00    +0.000 A 
ATOM     19  C   UNL     1       2.557   3.958  18.857  0.00  0.00    +0.000 A 
ATOM     20  C   UNL     1       3.435   3.206  18.081  0.00  0.00    +0.000 A 
ATOM     21 CL   UNL     1       3.497   1.498  18.275  0.00  0.00    +0.000 Cl
ATOM     22  C   UNL     1       4.273   3.829  17.161  0.00  0.00    +0.000 A 
ATOM     23  C   UNL     1       4.242   5.220  17.022  0.00  0.00    +0.000 A 
ATOM     24 CL   UNL     1       5.327   5.931  15.881  0.00  0.00    +0.000 Cl
ENDBRANCH  16  17
ENDBRANCH   3  16
TORSDOF 6
ENDMDL
MODEL 5
REMARK VINA RESULT:      -7.0      4.671      7.947
REMARK  Name = 
REMARK  6 active torsions:
REMARK  status: ('A' for Active; 'I' for Inactive)
REMARK    1  A    between atoms: C_2  and  C_3
REMARK    2  A    between atoms: C_3  and  C_4
REMARK    3  A    between atoms: C_7  and  O_8
REMARK    4  A    between atoms: C_9  and  O_10
REMARK    5  A    between atoms: N_12  and  C_13
REMARK    6  A    between atoms: C_13  and  C_14
REMARK                            x       y       z     vdW  Elec       q    Type
REMARK                         _______ _______ _______ _____ _____    ______ ____
ROOT
ATOM      1  O   UNL     1       2.216   3.704  19.193  0.00  0.00    +0.000 OA
ATOM      2  C   UNL     1       2.768   4.654  19.744  0.00  0.00    +0.000 C 
ATOM      3  N   UNL     1       4.135   4.780  19.848  0.00  0.00    +0.000 N 
ATOM      4  H   UNL     1       4.526   5.634  20.226  0.00  0.00    +0.000 HD
ENDROOT
BRANCH   2   5
ATOM      5  C   UNL     1       1.983   5.786  20.383  0.00  0.00    +0.000 C 
BRANCH   5   6
ATOM      6  C   UNL     1       2.016   7.071  19.593  0.00  0.00    +0.000 A 
ATOM      7  C   UNL     1       2.579   7.107  18.304  0.00  0.00    +0.000 A 
ATOM      8  C   UNL     1       2.588   8.289  17.555  0.00  0.00    +0.000 A 
ATOM      9  C   UNL     1       2.028   9.439  18.098  0.00  0.00    +0.000 A 
ATOM     10  C   UNL     1       1.464   9.411  19.369  0.00  0.00    +0.000 A 
ATOM     11  C   UNL     1       1.451   8.242  20.119  0.00  0.00    +0.000 A 
BRANCH   9  12
ATOM     12  O   UNL     1       2.003  10.624  17.415  0.00  0.00    +0.000 OA
ATOM     13  H   UNL     1       2.171  10.434  16.477  0.00  0.00    +0.000 HD
ENDBRANCH   9  12
BRANCH  10  14
ATOM     14  O   UNL     1       0.908  10.542  19.893  0.00  0.00    +0.000 OA
ATOM     15  H   UNL     1       1.478  10.763  20.655  0.00  0.00    +0.000 HD
ENDBRANCH  10  14
ENDBRANCH   5   6
ENDBRANCH   2   5
BRANCH   3  16
ATOM     16  C   UNL     1       5.055   3.793  19.325  0.00  0.00    +0.000 C 
BRANCH  16  17
ATOM     17  C   UNL     1       5.570   4.217  17.971  0.00  0.00    +0.000 A 
ATOM     18  C   UNL     1       4.899   3.761  16.822  0.00  0.00    +0.000 A 
ATOM     19  C   UNL     1       5.372   4.073  15.544  0.00  0.00    +0.000 A 
ATOM     20  C   UNL     1       6.525   4.838  15.403  0.00  0.00    +0.000 A 
ATOM     21 CL   UNL     1       7.126   5.194  13.830  0.00  0.00    +0.000 Cl
ATOM     22  C   UNL     1       7.202   5.306  16.525  0.00  0.00    +0.000 A 
ATOM     23  C   UNL     1       6.728   4.996  17.803  0.00  0.00    +0.000 A 
ATOM     24 CL   UNL     1       7.631   5.585  19.153  0.00  0.00    +0.000 Cl
ENDBRANCH  16  17
ENDBRANCH   3  16
TORSDOF 6
ENDMDL
MODEL 6
REMARK VINA RESULT:      -7.0      1.959      2.548
REMARK  Name = 
REMARK  6 active torsions:
REMARK  status: ('A' for Active; 'I' for Inactive)
REMARK    1  A    between atoms: C_2  and  C_3
REMARK    2  A    between atoms: C_3  and  C_4
REMARK    3  A    between atoms: C_7  and  O_8
REMARK    4  A    between atoms: C_9  and  O_10
REMARK    5  A    between atoms: N_12  and  C_13
REMARK    6  A    between atoms: C_13  and  C_14
REMARK                            x       y       z     vdW  Elec       q    Type
REMARK                         _______ _______ _______ _____ _____    ______ ____
ROOT
ATOM      1  O   UNL     1       2.794   6.461  19.339  0.00  0.00    +0.000 OA
ATOM      2  C   UNL     1       1.937   6.298  20.206  0.00  0.00    +0.000 C 
ATOM      3  N   UNL     1       1.443   7.319  20.985  0.00  0.00    +0.000 N 
ATOM      4  H   UNL     1       0.669   7.134  21.611  0.00  0.00    +0.000 HD
ENDROOT
BRANCH   2   5
ATOM      5  C   UNL     1       1.345   4.933  20.511  0.00  0.00    +0.000 C 
BRANCH   5   6
ATOM      6  C   UNL     1       2.063   3.792  19.832  0.00  0.00    +0.000 A 
ATOM      7  C   UNL     1       1.551   3.225  18.650  0.00  0.00    +0.000 A 
ATOM      8  C   UNL     1       2.227   2.185  18.000  0.00  0.00    +0.000 A 
ATOM      9  C   UNL     1       3.420   1.714  18.536  0.00  0.00    +0.000 A 
ATOM     10  C   UNL     1       3.934   2.274  19.700  0.00  0.00    +0.000 A 
ATOM     11  C   UNL     1       3.271   3.306  20.350  0.00  0.00    +0.000 A 
BRANCH   9  12
ATOM     12  O   UNL     1       4.128   0.704  17.947  0.00  0.00    +0.000 OA
ATOM     13  H   UNL     1       4.431   0.101  18.647  0.00  0.00    +0.000 HD
ENDBRANCH   9  12
BRANCH  10  14
ATOM     14  O   UNL     1       5.112   1.812  20.216  0.00  0.00    +0.000 OA
ATOM     15  H   UNL     1       5.169   2.227  21.099  0.00  0.00    +0.000 HD
ENDBRANCH  10  14
ENDBRANCH   5   6
ENDBRANCH   2   5
BRANCH   3  16
ATOM     16  C   UNL     1       1.900   8.687  20.865  0.00  0.00    +0.000 C 
BRANCH  16  17
ATOM     17  C   UNL     1       0.813   9.556  20.281  0.00  0.00    +0.000 A 
ATOM     18  C   UNL     1      -0.141  10.118  21.150  0.00  0.00    +0.000 A 
ATOM     19  C   UNL     1      -1.203  10.878  20.655  0.00  0.00    +0.000 A 
ATOM     20  C   UNL     1      -1.327  11.080  19.284  0.00  0.00    +0.000 A 
ATOM     21 CL   UNL     1      -2.654  11.987  18.670  0.00  0.00    +0.000 Cl
ATOM     22  C   UNL     1      -0.393  10.540  18.404  0.00  0.00    +0.000 A 
ATOM     23  C   UNL     1       0.671   9.781  18.900  0.00  0.00    +0.000 A 
ATOM     24 CL   UNL     1       1.779   9.117  17.753  0.00  0.00    +0.000 Cl
ENDBRANCH  16  17
ENDBRANCH   3  16
TORSDOF 6
ENDMDL
MODEL 7
REMARK VINA RESULT:      -6.9      4.420      6.475
REMARK  Name = 
REMARK  6 active torsions:
REMARK  status: ('A' for Active; 'I' for Inactive)
REMARK    1  A    between atoms: C_2  and  C_3
REMARK    2  A    between atoms: C_3  and  C_4
REMARK    3  A    between atoms: C_7  and  O_8
REMARK    4  A    between atoms: C_9  and  O_10
REMARK    5  A    between atoms: N_12  and  C_13
REMARK    6  A    between atoms: C_13  and  C_14
REMARK                            x       y       z     vdW  Elec       q    Type
REMARK                         _______ _______ _______ _____ _____    ______ ____
ROOT
ATOM      1  O   UNL     1       3.757   3.807  15.885  0.00  0.00    +0.000 OA
ATOM      2  C   UNL     1       4.705   3.675  16.656  0.00  0.00    +0.000 C 
ATOM      3  N   UNL     1       4.564   3.314  17.976  0.00  0.00    +0.000 N 
ATOM      4  H   UNL     1       5.390   3.128  18.530  0.00  0.00    +0.000 HD
ENDROOT
BRANCH   2   5
ATOM      5  C   UNL     1       6.140   3.916  16.222  0.00  0.00    +0.000 C 
BRANCH   5   6
ATOM      6  C   UNL     1       6.836   5.007  16.999  0.00  0.00    +0.000 A 
ATOM      7  C   UNL     1       6.888   6.321  16.500  0.00  0.00    +0.000 A 
ATOM      8  C   UNL     1       7.509   7.343  17.228  0.00  0.00    +0.000 A 
ATOM      9  C   UNL     1       8.077   7.047  18.462  0.00  0.00    +0.000 A 
ATOM     10  C   UNL     1       8.024   5.751  18.964  0.00  0.00    +0.000 A 
ATOM     11  C   UNL     1       7.410   4.732  18.249  0.00  0.00    +0.000 A 
BRANCH   9  12
ATOM     12  O   UNL     1       8.694   8.001  19.223  0.00  0.00    +0.000 OA
ATOM     13  H   UNL     1       8.136   8.173  20.001  0.00  0.00    +0.000 HD
ENDBRANCH   9  12
BRANCH  10  14
ATOM     14  O   UNL     1       8.576   5.469  20.181  0.00  0.00    +0.000 OA
ATOM     15  H   UNL     1       9.539   5.548  20.035  0.00  0.00    +0.000 HD
ENDBRANCH  10  14
ENDBRANCH   5   6
ENDBRANCH   2   5
BRANCH   3  16
ATOM     16  C   UNL     1       3.275   3.066  18.587  0.00  0.00    +0.000 C 
BRANCH  16  17
ATOM     17  C   UNL     1       2.726   4.334  19.195  0.00  0.00    +0.000 A 
ATOM     18  C   UNL     1       3.201   5.570  18.718  0.00  0.00    +0.000 A 
ATOM     19  C   UNL     1       2.773   6.771  19.289  0.00  0.00    +0.000 A 
ATOM     20  C   UNL     1       1.869   6.749  20.347  0.00  0.00    +0.000 A 
ATOM     21 CL   UNL     1       1.367   8.227  21.072  0.00  0.00    +0.000 Cl
ATOM     22  C   UNL     1       1.380   5.539  20.831  0.00  0.00    +0.000 A 
ATOM     23  C   UNL     1       1.807   4.338  20.259  0.00  0.00    +0.000 A 
ATOM     24 CL   UNL     1       1.182   2.871  20.925  0.00  0.00    +0.000 Cl
ENDBRANCH  16  17
ENDBRANCH   3  16
TORSDOF 6
ENDMDL
MODEL 8
REMARK VINA RESULT:      -6.9      1.192      1.214
REMARK  Name = 
REMARK  6 active torsions:
REMARK  status: ('A' for Active; 'I' for Inactive)
REMARK    1  A    between atoms: C_2  and  C_3
REMARK    2  A    between atoms: C_3  and  C_4
REMARK    3  A    between atoms: C_7  and  O_8
REMARK    4  A    between atoms: C_9  and  O_10
REMARK    5  A    between atoms: N_12  and  C_13
REMARK    6  A    between atoms: C_13  and  C_14
REMARK                            x       y       z     vdW  Elec       q    Type
REMARK                         _______ _______ _______ _____ _____    ______ ____
ROOT
ATOM      1  O   UNL     1       2.553   8.305  17.785  0.00  0.00    +0.000 OA
ATOM      2  C   UNL     1       2.009   8.251  18.887  0.00  0.00    +0.000 C 
ATOM      3  N   UNL     1       1.195   9.244  19.380  0.00  0.00    +0.000 N 
ATOM      4  H   UNL     1       0.701   9.093  20.251  0.00  0.00    +0.000 HD
ENDROOT
BRANCH   2   5
ATOM      5  C   UNL     1       2.199   7.071  19.825  0.00  0.00    +0.000 C 
BRANCH   5   6
ATOM      6  C   UNL     1       2.783   5.850  19.157  0.00  0.00    +0.000 A 
ATOM      7  C   UNL     1       2.018   5.093  18.251  0.00  0.00    +0.000 A 
ATOM      8  C   UNL     1       2.563   3.976  17.608  0.00  0.00    +0.000 A 
ATOM      9  C   UNL     1       3.880   3.618  17.872  0.00  0.00    +0.000 A 
ATOM     10  C   UNL     1       4.644   4.365  18.762  0.00  0.00    +0.000 A 
ATOM     11  C   UNL     1       4.112   5.475  19.404  0.00  0.00    +0.000 A 
BRANCH   9  12
ATOM     12  O   UNL     1       4.471   2.539  17.273  0.00  0.00    +0.000 OA
ATOM     13  H   UNL     1       4.509   2.710  16.317  0.00  0.00    +0.000 HD
ENDBRANCH   9  12
BRANCH  10  14
ATOM     14  O   UNL     1       5.940   4.012  19.010  0.00  0.00    +0.000 OA
ATOM     15  H   UNL     1       6.028   3.120  18.620  0.00  0.00    +0.000 HD
ENDBRANCH  10  14
ENDBRANCH   5   6
ENDBRANCH   2   5
BRANCH   3  16
ATOM     16  C   UNL     1       0.911  10.460  18.648  0.00  0.00    +0.000 C 
BRANCH  16  17
ATOM     17  C   UNL     1      -0.575  10.612  18.434  0.00  0.00    +0.000 A 
ATOM     18  C   UNL     1      -1.205   9.793  17.478  0.00  0.00    +0.000 A 
ATOM     19  C   UNL     1      -2.566   9.937  17.196  0.00  0.00    +0.000 A 
ATOM     20  C   UNL     1      -3.311  10.905  17.863  0.00  0.00    +0.000 A 
ATOM     21 CL   UNL     1      -4.979  11.105  17.492  0.00  0.00    +0.000 Cl
ATOM     22  C   UNL     1      -2.711  11.722  18.817  0.00  0.00    +0.000 A 
ATOM     23  C   UNL     1      -1.350  11.578  19.100  0.00  0.00    +0.000 A 
ATOM     24 CL   UNL     1      -0.663  12.642  20.275  0.00  0.00    +0.000 Cl
ENDBRANCH  16  17
ENDBRANCH   3  16
TORSDOF 6
ENDMDL
MODEL 9
REMARK VINA RESULT:      -6.9      6.463      8.154
REMARK  Name = 
REMARK  6 active torsions:
REMARK  status: ('A' for Active; 'I' for Inactive)
REMARK    1  A    between atoms: C_2  and  C_3
REMARK    2  A    between atoms: C_3  and  C_4
REMARK    3  A    between atoms: C_7  and  O_8
REMARK    4  A    between atoms: C_9  and  O_10
REMARK    5  A    between atoms: N_12  and  C_13
REMARK    6  A    between atoms: C_13  and  C_14
REMARK                            x       y       z     vdW  Elec       q    Type
REMARK                         _______ _______ _______ _____ _____    ______ ____
ROOT
ATOM      1  O   UNL     1       6.729   4.478  18.521  0.00  0.00    +0.000 OA
ATOM      2  C   UNL     1       5.886   5.251  18.070  0.00  0.00    +0.000 C 
ATOM      3  N   UNL     1       5.983   5.841  16.831  0.00  0.00    +0.000 N 
ATOM      4  H   UNL     1       5.207   6.389  16.481  0.00  0.00    +0.000 HD
ENDROOT
BRANCH   2   5
ATOM      5  C   UNL     1       4.647   5.645  18.856  0.00  0.00    +0.000 C 
BRANCH   5   6
ATOM      6  C   UNL     1       3.504   4.668  18.720  0.00  0.00    +0.000 A 
ATOM      7  C   UNL     1       3.377   3.868  17.570  0.00  0.00    +0.000 A 
ATOM      8  C   UNL     1       2.336   2.941  17.449  0.00  0.00    +0.000 A 
ATOM      9  C   UNL     1       1.419   2.814  18.486  0.00  0.00    +0.000 A 
ATOM     10  C   UNL     1       1.541   3.597  19.629  0.00  0.00    +0.000 A 
ATOM     11  C   UNL     1       2.572   4.518  19.757  0.00  0.00    +0.000 A 
BRANCH   9  12
ATOM     12  O   UNL     1       0.382   1.925  18.430  0.00  0.00    +0.000 OA
ATOM     13  H   UNL     1       0.035   1.810  19.332  0.00  0.00    +0.000 HD
ENDBRANCH   9  12
BRANCH  10  14
ATOM     14  O   UNL     1       0.642   3.460  20.648  0.00  0.00    +0.000 OA
ATOM     15  H   UNL     1      -0.216   3.705  20.249  0.00  0.00    +0.000 HD
ENDBRANCH  10  14
ENDBRANCH   5   6
ENDBRANCH   2   5
BRANCH   3  16
ATOM     16  C   UNL     1       7.102   5.613  15.941  0.00  0.00    +0.000 C 
BRANCH  16  17
ATOM     17  C   UNL     1       6.651   4.876  14.704  0.00  0.00    +0.000 A 
ATOM     18  C   UNL     1       5.496   4.075  14.781  0.00  0.00    +0.000 A 
ATOM     19  C   UNL     1       5.071   3.322  13.683  0.00  0.00    +0.000 A 
ATOM     20  C   UNL     1       5.799   3.357  12.498  0.00  0.00    +0.000 A 
ATOM     21 CL   UNL     1       5.295   2.404  11.157  0.00  0.00    +0.000 Cl
ATOM     22  C   UNL     1       6.941   4.147  12.396  0.00  0.00    +0.000 A 
ATOM     23  C   UNL     1       7.365   4.901  13.494  0.00  0.00    +0.000 A 
ATOM     24 CL   UNL     1       8.805   5.838  13.308  0.00  0.00    +0.000 Cl
ENDBRANCH  16  17
ENDBRANCH   3  16
TORSDOF 6
ENDMDL
